@<TRIPOS>MOLECULE
2l65_MTC_A_1.pdb
 28 29 0 0 0
SMALL
GASTEIGER

@<TRIPOS>ATOM
      1  C1        25.3710   -6.5980   -2.4400 C.3   629  MTC629      0.0782
      2  C2        24.3260   -5.8320   -3.1270 C.1   629  MTC629     -0.0910
      3  C3        23.5510   -5.0830   -3.7070 C.1   629  MTC629     -0.0900
      4  C4        22.7890   -4.0760   -4.3790 C.3   629  MTC629      0.0900
      5  C5        23.4320   -2.8440   -4.3820 C.3   629  MTC629      0.0900
      6  C6        24.7010   -2.8650   -3.7170 C.1   629  MTC629     -0.0878
      7  C7        25.7570   -3.0010   -3.1120 C.1   629  MTC629     -0.0652
      8  C8        26.9830   -3.2760   -2.3510 C.3   629  MTC629      0.1482
      9  C9        28.1900   -3.3890   -3.2850 C.3   629  MTC629      0.1056
     10  C10       28.1060   -4.7060   -4.0610 C.2   629  MTC629      0.1718
     11  C11       27.5750   -5.8670   -3.5080 C.3   629  MTC629      0.1333
     12  C12       26.6280   -5.7270   -2.4980 C.3   629  MTC629      0.0415
     13  C13       26.8030   -4.6300   -1.6620 C.3   629  MTC629      0.0406
     14  C14       26.7310   -4.6780   -0.1310 C.3   629  MTC629      0.0160
     15  C15       27.5590   -5.8390    0.4200 C.3   629  MTC629      0.0696
     16  C16       31.1540   -6.7820    1.2060 C.3   629  MTC629      0.0820
     17  C17       28.7250   -7.3180   -4.9320 C.2   629  MTC629      0.4020
     18  C18       29.8850   -8.6680   -6.3690 C.3   629  MTC629      0.2573
     19  O8        27.2040   -2.2420   -1.3890 O.3   629  MTC629     -0.3749
     20  O10       28.4600   -4.6960   -5.2400 O.2   629  MTC629     -0.2942
     21  O71       29.4460   -6.4550   -5.4310 O.2   629  MTC629     -0.2264
     22  O72       28.8960   -8.6050   -5.3390 O.3   629  MTC629     -0.4306
     23  N11       27.8290   -7.0860   -3.9750 N.am  629  MTC629     -0.2656
     24  S1        27.5050   -5.9550    2.2450 S.3   629  MTC629     -0.0715
     25  S2        28.7300   -7.5290    2.6740 S.3   629  MTC629     -0.0229
     26  S3        30.5690   -6.6740    2.8840 S.3   629  MTC629     -0.0705
     27  HO8       26.3440   -2.0300   -0.9220 H     629  MTC629      0.2114
     28  H11       27.3180   -7.8520   -3.5840 H     629  MTC629      0.1531
@<TRIPOS>BOND
     1    18    22    1
     2    21    17    2
     3    22    17    1
     4    20    10    2
     5    17    23   am
     6     5     4    1
     7     5     6    1
     8     4     3    1
     9    10    11    1
    10    10     9    1
    11    23    28    1
    12    23    11    1
    13     6     7    3
    14     3     2    3
    15    11    12    1
    16     9     8    1
    17     2     1    1
    18     7     8    1
    19    12     1    1
    20    12    13    1
    21     8    13    1
    22     8    19    1
    23    13    14    1
    24    19    27    1
    25    14    15    1
    26    15    24    1
    27    16    26    1
    28    24    25    1
    29    25    26    1
