@<TRIPOS>MOLECULE
2l65_MRP_A_1.pdb
 14 14 0 0 0
SMALL
GASTEIGER

@<TRIPOS>ATOM
      1  C1         6.2470   -2.6170   -4.3950 C.3   627  MRP627      0.2986
      2  C2         5.7430   -2.7610   -5.8320 C.3   627  MRP627      0.1997
      3  C3         4.7280   -3.9020   -5.9160 C.3   627  MRP627      0.1762
      4  C4         3.6230   -3.6370   -4.8910 C.3   627  MRP627      0.1672
      5  C5         4.2250   -3.4430   -3.4970 C.3   627  MRP627      0.1472
      6  C6         3.1090   -3.1450   -2.4970 C.3   627  MRP627      0.0348
      7  C7         5.2210   -4.2450   -8.1770 C.3   627  MRP627      0.1742
      8  O1         6.8770   -3.8370   -3.9950 O.3   627  MRP627     -0.1871
      9  O2         5.1140   -1.5390   -6.2300 O.3   627  MRP627     -0.3774
     10  O3         4.1750   -4.0030   -7.2350 O.3   627  MRP627     -0.3484
     11  O4         2.7270   -4.7520   -4.8670 O.3   627  MRP627     -0.3795
     12  O5         5.1450   -2.3400   -3.5170 O.3   627  MRP627     -0.3266
     13  HO2        4.3470   -1.3420   -5.6200 H     627  MRP627      0.2106
     14  HO4        3.2310   -5.5800   -4.6270 H     627  MRP627      0.2105
@<TRIPOS>BOND
     1     7    10    1
     2    10     3    1
     3     9     2    1
     4     9    13    1
     5     3     2    1
     6     3     4    1
     7     2     1    1
     8     4    11    1
     9     4     5    1
    10    11    14    1
    11     1     8    1
    12     1    12    1
    13    12     5    1
    14     5     6    1
