@<TRIPOS>MOLECULE
2l65_HIB_A_1.pdb
 14 14 0 0 0
SMALL
GASTEIGER

@<TRIPOS>ATOM
      1  C1         9.1690   -5.2450   -4.0260 C.ar  626  HIB626      0.0294
      2  C2         8.2910   -4.3800   -3.3900 C.ar  626  HIB626      0.0455
      3  C3         8.7080   -3.6540   -2.2770 C.ar  626  HIB626      0.1729
      4  C4        10.0120   -3.7920   -1.8100 C.ar  626  HIB626      0.1752
      5  C5        10.8890   -4.6580   -2.4490 C.ar  626  HIB626      0.0756
      6  C6        10.4680   -5.3870   -3.5550 C.ar  626  HIB626     -0.0101
      7  C7        12.3210   -4.8170   -1.9330 C.2   626  HIB626      0.2370
      8  C8        11.4350   -6.3450   -4.2470 C.3   626  HIB626      0.0317
      9  C9         7.1520   -3.5480   -0.6190 C.3   626  HIB626      0.2526
     10  CX         9.8020   -1.7960   -0.6930 C.3   626  HIB626      0.2526
     11  O3         7.8360   -2.8250   -1.6450 O.3   626  HIB626     -0.4684
     12  O4        10.4390   -3.0750   -0.7340 O.3   626  HIB626     -0.4683
     13  O7        12.8100   -5.1110   -0.8450 O.2   626  HIB626     -0.2830
     14  I1         8.5370   -6.3290   -5.7020 I     626  HIB626     -0.0427
@<TRIPOS>BOND
     1    14     1    1
     2     8     6    1
     3     1     6   ar
     4     1     2   ar
     5     6     5   ar
     6     2     3   ar
     7     5     7    1
     8     5     4   ar
     9     3     4   ar
    10     3    11    1
    11     7    13    2
    12     4    12    1
    13    11     9    1
    14    12    10    1
