@<TRIPOS>MOLECULE
2l65_DSR_A_1.pdb
 11 11 0 0 0
SMALL
GASTEIGER

@<TRIPOS>ATOM
      1  C1        17.7580   -4.9100   -1.0080 C.3   625  DSR625      0.2713
      2  C2        17.3840   -5.5690   -2.3360 C.3   625  DSR625      0.0945
      3  C3        16.2550   -4.7660   -2.9840 C.3   625  DSR625      0.1287
      4  C4        15.0850   -4.6440   -2.0040 C.3   625  DSR625      0.1120
      5  C5        15.5760   -4.0670   -0.6750 C.3   625  DSR625      0.1310
      6  C6        14.4090   -4.0110    0.3130 C.3   625  DSR625      0.0332
      7  O1        18.8150   -5.6500   -0.3910 O.3   625  DSR625     -0.1898
      8  O3        16.7310   -3.4570   -3.3040 O.3   625  DSR625     -0.3833
      9  O5        16.6220   -4.8920   -0.1340 O.3   625  DSR625     -0.3300
     10  S4        13.7520   -3.6010   -2.7060 S.3   625  DSR625     -0.0780
     11  HO3       16.9610   -2.9700   -2.4600 H     625  DSR625      0.2104
@<TRIPOS>BOND
     1     8     3    1
     2     8    11    1
     3     3     2    1
     4     3     4    1
     5    10     4    1
     6     2     1    1
     7     4     5    1
     8     1     7    1
     9     1     9    1
    10     5     9    1
    11     5     6    1
