@<TRIPOS>MOLECULE
2l84_J28_A_1.pdb
 40 41 0 0 0
SMALL
GASTEIGER

@<TRIPOS>ATOM
      1  S         14.9420   -1.9690    9.4200 S.3   201  J28201      0.0090
      2  NA        14.3590    0.0020    4.7730 N.2   201  J28201     -0.1489
      3  NB        15.3710   -0.5990    4.4250 N.2   201  J28201     -0.1474
      4  CG        15.8020   -0.4840    3.1750 C.ar  201  J28201      0.1072
      5  CH        13.9100   -0.0980    6.0170 C.ar  201  J28201      0.0909
      6  OH        17.1500   -0.1360   -0.7210 O.3   201  J28201     -0.5064
      7  CK        12.9540   -0.2870    8.6110 C.ar  201  J28201     -0.0248
      8  NL        17.6050   -1.9000    3.6220 N.pl3 201  J28201     -0.3562
      9  CM        14.7810    1.3070   -0.0330 C.3   201  J28201     -0.0362
     10  CN        12.4130   -0.3770   10.0400 C.3   201  J28201     -0.0379
     11  CP        12.0370    1.4580    5.3830 C.3   201  J28201     -0.0376
     12  OT        14.0580   -2.9740    9.9220 O.3   201  J28201     -0.2676
     13  CZ        16.6990   -0.2480    0.5670 C.ar  201  J28201      0.1216
     14  OC1       16.1200   -2.6240    8.7600 O.3   201  J28201     -0.0675
     15  OC2       15.4190   -1.1090   10.5530 O.3   201  J28201     -0.0675
     16  CD1       16.9410   -1.1500    2.7570 C.ar  201  J28201      0.0555
     17  CD2       15.1170    0.3040    2.2600 C.ar  201  J28201     -0.0264
     18  CE1       17.3910   -1.0360    1.4600 C.ar  201  J28201      0.0029
     19  CE2       15.5580    0.4270    0.9610 C.ar  201  J28201     -0.0069
     20  CI1       14.5680   -0.8790    6.9530 C.ar  201  J28201     -0.0087
     21  CI2       12.7710    0.5850    6.4020 C.ar  201  J28201     -0.0230
     22  CJ1       14.0960   -0.9780    8.2500 C.ar  201  J28201      0.0977
     23  CJ2       12.2930    0.4930    7.6900 C.ar  201  J28201     -0.0520
     24  HOH       17.2070    0.7920   -0.9590 H     201  J28201      0.2921
     25  HOT       14.3760   -3.3380   10.7520 H     201  J28201      0.2429
     26  HD2       14.2290    0.8280    2.5780 H     201  J28201      0.0644
     27  HE1       18.2810   -1.5630    1.1480 H     201  J28201      0.0673
     28  HI1       15.4570   -1.4150    6.6550 H     201  J28201      0.0659
     29  HJ2       11.4030    1.0300    7.9730 H     201  J28201      0.0624
     30  HNL       17.2730   -1.9920    4.5610 H     201  J28201      0.1424
     31 HNLA       18.4230   -2.3960    3.3300 H     201  J28201      0.1424
     32  HM        14.1540    2.0140    0.5070 H     201  J28201      0.0279
     33  HMA       14.1600    0.6810   -0.6560 H     201  J28201      0.0279
     34  HMB       15.4790    1.8490   -0.6530 H     201  J28201      0.0279
     35  HN        11.6860    0.4100   10.1930 H     201  J28201      0.0278
     36  HNA       13.2250   -0.2600   10.7420 H     201  J28201      0.0278
     37  HNB       11.9420   -1.3380   10.1890 H     201  J28201      0.0278
     38  HP        12.6400    2.3190    5.1480 H     201  J28201      0.0278
     39  HPA       11.0950    1.7810    5.7990 H     201  J28201      0.0278
     40  HPB       11.8580    0.8880    4.4840 H     201  J28201      0.0278
@<TRIPOS>BOND
     1    24     6    1
     2     6    13    1
     3    33     9    1
     4    34     9    1
     5     9    32    1
     6     9    19    1
     7    13    19   ar
     8    13    18   ar
     9    19    17   ar
    10    27    18    1
    11    18    16   ar
    12    17    26    1
    13    17     4   ar
    14    16     4   ar
    15    16     8    1
    16     4     3    1
    17    31     8    1
    18     8    30    1
    19     3     2    2
    20    40    11    1
    21     2     5    1
    22    38    11    1
    23    11    39    1
    24    11    21    1
    25     5    21   ar
    26     5    20   ar
    27    21    23   ar
    28    28    20    1
    29    20    22   ar
    30    23    29    1
    31    23     7   ar
    32    22     7   ar
    33    22     1    1
    34     7    10    1
    35    14     1    1
    36     1    12    1
    37     1    15    1
    38    12    25    1
    39    10    37    1
    40    10    35    1
    41    10    36    1
