@<TRIPOS>MOLECULE
2l85_L85_A_1.pdb
 29 30 0 0 0
SMALL
GASTEIGER

@<TRIPOS>ATOM
      1  NA        15.7690    1.2480   -2.9900 N.2   201  L85201     -0.1493
      2  NB        15.0270    0.5550   -2.2940 N.2   201  L85201     -0.1493
      3  CG        15.3160    0.3630   -1.0150 C.ar  201  L85201      0.0864
      4  CH        15.4850    1.4410   -4.2700 C.ar  201  L85201      0.0863
      5  OH        16.2180   -0.2060    2.9730 O.3   201  L85201     -0.5068
      6  CK        14.8880    1.8370   -6.9460 C.ar  201  L85201      0.0929
      7  OT        15.7260    2.1740   -9.3850 O.3   201  L85201     -0.2676
      8  CZ        15.9210   -0.0190    1.6530 C.ar  201  L85201      0.1170
      9  OC1       13.7000    0.9220   -9.1390 O.3   201  L85201     -0.0675
     10  OC2       13.7340    3.3570   -8.7900 O.3   201  L85201     -0.0675
     11  CD1       14.4960   -0.4140   -0.2050 C.ar  201  L85201     -0.0311
     12  CD2       16.4450    0.9440   -0.4550 C.ar  201  L85201     -0.0311
     13  CE1       14.7940   -0.6020    1.1160 C.ar  201  L85201     -0.0181
     14  CE2       16.7500    0.7540    0.8730 C.ar  201  L85201     -0.0181
     15  CI1       14.3570    0.8690   -4.8340 C.ar  201  L85201     -0.0327
     16  CI2       16.3100    2.2170   -5.0710 C.ar  201  L85201     -0.0327
     17  CJ1       14.0560    1.0620   -6.1630 C.ar  201  L85201     -0.0344
     18  CJ2       16.0150    2.4170   -6.4050 C.ar  201  L85201     -0.0344
     19  SO4       14.5120    2.0830   -8.6350 S.3   201  L85201      0.0087
     20  HOH       16.1330   -1.1370    3.1880 H     201  L85201      0.2921
     21  HOT       16.4510    1.7350   -8.9340 H     201  L85201      0.2429
     22  HD1       13.6120   -0.8800   -0.6180 H     201  L85201      0.0640
     23  HD2       17.0880    1.5500   -1.0750 H     201  L85201      0.0640
     24  HE1       14.1400   -1.2200    1.7260 H     201  L85201      0.0655
     25  HE2       17.6330    1.2100    1.2960 H     201  L85201      0.0655
     26  HI1       13.7080    0.2630   -4.2170 H     201  L85201      0.0640
     27  HI2       17.1910    2.6690   -4.6400 H     201  L85201      0.0640
     28  HJ1       13.1740    0.6100   -6.5810 H     201  L85201      0.0637
     29  HJ2       16.6650    3.0240   -7.0170 H     201  L85201      0.0637
@<TRIPOS>BOND
     1     7    21    1
     2     7    19    1
     3     9    19    1
     4    10    19    1
     5    19     6    1
     6    29    18    1
     7     6    18   ar
     8     6    17   ar
     9    28    17    1
    10    18    16   ar
    11    17    15   ar
    12    16    27    1
    13    16     4   ar
    14    15     4   ar
    15    15    26    1
    16     4     1    1
    17     1     2    2
    18     2     3    1
    19    23    12    1
    20     3    12   ar
    21     3    11   ar
    22    22    11    1
    23    12    14   ar
    24    11    13   ar
    25    14    25    1
    26    14     8   ar
    27    13     8   ar
    28    13    24    1
    29     8     5    1
    30     5    20    1
