@<TRIPOS>MOLECULE
2l8m_CAM_A_1.pdb
 27 28 0 0 0
SMALL
GASTEIGER

@<TRIPOS>ATOM
      1  C1        46.8980   47.0560   49.4430 C.3   415  CAM415      0.0316
      2  C2        46.6940   47.9080   50.6780 C.2   415  CAM415      0.1400
      3  O         45.5650   48.2210   51.1450 O.2   415  CAM415     -0.2968
      4  C3        48.0570   48.3490   51.1440 C.3   415  CAM415      0.0097
      5  C4        48.9470   47.6550   50.0680 C.3   415  CAM415     -0.0283
      6  C5        48.9150   46.1480   50.3440 C.3   415  CAM415     -0.0484
      7  C6        47.5200   45.7350   49.9580 C.3   415  CAM415     -0.0401
      8  C7        48.1390   47.8000   48.7590 C.3   415  CAM415     -0.0196
      9  C8        47.7940   49.1880   48.2690 C.3   415  CAM415     -0.0587
     10  C9        48.7050   47.0840   47.5140 C.3   415  CAM415     -0.0587
     11  C10       45.5970   46.8120   48.6030 C.3   415  CAM415     -0.0523
     12  H31       48.2970   48.1440   52.1890 H     415  CAM415      0.0345
     13  H32       48.0190   49.4390   51.1980 H     415  CAM415      0.0345
     14  H4        50.0030   47.9310   50.0370 H     415  CAM415      0.0310
     15  H51       49.0850   45.8740   51.3880 H     415  CAM415      0.0268
     16  H52       49.4160   45.4980   49.6240 H     415  CAM415      0.0268
     17  H61       47.3880   44.9160   49.2470 H     415  CAM415      0.0275
     18  H62       47.0520   45.3310   50.8580 H     415  CAM415      0.0275
     19  H81       48.7300   49.7480   48.2330 H     415  CAM415      0.0235
     20  H82       47.3540   49.2280   47.2710 H     415  CAM415      0.0235
     21  H83       47.0910   49.7130   48.9190 H     415  CAM415      0.0235
     22  H91       49.6960   47.4950   47.3070 H     415  CAM415      0.0235
     23  H92       48.8400   46.0170   47.7070 H     415  CAM415      0.0235
     24  H93       48.0940   47.1100   46.6090 H     415  CAM415      0.0235
     25 H101       45.8430   46.2400   47.7060 H     415  CAM415      0.0239
     26 H102       45.1420   47.6940   48.1460 H     415  CAM415      0.0239
     27 H103       44.7880   46.3090   49.1370 H     415  CAM415      0.0239
@<TRIPOS>BOND
     1    24    10    1
     2    20     9    1
     3    22    10    1
     4    10    23    1
     5    10     8    1
     6    25    11    1
     7    26    11    1
     8    19     9    1
     9     9     8    1
    10     9    21    1
    11    11    27    1
    12    11     1    1
    13     8     1    1
    14     8     5    1
    15    17     7    1
    16     1     7    1
    17     1     2    1
    18    16     6    1
    19     7     6    1
    20     7    18    1
    21    14     5    1
    22     5     6    1
    23     5     4    1
    24     6    15    1
    25     2     4    1
    26     2     3    2
    27     4    13    1
    28     4    12    1
