@<TRIPOS>MOLECULE
2l98_STL_A_1.pdb
 29 30 0 0 0
SMALL
GASTEIGER

@<TRIPOS>ATOM
      1  C1        12.7300   11.8610   -1.7970 C.ar  162  STL162      0.1209
      2  C2        13.3170   10.7280   -2.3930 C.ar  162  STL162      0.0213
      3  C3        12.8400   10.2530   -3.6240 C.ar  162  STL162      0.1209
      4  C4        11.7720   10.9100   -4.2650 C.ar  162  STL162     -0.0128
      5  C5        11.1720   12.0350   -3.6750 C.ar  162  STL162     -0.0181
      6  C6        11.6570   12.5180   -2.4460 C.ar  162  STL162     -0.0128
      7  C7        10.0860   12.6830   -4.2500 C.2   162  STL162     -0.0538
      8  C8         8.9780   13.1850   -3.5440 C.2   162  STL162     -0.0540
      9  C9         7.8680   13.8500   -4.0490 C.ar  162  STL162     -0.0248
     10  C10        7.8860   14.5780   -5.2630 C.ar  162  STL162     -0.0511
     11  C11        6.7190   15.2540   -5.6950 C.ar  162  STL162     -0.0196
     12  C12        5.5600   15.1730   -4.8880 C.ar  162  STL162      0.1169
     13  C13        5.5330   14.4450   -3.6770 C.ar  162  STL162     -0.0196
     14  C14        6.6960   13.7790   -3.2560 C.ar  162  STL162     -0.0511
     15  O1         4.4330   15.8130   -5.2900 O.3   162  STL162     -0.5068
     16  O2        13.4000    9.1600   -4.2060 O.3   162  STL162     -0.5066
     17  O3        13.1880   12.3230   -0.6100 O.3   162  STL162     -0.5066
     18  H2        14.0700   10.2640   -1.9370 H     162  STL162      0.0691
     19  H4        11.4270   10.5810   -5.1460 H     162  STL162      0.0660
     20  H6        11.2390   13.3220   -2.0270 H     162  STL162      0.0660
     21  H7        10.0910   12.7840   -5.2440 H     162  STL162      0.0624
     22  H8         8.9920   13.0470   -2.5530 H     162  STL162      0.0624
     23  H10        8.7220   14.6160   -5.8110 H     162  STL162      0.0625
     24  H11        6.7150   15.7720   -6.5490 H     162  STL162      0.0654
     25  H13        4.7000   14.4040   -3.1270 H     162  STL162      0.0654
     26  H14        6.6970   13.2590   -2.4020 H     162  STL162      0.0625
     27  HO1        4.2170   16.5440   -4.6450 H     162  STL162      0.2921
     28  HO2       14.2920    8.9800   -3.7870 H     162  STL162      0.2921
     29  HO3       13.4940   13.2710   -0.7280 H     162  STL162      0.2921
@<TRIPOS>BOND
     1    24    11    1
     2    23    10    1
     3    11    10   ar
     4    11    12   ar
     5    15    12    1
     6    15    27    1
     7    10     9   ar
     8    21     7    1
     9    19     4    1
    10    12    13   ar
    11     4     5   ar
    12     4     3   ar
    13     7     5    1
    14     7     8    2
    15    16    28    1
    16    16     3    1
    17     9     8    1
    18     9    14   ar
    19    13    14   ar
    20    13    25    1
    21     5     6   ar
    22     3     2   ar
    23     8    22    1
    24    14    26    1
    25     6    20    1
    26     6     1   ar
    27     2    18    1
    28     2     1   ar
    29     1    17    1
    30    29    17    1
