@<TRIPOS>MOLECULE
2lbd_REA_A_1.pdb
 22 22 0 0 0
SMALL
GASTEIGER

@<TRIPOS>ATOM
      1  C1        43.4480   13.5960   80.8680 C.3   500  REA500      0.0183
      2  C2        44.8810   13.7290   80.3060 C.3   500  REA500      0.0044
      3  C3        45.3390   15.1390   80.0840 C.3   500  REA500      0.0047
      4  C4        45.2850   16.0050   81.3140 C.3   500  REA500      0.0217
      5  C5        44.1500   15.6240   82.2890 C.2   500  REA500     -0.0479
      6  C6        43.3240   14.5220   82.1100 C.2   500  REA500     -0.0307
      7  C7        42.2690   14.1000   83.0490 C.2   500  REA500     -0.0052
      8  C8        41.3630   14.8890   83.6470 C.2   500  REA500     -0.0046
      9  C9        40.3520   14.5420   84.6120 C.2   500  REA500     -0.0219
     10  C10       39.5830   15.5580   85.0310 C.2   500  REA500     -0.0043
     11  C11       38.5310   15.4760   85.9980 C.2   500  REA500     -0.0006
     12  C12       37.8300   16.5880   86.1850 C.2   500  REA500     -0.0041
     13  C13       36.7510   16.7220   87.1170 C.2   500  REA500     -0.0153
     14  C14       36.1150   17.9010   87.1220 C.2   500  REA500      0.0819
     15  C15       34.9830   18.3360   87.8940 C.2   500  REA500      0.3876
     16  C16       43.1960   12.1360   81.2870 C.3   500  REA500      0.0043
     17  C17       42.4490   14.0240   79.7660 C.3   500  REA500      0.0043
     18  C18       44.1180   16.6370   83.4360 C.3   500  REA500      0.0260
     19  C19       40.1800   13.1080   85.1060 C.3   500  REA500      0.0310
     20  C20       36.3710   15.5360   88.0270 C.3   500  REA500      0.0312
     21  O1        34.5200   19.4360   87.6610 O.co2 500  REA500     -0.2406
     22  O2        34.4800   17.6140   88.7450 O.co2 500  REA500     -0.2406
@<TRIPOS>BOND
     1    17     1    1
     2     3     2    1
     3     3     4    1
     4     2     1    1
     5     1    16    1
     6     1     6    1
     7     4     5    1
     8     6     5    2
     9     6     7    1
    10     5    18    1
    11     7     8    2
    12     8     9    1
    13     9    10    2
    14     9    19    1
    15    10    11    1
    16    11    12    2
    17    12    13    1
    18    13    14    2
    19    13    20    1
    20    14    15    1
    21    21    15   ar
    22    15    22   ar
