@<TRIPOS>MOLECULE
2lcf_GNP_A_1.pdb
 45 47 0 0 0
SMALL
GASTEIGER

@<TRIPOS>ATOM
      1  PG        -2.8670    4.3290    2.0240 P.3   219  GNP219      0.4710
      2  O1G       -4.3240    4.9200    2.3680 O.3   219  GNP219     -0.1250
      3  O2G       -3.0240    2.7270    2.0510 O.2   219  GNP219     -0.2347
      4  O3G       -1.8170    4.8190    2.9460 O.3   219  GNP219     -0.1250
      5  N3B       -2.5790    4.7230    0.4780 N.3   219  GNP219     -0.1200
      6  PB        -1.0070    4.5010    0.1530 P.3   219  GNP219      0.4495
      7  O1B       -0.2350    5.2800    1.1470 O.3   219  GNP219     -0.1263
      8  O2B       -0.7500    3.0470    0.0440 O.2   219  GNP219     -0.2367
      9  O3A       -0.8380    5.1780   -1.2980 O.3   219  GNP219     -0.2370
     10  PA        -0.5270    6.7520   -1.4250 P.3   219  GNP219      0.2213
     11  O1A       -1.4140    7.4850   -0.4960 O.3   219  GNP219     -0.4371
     12  O2A       -0.5780    7.0900   -2.8660 O.2   219  GNP219     -0.5170
     13  O5'        0.9910    6.8490   -0.9000 O.3   219  GNP219     -0.3245
     14  C5'        2.0800    7.0130   -1.8140 C.3   219  GNP219      0.0836
     15  C4'        2.2370    8.4760   -2.2390 C.3   219  GNP219      0.1131
     16  O4'        3.2990    8.5650   -3.2060 O.3   219  GNP219     -0.3474
     17  C3'        0.9830    8.9310   -2.9880 C.3   219  GNP219      0.1133
     18  O3'        0.9760   10.3540   -3.1360 O.3   219  GNP219     -0.3864
     19  C2'        1.2500    8.2520   -4.3280 C.3   219  GNP219      0.1266
     20  O2'        0.4260    8.8340   -5.3410 O.3   219  GNP219     -0.3849
     21  C1'        2.6960    8.7110   -4.5050 C.3   219  GNP219      0.1617
     22  N9         3.3980    7.9000   -5.5260 N.pl3 219  GNP219     -0.2241
     23  C8         3.0820    6.6620   -5.8960 C.2   219  GNP219      0.1451
     24  N7         3.9330    6.2480   -6.8310 N.2   219  GNP219     -0.3865
     25  C5         4.8010    7.2290   -7.0620 C.2   219  GNP219      0.2296
     26  C6         5.8860    7.3520   -7.9190 C.2   219  GNP219      0.2859
     27  O6         6.2070    6.4280   -8.6650 O.2   219  GNP219     -0.2668
     28  N1         6.6100    8.5510   -7.9160 N.am  219  GNP219     -0.2418
     29  C2         6.2210    9.5840   -7.0540 C.2   219  GNP219      0.2395
     30  N2         6.9010   10.7270   -7.0430 N.pl3 219  GNP219     -0.3206
     31  N3         5.1670    9.4270   -6.2410 N.2   219  GNP219     -0.3551
     32  C4         4.4590    8.2870   -6.2290 C.2   219  GNP219      0.2272
     33 HNB3       -2.7850    5.6950    0.3630 H     219  GNP219      0.1458
     34 H5'2        1.9380    6.4640   -2.6370 H     219  GNP219      0.0591
     35 H5'1        2.9400    6.7190   -1.3970 H     219  GNP219      0.0591
     36  H4'        2.3410    9.0550   -1.4300 H     219  GNP219      0.0647
     37  H3'        0.1380    8.6440   -2.5390 H     219  GNP219      0.0647
     38 HO3'        1.7780   10.6390   -3.6630 H     219  GNP219      0.2100
     39  H2'        1.1570    7.2610   -4.2230 H     219  GNP219      0.0663
     40 HO2'        0.6410    9.8070   -5.4280 H     219  GNP219      0.2101
     41  H1'        2.7040    9.6710   -4.7850 H     219  GNP219      0.0841
     42  H8         2.5140    6.0760   -5.3170 H     219  GNP219      0.1149
     43  HN1        7.3970    8.6680   -8.5220 H     219  GNP219      0.1589
     44 HN21        7.6870   10.8470   -7.6490 H     219  GNP219      0.1459
     45 HN22        6.6250   11.4670   -6.4290 H     219  GNP219      0.1459
@<TRIPOS>BOND
     1    27    26    2
     2    43    28    1
     3    26    28   am
     4    26    25    1
     5    28    29    1
     6    44    30    1
     7    25    24    2
     8    25    32    1
     9    29    30    1
    10    29    31    2
    11    30    45    1
    12    24    23    2
    13    31    32    2
    14    32    22    1
    15    23    22    1
    16    23    42    1
    17    22    21    1
    18    40    20    1
    19    20    19    1
    20    41    21    1
    21    21    19    1
    22    21    16    1
    23    19    39    1
    24    19    17    1
    25    38    18    1
    26    16    15    1
    27    18    17    1
    28    17    37    1
    29    17    15    1
    30    12    10    2
    31    34    14    1
    32    15    14    1
    33    15    36    1
    34    14    35    1
    35    14    13    1
    36    10     9    1
    37    10    13    1
    38    10    11    1
    39     9     6    1
    40     8     6    2
    41     6     5    1
    42     6     7    1
    43    33     5    1
    44     5     1    1
    45     1     3    2
    46     1     2    1
    47     1     4    1
