@<TRIPOS>MOLECULE
2ldb_NAD_A_1.pdb
 44 48 0 0 0
SMALL
GASTEIGER

@<TRIPOS>ATOM
      1  PA         5.0340   28.3140    7.7980 P.3     1  NAD1        0.2189
      2  O1A        5.3590   29.7540    7.4250 O.3     1  NAD1       -0.4371
      3  O2A        3.9700   27.8160    6.8950 O.2     1  NAD1       -0.5170
      4  O5B        4.5650   28.3780    9.3500 O.3     1  NAD1       -0.3112
      5  C5B        4.1590   27.1270    9.9740 C.3     1  NAD1        0.1813
      6  C4B        3.1300   27.3440   10.9920 C.3     1  NAD1        0.1821
      7  O4B        3.7130   27.4970   12.3290 O.3     1  NAD1       -0.3135
      8  C3B        2.0560   28.4260   10.8650 C.3     1  NAD1        0.2184
      9  O3B        0.7890   27.8230   10.4940 O.3     1  NAD1       -0.2174
     10  C2B        1.9950   29.0240   12.2660 C.3     1  NAD1        0.2570
     11  O2B        0.7400   29.4970   12.7400 O.3     1  NAD1       -0.2130
     12  C1B        2.5460   27.8270   13.1320 C.3     1  NAD1        0.3186
     13  N9A        3.1380   28.3300   14.3730 N.pl3   1  NAD1       -0.1439
     14  C8A        4.0870   29.3020   14.4660 C.3     1  NAD1        0.3377
     15  N7A        4.3500   29.6170   15.7420 N.2     1  NAD1       -0.2095
     16  C5A        3.5470   28.7890   16.4880 C.2     1  NAD1        0.2526
     17  C6A        3.4670   28.5700   17.8750 C.2     1  NAD1        0.4393
     18  N6A        4.1620   29.2940   18.7500 N.pl3   1  NAD1        0.2180
     19  N1A        2.6240   27.5900   18.3000 N.2     1  NAD1        0.0021
     20  C2A        1.8640   26.9020   17.3540 C.3     1  NAD1        0.5254
     21  N3A        1.8820   27.0360   16.0580 N.2     1  NAD1       -0.0055
     22  C4A        2.7830   27.9770   15.6640 C.2     1  NAD1        0.3518
     23  O3         6.3260   27.4170    7.8840 O.3     1  NAD1       -0.2703
     24  PN         6.8630   26.1920    7.0710 P.3     1  NAD1        0.2189
     25  O1N        7.4490   26.5960    5.7350 O.2     1  NAD1       -0.5170
     26  O2N        5.7350   25.2480    6.8300 O.3     1  NAD1       -0.4371
     27  O5D        8.0230   25.5940    8.0280 O.3     1  NAD1       -0.3112
     28  C5D        8.2690   26.0410    9.3950 C.3     1  NAD1        0.1813
     29  C4D        9.6810   25.5490    9.7000 C.3     1  NAD1        0.1799
     30  O4D        9.8020   24.3710    8.7450 O.3     1  NAD1       -0.3327
     31  C3D       10.7840   26.5410    9.2610 C.3     1  NAD1        0.2158
     32  O3D       11.8040   26.6770   10.2580 O.3     1  NAD1       -0.2175
     33  C2D       11.3730   25.8980    8.0110 C.3     1  NAD1        0.2309
     34  O2D       12.7230   26.1380    7.6730 O.3     1  NAD1       -0.2158
     35  C1D       11.1810   24.4170    8.3900 C.3     1  NAD1        0.2263
     36  N1N       11.6310   23.5400    7.3280 N.pl3   1  NAD1       -0.2787
     37  C2N       12.6460   22.6810    7.6300 C.3     1  NAD1        0.1244
     38  C3N       13.1470   21.8570    6.6790 C.2     1  NAD1        0.0544
     39  C7N       14.2390   20.7710    6.8870 C.2     1  NAD1        0.2818
     40  O7N       14.6470   20.1610    5.8790 O.2     1  NAD1       -0.2670
     41  N7N       14.6040   20.4580    8.1280 N.am    1  NAD1       -0.0839
     42  C4N       12.6110   21.8060    5.3750 C.2     1  NAD1        0.0033
     43  C5N       11.6510   22.7720    5.1430 C.2     1  NAD1        0.0157
     44  C6N       11.1670   23.7120    6.0030 C.2     1  NAD1        0.0633
@<TRIPOS>BOND
     1    43    42    1
     2    43    44    2
     3    42    38    2
     4    25    24    2
     5    40    39    2
     6    44    36    1
     7    38    39    1
     8    38    37    1
     9    26    24    1
    10    39    41   am
    11     3     1    2
    12    24    23    1
    13    24    27    1
    14    36    37    1
    15    36    35    1
    16     2     1    1
    17    34    33    1
    18     1    23    1
    19     1     4    1
    20    33    35    1
    21    33    31    1
    22    27    28    1
    23    35    30    1
    24    30    29    1
    25    31    29    1
    26    31    32    1
    27     4     5    1
    28    28    29    1
    29     5     6    1
    30     9     8    1
    31     8     6    1
    32     8    10    1
    33     6     7    1
    34    10    11    1
    35    10    12    1
    36     7    12    1
    37    12    13    1
    38    13    14    1
    39    13    22    1
    40    14    15    1
    41    22    21    2
    42    22    16    1
    43    15    16    2
    44    21    20    1
    45    16    17    1
    46    20    19    1
    47    17    19    2
    48    17    18    1
