@<TRIPOS>MOLECULE
2ldb_FBP_C_1.pdb
 20 20 0 0 0
SMALL
GASTEIGER

@<TRIPOS>ATOM
      1  P1       -20.7130    3.1680   -2.4050 P.3     6  FBP6        0.5328
      2  O1P      -21.6130    2.0290   -2.7130 O.3     6  FBP6       -0.1145
      3  O2P      -21.3070    4.4420   -1.9550 O.3     6  FBP6       -0.1145
      4  O3P      -19.8360    3.4930   -3.6660 O.2     6  FBP6       -0.2224
      5  O1       -19.6840    2.6050   -1.3290 O.3     6  FBP6       -0.2648
      6  C1       -18.4010    1.9960   -1.6970 C.3     6  FBP6        0.2152
      7  C2       -17.8460    1.4290   -0.3930 C.3     6  FBP6        0.2780
      8  O2       -18.1380    2.3000    0.6590 O.3     6  FBP6       -0.1897
      9  C3       -16.3320    1.1500   -0.4080 C.3     6  FBP6        0.2408
     10  O3       -15.6220    2.3420   -0.1330 O.3     6  FBP6       -0.2149
     11  C4       -16.1930    0.0410    0.6510 C.3     6  FBP6        0.2167
     12  O4       -15.0460   -0.8030    0.5270 O.3     6  FBP6       -0.2175
     13  C5       -17.4890   -0.7640    0.4510 C.3     6  FBP6        0.1808
     14  O5       -18.4320    0.1390   -0.1730 O.3     6  FBP6       -0.3255
     15  C6       -18.0610   -1.2600    1.7470 C.3     6  FBP6        0.1859
     16  O6       -19.1940   -2.2200    1.5510 O.3     6  FBP6       -0.2675
     17  P2       -20.3570   -2.7110    2.5690 P.3     6  FBP6        0.5327
     18  O4P      -21.0060   -1.4670    3.1580 O.3     6  FBP6       -0.1145
     19  O5P      -19.7240   -3.5940    3.6160 O.3     6  FBP6       -0.1145
     20  O6P      -21.2620   -3.5060    1.6400 O.2     6  FBP6       -0.2224
@<TRIPOS>BOND
     1     4     1    2
     2     2     1    1
     3     1     3    1
     4     1     5    1
     5     6     5    1
     6     6     7    1
     7     9     7    1
     8     9    10    1
     9     9    11    1
    10     7    14    1
    11     7     8    1
    12    14    13    1
    13    13    11    1
    14    13    15    1
    15    12    11    1
    16    16    15    1
    17    16    17    1
    18    20    17    2
    19    17    18    1
    20    17    19    1
