@<TRIPOS>MOLECULE
2ldo_HEM_A_1.pdb
 43 50 0 0 0
SMALL
GASTEIGER

@<TRIPOS>ATOM
      1  CHA        8.4210    5.1320    0.4480 C.2   130  HEM130      0.0000
      2  CHB       10.8830    5.1810    4.6510 C.2   130  HEM130      0.0000
      3  CHC        7.9190    1.7540    6.4380 C.2   130  HEM130      0.0000
      4  CHD        5.7780    1.3590    2.0300 C.2   130  HEM130      0.0000
      5  C1A        9.3390    5.4420    1.4470 C.2   130  HEM130      0.0000
      6  C2A       10.3760    6.4380    1.3160 C.2   130  HEM130      0.0000
      7  C3A       11.0600    6.4540    2.4790 C.2   130  HEM130      0.0000
      8  C4A       10.4540    5.4680    3.3420 C.2   130  HEM130      0.0000
      9  CMA       12.2330    7.3140    2.8490 C.3   130  HEM130      0.0000
     10  CAA       10.6120    7.2760    0.0930 C.3   130  HEM130      0.0000
     11  CBA        9.7530    8.5360    0.0290 C.3   130  HEM130      0.0000
     12  CGA       10.5870    9.7810    0.2970 C.2   130  HEM130      0.0000
     13  O1A       10.6240   10.1960    1.4760 O.co2 130  HEM130      0.0000
     14  O2A       11.1710   10.2950   -0.6820 O.co2 130  HEM130      0.0000
     15  C1B       10.2590    4.2790    5.5060 C.ar  130  HEM130      0.0000
     16  C2B       10.6200    4.0910    6.8910 C.ar  130  HEM130      0.0000
     17  C3B        9.8000    3.1420    7.3890 C.ar  130  HEM130      0.0000
     18  C4B        8.9230    2.7320    6.3170 C.ar  130  HEM130      0.0000
     19  CMB       11.7110    4.8360    7.6030 C.3   130  HEM130      0.0000
     20  CAB        9.7690    2.5860    8.7840 C.3   130  HEM130      0.0000
     21  CBB        9.9100    3.6430    9.8760 C.3   130  HEM130      0.0000
     22  C1C        7.1670    1.2190    5.3110 C.2   130  HEM130      0.0000
     23  C2C        6.3800    0.0080    5.3110 C.2   130  HEM130      0.0000
     24  C3C        5.7810   -0.0760    4.1050 C.2   130  HEM130      0.0000
     25  C4C        6.1910    1.0810    3.3450 C.2   130  HEM130      0.0000
     26  CMC        6.2780   -0.9490    6.4630 C.3   130  HEM130      0.0000
     27  CAC        4.8580   -1.1490    3.6040 C.3   130  HEM130      0.0000
     28  CBC        3.5680   -1.2830    4.4080 C.3   130  HEM130      0.0000
     29  C1D        6.3040    2.3720    1.2350 C.ar  130  HEM130      0.0000
     30  C2D        5.8820    2.6450   -0.1190 C.ar  130  HEM130      0.0000
     31  C3D        6.6130    3.6900   -0.5600 C.ar  130  HEM130      0.0000
     32  C4D        7.4950    4.0750    0.5160 C.ar  130  HEM130      0.0000
     33  CMD        4.8220    1.8800   -0.8580 C.3   130  HEM130      0.0000
     34  CAD        6.5540    4.3570   -1.9030 C.3   130  HEM130      0.0000
     35  CBD        7.1150    3.5110   -3.0420 C.3   130  HEM130      0.0000
     36  CGD        6.0190    2.6920   -3.7090 C.2   130  HEM130      0.0000
     37  O1D        6.3210    1.5390   -4.0840 O.co2 130  HEM130      0.0000
     38  O2D        4.9000    3.2350   -3.8300 O.co2 130  HEM130      0.0000
     39  NA         9.3960    4.8510    2.6970 N.2   130  HEM130      0.0000
     40  NB         9.2140    3.4380    5.1630 N.ar  130  HEM130      0.0000
     41  NC         7.0430    1.8720    4.0970 N.2   130  HEM130      0.0000
     42  ND         7.2970    3.2580    1.6150 N.ar  130  HEM130      0.0000
     43 FE          8.1940    3.3260    3.5180 Fe    130  HEM130      0.0000
@<TRIPOS>BOND
     1    37    36   ar
     2    38    36   ar
     3    36    35    1
     4    35    34    1
     5    34    31    1
     6    33    30    1
     7    14    12   ar
     8    31    30   ar
     9    31    32   ar
    10    30    29   ar
    11    11    10    1
    12    11    12    1
    13    10     6    1
    14    12    13   ar
    15     1    32    2
    16     1     5    1
    17    32    42   ar
    18    29    42   ar
    19    29     4    2
    20     6     5    1
    21     6     7    2
    22     5    39    2
    23    42    43    1
    24     4    25    1
    25     7     9    1
    26     7     8    1
    27    39     8    1
    28    39    43    1
    29     8     2    2
    30    25    41    2
    31    25    24    1
    32    43    41    1
    33    43    40    1
    34    27    24    1
    35    27    28    1
    36    41    22    1
    37    24    23    2
    38     2    15    1
    39    40    15   ar
    40    40    18   ar
    41    23    22    1
    42    23    26    1
    43    22     3    2
    44    15    16   ar
    45    18     3    1
    46    18    17   ar
    47    16    17   ar
    48    16    19    1
    49    17    20    1
    50    20    21    1
