@<TRIPOS>MOLECULE
2leg_UQ1_B_1.pdb
 18 18 0 0 0
SMALL
GASTEIGER

@<TRIPOS>ATOM
      1  C1         2.8890   33.3640   18.8100 C.2   501  UQ1501      0.2285
      2  O1         2.8490   32.1400   19.0370 O.2   501  UQ1501     -0.2835
      3  C2         4.1620   33.9300   18.3030 C.2   501  UQ1501      0.2140
      4  O2         5.2090   33.0690   18.0990 O.2   501  UQ1501     -0.4652
      5  CM2        5.8020   32.3490   19.1800 C.3   501  UQ1501      0.2528
      6  C3         4.2700   35.3960   18.0170 C.2   501  UQ1501      0.2140
      7  O3         5.4320   35.9740   17.5500 O.2   501  UQ1501     -0.4652
      8  CM3        5.9190   35.7120   16.2340 C.3   501  UQ1501      0.2528
      9  C4         3.0910   36.2740   18.2580 C.2   501  UQ1501      0.2282
     10  O4         3.1990   37.5010   18.0220 O.2   501  UQ1501     -0.2836
     11  C5         1.8110   35.6960   18.7780 C.2   501  UQ1501      0.0198
     12  CM5        0.6100   36.5800   19.0220 C.3   501  UQ1501      0.0343
     13  C6         1.7020   34.2320   19.0530 C.2   501  UQ1501      0.0235
     14  C7         0.3880   33.6600   19.5750 C.3   501  UQ1501      0.0548
     15  C8        -0.0790   32.4670   18.7640 C.2   501  UQ1501     -0.0298
     16  C9        -1.3700   32.1390   18.5800 C.2   501  UQ1501     -0.0475
     17  C10       -1.6940   30.9290   17.7530 C.3   501  UQ1501      0.0260
     18  C11       -2.4870   32.9530   19.1720 C.3   501  UQ1501      0.0260
@<TRIPOS>BOND
     1     8     7    1
     2     7     6    1
     3    17    16    1
     4     6     9    1
     5     6     3    2
     6    10     9    2
     7     4     3    1
     8     4     5    1
     9     9    11    1
    10     3     1    1
    11    16    15    2
    12    16    18    1
    13    15    14    1
    14    11    12    1
    15    11    13    2
    16     1     2    2
    17     1    13    1
    18    13    14    1
