@<TRIPOS>MOLECULE
2lgs_GLU_A_1.pdb
 10 9 0 0 0
SMALL
GASTEIGER

@<TRIPOS>ATOM
      1  N        -85.5340   13.5580  -70.5530 N.3   471  GLU471     -0.1208
      2  CA       -86.9050   13.9850  -70.3110 C.3   471  GLU471      0.1949
      3  C        -87.7930   12.8890  -69.6960 C.2   471  GLU471      0.3819
      4  O        -87.4570   12.4770  -68.5630 O.co2 471  GLU471     -0.2441
      5  CB       -87.4810   14.4260  -71.6330 C.3   471  GLU471      0.0424
      6  CG       -86.7310   15.6630  -72.1260 C.3   471  GLU471      0.1161
      7  CD       -87.3960   16.4910  -73.2150 C.2   471  GLU471      0.3649
      8  OE1      -88.5870   16.8230  -73.1080 O.co2 471  GLU471     -0.2457
      9  OE2      -86.6740   16.8310  -74.1490 O.co2 471  GLU471     -0.2457
     10  OXT      -88.7980   12.4900  -70.2940 O.co2 471  GLU471     -0.2441
@<TRIPOS>BOND
     1     9     7   ar
     2     7     8   ar
     3     7     6    1
     4     6     5    1
     5     5     2    1
     6     1     2    1
     7     2     3    1
     8    10     3   ar
     9     3     4   ar
