@<TRIPOS>MOLECULE
2lh1_HEM_A_1.pdb
 43 50 0 0 0
SMALL
GASTEIGER

@<TRIPOS>ATOM
      1 FE         18.7300   28.6100   29.7670 Fe    155  HEM155      0.0000
      2  CHA       16.8770   26.1540   27.7710 C.2   155  HEM155      0.0000
      3  CHB       20.4700   29.9240   26.9170 C.2   155  HEM155      0.0000
      4  CHC       20.2790   31.3210   31.5430 C.2   155  HEM155      0.0000
      5  CHD       17.2120   27.1720   32.5090 C.2   155  HEM155      0.0000
      6  NA        18.6900   28.1220   27.7260 N.ar  155  HEM155      0.0000
      7  C1A       17.8290   27.0880   27.1180 C.ar  155  HEM155      0.0000
      8  C2A       18.1300   27.0900   25.6880 C.ar  155  HEM155      0.0000
      9  C3A       19.1610   28.1150   25.4590 C.ar  155  HEM155      0.0000
     10  C4A       19.4990   28.7850   26.7380 C.ar  155  HEM155      0.0000
     11  CMA       19.8740   28.5400   24.1260 C.3   155  HEM155      0.0000
     12  CAA       17.4410   26.0480   24.6710 C.3   155  HEM155      0.0000
     13  CBA       18.4550   25.1190   24.2240 C.3   155  HEM155      0.0000
     14  CGA       17.7690   23.9930   23.3150 C.2   155  HEM155      0.0000
     15  O1A       16.8350   24.2150   22.5470 O.co2 155  HEM155      0.0000
     16  O2A       18.3460   22.9830   23.0990 O.co2 155  HEM155      0.0000
     17  NB        20.1280   30.3210   29.3010 N.2   155  HEM155      0.0000
     18  C1B       20.7480   30.6450   28.0920 C.2   155  HEM155      0.0000
     19  C2B       21.7310   31.8720   28.2350 C.2   155  HEM155      0.0000
     20  C3B       21.6480   32.3040   29.5180 C.2   155  HEM155      0.0000
     21  C4B       20.6370   31.3120   30.1960 C.2   155  HEM155      0.0000
     22  CMB       22.6660   32.4880   27.0910 C.3   155  HEM155      0.0000
     23  CAB       22.4780   33.5480   30.2100 C.3   155  HEM155      0.0000
     24  CBB       22.9450   34.6800   29.5430 C.3   155  HEM155      0.0000
     25  NC        18.7550   29.1400   31.6690 N.ar  155  HEM155      0.0000
     26  C1C       19.4300   30.3160   32.2290 C.ar  155  HEM155      0.0000
     27  C2C       19.1530   30.2970   33.6640 C.ar  155  HEM155      0.0000
     28  C3C       18.3680   29.0990   33.9410 C.ar  155  HEM155      0.0000
     29  C4C       18.0700   28.3900   32.6780 C.ar  155  HEM155      0.0000
     30  CMC       19.7070   31.4280   34.6530 C.3   155  HEM155      0.0000
     31  CAC       17.8470   28.5530   35.3180 C.2   155  HEM155      0.0000
     32  CBC       18.4840   27.6740   35.9630 C.2   155  HEM155      0.0000
     33  ND        17.2840   26.9780   30.0680 N.2   155  HEM155      0.0000
     34  C1D       16.8230   26.5330   31.3110 C.2   155  HEM155      0.0000
     35  C2D       15.8550   25.2880   31.1620 C.2   155  HEM155      0.0000
     36  C3D       15.7540   25.0060   29.8390 C.2   155  HEM155      0.0000
     37  C4D       16.6470   26.0800   29.1410 C.2   155  HEM155      0.0000
     38  CMD       15.1330   24.4600   32.3250 C.3   155  HEM155      0.0000
     39  CAD       14.9200   23.7610   29.1800 C.3   155  HEM155      0.0000
     40  CBD       15.7570   22.5960   29.1330 C.3   155  HEM155      0.0000
     41  CGD       14.8170   21.2790   28.8430 C.2   155  HEM155      0.0000
     42  O1D       14.0860   20.7280   29.7750 O.co2 155  HEM155      0.0000
     43  O2D       15.0880   20.5630   27.8780 O.co2 155  HEM155      0.0000
@<TRIPOS>BOND
     1    15    14   ar
     2    16    14   ar
     3    14    13    1
     4    11     9    1
     5    13    12    1
     6    12     8    1
     7     9     8   ar
     8     9    10   ar
     9     8     7   ar
    10    10     3    2
    11    10     6   ar
    12     3    18    1
    13    22    19    1
    14     7     6   ar
    15     7     2    2
    16     6     1    1
    17     2    37    1
    18    43    41   ar
    19    18    19    1
    20    18    17    2
    21    19    20    2
    22    41    40    1
    23    41    42   ar
    24    40    39    1
    25    37    36    1
    26    37    33    2
    27    39    36    1
    28    17     1    1
    29    17    21    1
    30    20    21    1
    31    20    23    1
    32    24    23    1
    33     1    33    1
    34     1    25    1
    35    36    35    2
    36    33    34    1
    37    21     4    2
    38    35    34    1
    39    35    38    1
    40    34     5    2
    41     4    26    1
    42    25    26   ar
    43    25    29   ar
    44    26    27   ar
    45     5    29    1
    46    29    28   ar
    47    27    28   ar
    48    27    30    1
    49    28    31    1
    50    31    32    2
