@<TRIPOS>MOLECULE
2lh2_HEM_A_1.pdb
 43 50 0 0 0
SMALL
GASTEIGER

@<TRIPOS>ATOM
      1 FE         18.6270   28.4950   29.6890 Fe    154  HEM154      0.0000
      2  CHA       16.8400   26.0840   27.6730 C.2   154  HEM154      0.0000
      3  CHB       20.4830   29.8190   26.8490 C.2   154  HEM154      0.0000
      4  CHC       20.3250   31.1450   31.4970 C.2   154  HEM154      0.0000
      5  CHD       17.1720   27.0400   32.4270 C.2   154  HEM154      0.0000
      6  NA        18.6590   28.0470   27.6290 N.ar  154  HEM154      0.0000
      7  C1A       17.8020   27.0160   27.0210 C.ar  154  HEM154      0.0000
      8  C2A       18.1220   27.0190   25.5940 C.ar  154  HEM154      0.0000
      9  C3A       19.1640   28.0320   25.3770 C.ar  154  HEM154      0.0000
     10  C4A       19.4940   28.6990   26.6550 C.ar  154  HEM154      0.0000
     11  CMA       19.9010   28.4360   24.0520 C.3   154  HEM154      0.0000
     12  CAA       17.4530   25.9830   24.5670 C.3   154  HEM154      0.0000
     13  CBA       18.3470   24.8700   24.4020 C.3   154  HEM154      0.0000
     14  CGA       17.7320   23.8430   23.3600 C.2   154  HEM154      0.0000
     15  O1A       16.8300   24.1320   22.5860 O.co2 154  HEM154      0.0000
     16  O2A       18.3280   22.8620   23.0790 O.co2 154  HEM154      0.0000
     17  NB        20.1390   30.1960   29.2360 N.2   154  HEM154      0.0000
     18  C1B       20.7650   30.5260   28.0330 C.2   154  HEM154      0.0000
     19  C2B       21.7620   31.7400   28.1900 C.2   154  HEM154      0.0000
     20  C3B       21.6770   32.1620   29.4770 C.2   154  HEM154      0.0000
     21  C4B       20.6680   31.1610   30.1470 C.2   154  HEM154      0.0000
     22  CMB       22.6980   32.3690   27.0560 C.3   154  HEM154      0.0000
     23  CAB       22.5040   33.4040   30.1680 C.3   154  HEM154      0.0000
     24  CBB       22.8430   34.5770   29.5250 C.3   154  HEM154      0.0000
     25  NC        18.7580   28.9950   31.6050 N.ar  154  HEM154      0.0000
     26  C1C       19.4610   30.1460   32.1750 C.ar  154  HEM154      0.0000
     27  C2C       19.1810   30.1160   33.6100 C.ar  154  HEM154      0.0000
     28  C3C       18.3570   28.9360   33.8780 C.ar  154  HEM154      0.0000
     29  C4C       18.0530   28.2450   32.6050 C.ar  154  HEM154      0.0000
     30  CMC       19.7650   31.2200   34.6120 C.3   154  HEM154      0.0000
     31  CAC       17.8060   28.3960   35.2440 C.2   154  HEM154      0.0000
     32  CBC       18.4910   27.6140   35.9650 C.2   154  HEM154      0.0000
     33  ND        17.2630   26.8480   29.9900 N.2   154  HEM154      0.0000
     34  C1D       16.7810   26.4080   31.2250 C.2   154  HEM154      0.0000
     35  C2D       15.7760   25.1920   31.0540 C.2   154  HEM154      0.0000
     36  C3D       15.6730   24.9290   29.7260 C.2   154  HEM154      0.0000
     37  C4D       16.6040   25.9850   29.0440 C.2   154  HEM154      0.0000
     38  CMD       15.0010   24.3850   32.1990 C.3   154  HEM154      0.0000
     39  CAD       14.7920   23.7190   29.0490 C.3   154  HEM154      0.0000
     40  CBD       15.6320   22.5710   28.8340 C.3   154  HEM154      0.0000
     41  CGD       14.7020   21.2290   28.6110 C.2   154  HEM154      0.0000
     42  O1D       13.9480   20.7480   29.5560 O.co2 154  HEM154      0.0000
     43  O2D       15.0540   20.4210   27.7670 O.co2 154  HEM154      0.0000
@<TRIPOS>BOND
     1    15    14   ar
     2    16    14   ar
     3    14    13    1
     4    11     9    1
     5    13    12    1
     6    12     8    1
     7     9     8   ar
     8     9    10   ar
     9     8     7   ar
    10    10     3    2
    11    10     6   ar
    12     3    18    1
    13     7     6   ar
    14     7     2    2
    15    22    19    1
    16     6     1    1
    17     2    37    1
    18    43    41   ar
    19    18    19    1
    20    18    17    2
    21    19    20    2
    22    41    40    1
    23    41    42   ar
    24    40    39    1
    25    37    36    1
    26    37    33    2
    27    39    36    1
    28    17     1    1
    29    17    21    1
    30    20    21    1
    31    20    23    1
    32    24    23    1
    33     1    33    1
    34     1    25    1
    35    36    35    2
    36    33    34    1
    37    21     4    2
    38    35    34    1
    39    35    38    1
    40    34     5    2
    41     4    26    1
    42    25    26   ar
    43    25    29   ar
    44    26    27   ar
    45     5    29    1
    46    29    28   ar
    47    27    28   ar
    48    27    30    1
    49    28    31    1
    50    31    32    2
