@<TRIPOS>MOLECULE
2lh3_HEM_A_1.pdb
 43 50 0 0 0
SMALL
GASTEIGER

@<TRIPOS>ATOM
      1 FE         18.7560   28.6670   29.8500 Fe    155  HEM155      0.0000
      2  CHA       16.9780   26.1980   27.7950 C.2   155  HEM155      0.0000
      3  CHB       20.6220   29.9590   27.0240 C.2   155  HEM155      0.0000
      4  CHC       20.2290   31.4420   31.6070 C.2   155  HEM155      0.0000
      5  CHD       17.1780   27.2580   32.5230 C.2   155  HEM155      0.0000
      6  NA        18.7870   28.1850   27.7800 N.ar  155  HEM155      0.0000
      7  C1A       17.9610   27.1260   27.1660 C.ar  155  HEM155      0.0000
      8  C2A       18.3450   27.0950   25.7620 C.ar  155  HEM155      0.0000
      9  C3A       19.3950   28.1060   25.5610 C.ar  155  HEM155      0.0000
     10  C4A       19.6620   28.8150   26.8280 C.ar  155  HEM155      0.0000
     11  CMA       20.1710   28.4870   24.2520 C.3   155  HEM155      0.0000
     12  CAA       17.6650   26.0830   24.7210 C.3   155  HEM155      0.0000
     13  CBA       16.6330   26.7480   23.9190 C.3   155  HEM155      0.0000
     14  CGA       16.0490   25.7930   22.8080 C.2   155  HEM155      0.0000
     15  O1A       14.8200   25.2790   22.8430 O.co2 155  HEM155      0.0000
     16  O2A       16.7260   25.6920   21.7630 O.co2 155  HEM155      0.0000
     17  NB        20.1420   30.4360   29.3640 N.2   155  HEM155      0.0000
     18  C1B       20.8310   30.7200   28.1850 C.2   155  HEM155      0.0000
     19  C2B       21.8020   31.9530   28.3410 C.2   155  HEM155      0.0000
     20  C3B       21.6490   32.4200   29.6040 C.2   155  HEM155      0.0000
     21  C4B       20.6180   31.4320   30.2650 C.2   155  HEM155      0.0000
     22  CMB       22.7790   32.5540   27.2280 C.3   155  HEM155      0.0000
     23  CAB       22.4240   33.6940   30.2850 C.3   155  HEM155      0.0000
     24  CBB       22.8960   34.8090   29.5940 C.3   155  HEM155      0.0000
     25  NC        18.6880   29.2690   31.7130 N.ar  155  HEM155      0.0000
     26  C1C       19.3720   30.4280   32.2840 C.ar  155  HEM155      0.0000
     27  C2C       19.0900   30.3840   33.7150 C.ar  155  HEM155      0.0000
     28  C3C       18.3120   29.1790   33.9780 C.ar  155  HEM155      0.0000
     29  C4C       18.0180   28.4890   32.7050 C.ar  155  HEM155      0.0000
     30  CMC       19.6410   31.4980   34.7190 C.3   155  HEM155      0.0000
     31  CAC       17.7980   28.6080   35.3450 C.2   155  HEM155      0.0000
     32  CBC       18.4750   27.7670   35.9980 C.2   155  HEM155      0.0000
     33  ND        17.2810   27.0420   30.0890 N.2   155  HEM155      0.0000
     34  C1D       16.8100   26.6040   31.3240 C.2   155  HEM155      0.0000
     35  C2D       15.8710   25.3380   31.1680 C.2   155  HEM155      0.0000
     36  C3D       15.7900   25.0560   29.8480 C.2   155  HEM155      0.0000
     37  C4D       16.6920   26.1290   29.1570 C.2   155  HEM155      0.0000
     38  CMD       15.1460   24.4920   32.3180 C.3   155  HEM155      0.0000
     39  CAD       14.9610   23.8050   29.1920 C.3   155  HEM155      0.0000
     40  CBD       15.8360   22.6900   28.9610 C.3   155  HEM155      0.0000
     41  CGD       14.8910   21.3620   28.7270 C.2   155  HEM155      0.0000
     42  O1D       14.1520   20.8490   29.6690 O.co2 155  HEM155      0.0000
     43  O2D       15.0530   20.6500   27.7220 O.co2 155  HEM155      0.0000
@<TRIPOS>BOND
     1    16    14   ar
     2    14    15   ar
     3    14    13    1
     4    13    12    1
     5    11     9    1
     6    12     8    1
     7     9     8   ar
     8     9    10   ar
     9     8     7   ar
    10    10     3    2
    11    10     6   ar
    12     3    18    1
    13     7     6   ar
    14     7     2    2
    15    22    19    1
    16    43    41   ar
    17     6     1    1
    18     2    37    1
    19    18    19    1
    20    18    17    2
    21    19    20    2
    22    41    40    1
    23    41    42   ar
    24    40    39    1
    25    37    36    1
    26    37    33    2
    27    39    36    1
    28    17     1    1
    29    17    21    1
    30    24    23    1
    31    20    21    1
    32    20    23    1
    33    36    35    2
    34     1    33    1
    35     1    25    1
    36    33    34    1
    37    21     4    2
    38    35    34    1
    39    35    38    1
    40    34     5    2
    41     4    26    1
    42    25    26   ar
    43    25    29   ar
    44    26    27   ar
    45     5    29    1
    46    29    28   ar
    47    27    28   ar
    48    27    30    1
    49    28    31    1
    50    31    32    2
