@<TRIPOS>MOLECULE
2lh5_HEM_A_1.pdb
 43 50 0 0 0
SMALL
GASTEIGER

@<TRIPOS>ATOM
      1 FE         18.7230   28.3940   29.4840 Fe    155  HEM155      0.0000
      2  CHA       16.9100   25.9600   27.6810 C.2   155  HEM155      0.0000
      3  CHB       20.4990   29.7400   26.8270 C.2   155  HEM155      0.0000
      4  CHC       20.4070   31.0920   31.4750 C.2   155  HEM155      0.0000
      5  CHD       17.2540   26.9960   32.4140 C.2   155  HEM155      0.0000
      6  NA        18.6930   27.9540   27.6220 N.ar  155  HEM155      0.0000
      7  C1A       17.8610   26.8940   27.0260 C.ar  155  HEM155      0.0000
      8  C2A       18.1920   26.8780   25.6050 C.ar  155  HEM155      0.0000
      9  C3A       19.2070   27.9180   25.3750 C.ar  155  HEM155      0.0000
     10  C4A       19.5230   28.6060   26.6450 C.ar  155  HEM155      0.0000
     11  CMA       19.9340   28.3250   24.0440 C.3   155  HEM155      0.0000
     12  CAA       17.5440   25.8130   24.5950 C.3   155  HEM155      0.0000
     13  CBA       18.5300   24.8070   24.2950 C.3   155  HEM155      0.0000
     14  CGA       17.8720   23.7220   23.3310 C.2   155  HEM155      0.0000
     15  O1A       16.9420   23.9660   22.5650 O.co2 155  HEM155      0.0000
     16  O2A       18.4310   22.6990   23.1110 O.co2 155  HEM155      0.0000
     17  NB        20.2040   30.1310   29.2190 N.2   155  HEM155      0.0000
     18  C1B       20.8000   30.4580   28.0030 C.2   155  HEM155      0.0000
     19  C2B       21.7940   31.6790   28.1380 C.2   155  HEM155      0.0000
     20  C3B       21.7440   32.0990   29.4360 C.2   155  HEM155      0.0000
     21  C4B       20.7430   31.1010   30.1210 C.2   155  HEM155      0.0000
     22  CMB       22.6930   32.3050   26.9770 C.3   155  HEM155      0.0000
     23  CAB       22.5830   33.3340   30.1260 C.3   155  HEM155      0.0000
     24  CBB       23.0580   34.4670   29.4600 C.3   155  HEM155      0.0000
     25  NC        18.8440   28.9430   31.5770 N.ar  155  HEM155      0.0000
     26  C1C       19.5380   30.0980   32.1520 C.ar  155  HEM155      0.0000
     27  C2C       19.2300   30.0820   33.5850 C.ar  155  HEM155      0.0000
     28  C3C       18.4040   28.9110   33.8480 C.ar  155  HEM155      0.0000
     29  C4C       18.1260   28.2050   32.5790 C.ar  155  HEM155      0.0000
     30  CMC       19.7820   31.1880   34.5970 C.3   155  HEM155      0.0000
     31  CAC       17.8220   28.3930   35.2110 C.2   155  HEM155      0.0000
     32  CBC       18.4050   27.5000   35.9040 C.2   155  HEM155      0.0000
     33  ND        17.3440   26.7600   29.9810 N.2   155  HEM155      0.0000
     34  C1D       16.8720   26.3400   31.2230 C.2   155  HEM155      0.0000
     35  C2D       15.8750   25.1180   31.0830 C.2   155  HEM155      0.0000
     36  C3D       15.7520   24.8420   29.7570 C.2   155  HEM155      0.0000
     37  C4D       16.6810   25.8810   29.0540 C.2   155  HEM155      0.0000
     38  CMD       15.1180   24.3370   32.2520 C.3   155  HEM155      0.0000
     39  CAD       14.8440   23.6420   29.0950 C.3   155  HEM155      0.0000
     40  CBD       15.6320   22.4430   28.9470 C.3   155  HEM155      0.0000
     41  CGD       14.6470   21.1540   28.6690 C.2   155  HEM155      0.0000
     42  O1D       13.8750   20.6620   29.5960 O.co2 155  HEM155      0.0000
     43  O2D       14.9180   20.3820   27.7490 O.co2 155  HEM155      0.0000
@<TRIPOS>BOND
     1    15    14   ar
     2    16    14   ar
     3    14    13    1
     4    11     9    1
     5    13    12    1
     6    12     8    1
     7     9     8   ar
     8     9    10   ar
     9     8     7   ar
    10    10     3    2
    11    10     6   ar
    12     3    18    1
    13    22    19    1
    14     7     6   ar
    15     7     2    2
    16     6     1    1
    17     2    37    1
    18    43    41   ar
    19    18    19    1
    20    18    17    2
    21    19    20    2
    22    41    40    1
    23    41    42   ar
    24    40    39    1
    25    37    36    1
    26    37    33    2
    27    39    36    1
    28    17     1    1
    29    17    21    1
    30    20    21    1
    31    20    23    1
    32    24    23    1
    33     1    33    1
    34     1    25    1
    35    36    35    2
    36    33    34    1
    37    21     4    2
    38    35    34    1
    39    35    38    1
    40    34     5    2
    41     4    26    1
    42    25    26   ar
    43    25    29   ar
    44    26    27   ar
    45     5    29    1
    46    29    28   ar
    47    27    28   ar
    48    27    30    1
    49    28    31    1
    50    31    32    2
