@<TRIPOS>MOLECULE
2lh6_HEM_A_1.pdb
 43 50 0 0 0
SMALL
GASTEIGER

@<TRIPOS>ATOM
      1 FE         18.3370   29.1330   29.7500 Fe    154  HEM154      0.0000
      2  CHA       16.3470   26.7340   27.7120 C.2   154  HEM154      0.0000
      3  CHB       20.1110   30.3920   26.9200 C.2   154  HEM154      0.0000
      4  CHC       19.9470   31.8150   31.5600 C.2   154  HEM154      0.0000
      5  CHD       16.7710   27.6870   32.4680 C.2   154  HEM154      0.0000
      6  NA        18.1960   28.6800   27.6490 N.ar  154  HEM154      0.0000
      7  C1A       17.3390   27.6320   27.0460 C.ar  154  HEM154      0.0000
      8  C2A       17.7180   27.5630   25.6390 C.ar  154  HEM154      0.0000
      9  C3A       18.8020   28.5640   25.4380 C.ar  154  HEM154      0.0000
     10  C4A       19.0900   29.2850   26.7020 C.ar  154  HEM154      0.0000
     11  CMA       19.6380   28.8990   24.1520 C.3   154  HEM154      0.0000
     12  CAA       17.0670   26.4800   24.6270 C.3   154  HEM154      0.0000
     13  CBA       18.0320   25.4530   24.3510 C.3   154  HEM154      0.0000
     14  CGA       17.5340   24.4640   23.2280 C.2   154  HEM154      0.0000
     15  O1A       16.7340   24.7900   22.3650 O.co2 154  HEM154      0.0000
     16  O2A       18.2250   23.5620   22.9350 O.co2 154  HEM154      0.0000
     17  NB        19.7530   30.8310   29.3040 N.2   154  HEM154      0.0000
     18  C1B       20.4030   31.1170   28.1020 C.2   154  HEM154      0.0000
     19  C2B       21.4600   32.3010   28.2650 C.2   154  HEM154      0.0000
     20  C3B       21.3640   32.7630   29.5430 C.2   154  HEM154      0.0000
     21  C4B       20.3010   31.8020   30.2100 C.2   154  HEM154      0.0000
     22  CMB       22.4630   32.8560   27.1480 C.3   154  HEM154      0.0000
     23  CAB       22.2210   33.9940   30.2420 C.3   154  HEM154      0.0000
     24  CBB       22.6920   35.1400   29.5870 C.3   154  HEM154      0.0000
     25  NC        18.3620   29.6570   31.6550 N.ar  154  HEM154      0.0000
     26  C1C       19.0790   30.8060   32.2370 C.ar  154  HEM154      0.0000
     27  C2C       18.8170   30.7480   33.6750 C.ar  154  HEM154      0.0000
     28  C3C       18.0070   29.5530   33.9310 C.ar  154  HEM154      0.0000
     29  C4C       17.6730   28.8860   32.6510 C.ar  154  HEM154      0.0000
     30  CMC       19.4070   31.8360   34.6970 C.3   154  HEM154      0.0000
     31  CAC       17.4870   28.9820   35.2980 C.2   154  HEM154      0.0000
     32  CBC       18.1880   28.1870   35.9750 C.2   154  HEM154      0.0000
     33  ND        16.7320   27.5770   30.0210 N.2   154  HEM154      0.0000
     34  C1D       16.3210   27.0940   31.2650 C.2   154  HEM154      0.0000
     35  C2D       15.3550   25.8390   31.1140 C.2   154  HEM154      0.0000
     36  C3D       15.2280   25.5840   29.7860 C.2   154  HEM154      0.0000
     37  C4D       16.0970   26.6810   29.0860 C.2   154  HEM154      0.0000
     38  CMD       14.6910   24.9710   32.2850 C.3   154  HEM154      0.0000
     39  CAD       14.4360   24.3170   29.1050 C.3   154  HEM154      0.0000
     40  CBD       15.3450   23.2290   28.9540 C.3   154  HEM154      0.0000
     41  CGD       14.4650   21.8980   28.5490 C.2   154  HEM154      0.0000
     42  O1D       14.1670   21.6660   27.3410 O.co2 154  HEM154      0.0000
     43  O2D       13.9010   21.1050   29.4340 O.co2 154  HEM154      0.0000
@<TRIPOS>BOND
     1    15    14   ar
     2    16    14   ar
     3    14    13    1
     4    11     9    1
     5    13    12    1
     6    12     8    1
     7     9     8   ar
     8     9    10   ar
     9     8     7   ar
    10    10     3    2
    11    10     6   ar
    12     3    18    1
    13     7     6   ar
    14     7     2    2
    15    22    19    1
    16    42    41   ar
    17     6     1    1
    18     2    37    1
    19    18    19    1
    20    18    17    2
    21    19    20    2
    22    41    40    1
    23    41    43   ar
    24    40    39    1
    25    37    36    1
    26    37    33    2
    27    39    36    1
    28    17     1    1
    29    17    21    1
    30    20    21    1
    31    20    23    1
    32    24    23    1
    33     1    33    1
    34     1    25    1
    35    36    35    2
    36    33    34    1
    37    21     4    2
    38    35    34    1
    39    35    38    1
    40    34     5    2
    41     4    26    1
    42    25    26   ar
    43    25    29   ar
    44    26    27   ar
    45     5    29    1
    46    29    28   ar
    47    27    28   ar
    48    27    30    1
    49    28    31    1
    50    31    32    2
