@<TRIPOS>MOLECULE
2lh7_HEM_A_1.pdb
 43 50 0 0 0
SMALL
GASTEIGER

@<TRIPOS>ATOM
      1 FE         18.9020   28.3680   29.6850 Fe    154  HEM154      0.0000
      2  CHA       17.2010   25.8970   27.6650 C.2   154  HEM154      0.0000
      3  CHB       20.7330   29.7190   26.8570 C.2   154  HEM154      0.0000
      4  CHC       20.4360   31.1170   31.4720 C.2   154  HEM154      0.0000
      5  CHD       17.4270   26.9250   32.3950 C.2   154  HEM154      0.0000
      6  NA        18.9290   27.9370   27.6320 N.ar  154  HEM154      0.0000
      7  C1A       18.1250   26.8640   27.0230 C.ar  154  HEM154      0.0000
      8  C2A       18.4780   26.8480   25.6040 C.ar  154  HEM154      0.0000
      9  C3A       19.5040   27.8800   25.3920 C.ar  154  HEM154      0.0000
     10  C4A       19.7810   28.5760   26.6660 C.ar  154  HEM154      0.0000
     11  CMA       20.2540   28.3080   24.0780 C.3   154  HEM154      0.0000
     12  CAA       17.7670   25.8360   24.5770 C.3   154  HEM154      0.0000
     13  CBA       18.6640   24.8420   24.0250 C.3   154  HEM154      0.0000
     14  CGA       17.8660   24.0680   22.8920 C.2   154  HEM154      0.0000
     15  O1A       16.6530   24.2190   22.7210 O.co2 154  HEM154      0.0000
     16  O2A       18.4730   23.5840   21.9510 O.co2 154  HEM154      0.0000
     17  NB        20.3620   30.1060   29.2380 N.2   154  HEM154      0.0000
     18  C1B       20.9720   30.4450   28.0330 C.2   154  HEM154      0.0000
     19  C2B       21.8850   31.7100   28.1600 C.2   154  HEM154      0.0000
     20  C3B       21.7780   32.1540   29.4410 C.2   154  HEM154      0.0000
     21  C4B       20.8210   31.1150   30.1290 C.2   154  HEM154      0.0000
     22  CMB       22.7520   32.3620   26.9930 C.3   154  HEM154      0.0000
     23  CAB       22.5170   33.4590   30.1010 C.3   154  HEM154      0.0000
     24  CBB       22.8540   34.6010   29.4050 C.3   154  HEM154      0.0000
     25  NC        18.9620   28.9180   31.5730 N.ar  154  HEM154      0.0000
     26  C1C       19.5920   30.1000   32.1430 C.ar  154  HEM154      0.0000
     27  C2C       19.2390   30.0970   33.5620 C.ar  154  HEM154      0.0000
     28  C3C       18.4660   28.8970   33.8330 C.ar  154  HEM154      0.0000
     29  C4C       18.2530   28.1630   32.5680 C.ar  154  HEM154      0.0000
     30  CMC       19.7000   31.2460   34.5570 C.3   154  HEM154      0.0000
     31  CAC       17.8740   28.3890   35.1980 C.2   154  HEM154      0.0000
     32  CBC       18.4480   27.5000   35.9040 C.2   154  HEM154      0.0000
     33  ND        17.5750   26.6760   29.9720 N.2   154  HEM154      0.0000
     34  C1D       17.0850   26.2500   31.2020 C.2   154  HEM154      0.0000
     35  C2D       16.1080   25.0120   31.0390 C.2   154  HEM154      0.0000
     36  C3D       16.0440   24.7210   29.7130 C.2   154  HEM154      0.0000
     37  C4D       16.9570   25.7880   29.0320 C.2   154  HEM154      0.0000
     38  CMD       15.3240   24.2200   32.1880 C.3   154  HEM154      0.0000
     39  CAD       15.1900   23.4970   29.0360 C.3   154  HEM154      0.0000
     40  CBD       15.9950   22.3060   28.8890 C.3   154  HEM154      0.0000
     41  CGD       15.0100   21.0110   28.6180 C.2   154  HEM154      0.0000
     42  O1D       14.0710   20.6490   29.4380 O.co2 154  HEM154      0.0000
     43  O2D       15.3490   20.1370   27.8350 O.co2 154  HEM154      0.0000
@<TRIPOS>BOND
     1    16    14   ar
     2    15    14   ar
     3    14    13    1
     4    13    12    1
     5    11     9    1
     6    12     8    1
     7     9     8   ar
     8     9    10   ar
     9     8     7   ar
    10    10     3    2
    11    10     6   ar
    12     3    18    1
    13    22    19    1
    14     7     6   ar
    15     7     2    2
    16     6     1    1
    17     2    37    1
    18    43    41   ar
    19    18    19    1
    20    18    17    2
    21    19    20    2
    22    41    40    1
    23    41    42   ar
    24    40    39    1
    25    37    36    1
    26    37    33    2
    27    39    36    1
    28    17     1    1
    29    17    21    1
    30    24    23    1
    31    20    23    1
    32    20    21    1
    33     1    33    1
    34     1    25    1
    35    36    35    2
    36    33    34    1
    37    21     4    2
    38    35    34    1
    39    35    38    1
    40    34     5    2
    41     4    26    1
    42    25    26   ar
    43    25    29   ar
    44    26    27   ar
    45     5    29    1
    46    29    28   ar
    47    27    28   ar
    48    27    30    1
    49    28    31    1
    50    31    32    2
