@<TRIPOS>MOLECULE
2lh8_VIB_A_1.pdb
 35 36 0 0 0
SMALL
GASTEIGER

@<TRIPOS>ATOM
      1  CM2       -7.1500    5.3450    8.5870 C.3     1  VIB1        0.0395
      2  N4A      -11.0360    7.8780    9.6970 N.pl3   1  VIB1       -0.3353
      3  CM4      -15.0340    9.4520    6.9150 C.3     1  VIB1       -0.0434
      4  O1       -15.5680   12.6010    4.1090 O.3     1  VIB1       -0.3950
      5  C7       -15.6710   11.1830    3.9710 C.3     1  VIB1        0.0456
      6  C6       -14.2560   10.5830    3.9690 C.3     1  VIB1       -0.0118
      7  C2       -11.6570   10.2500    6.7740 C.3     1  VIB1        0.0831
      8  S1       -12.2410   11.5110    5.7530 S.3     1  VIB1       -0.1292
      9  C5       -13.6330   10.6060    5.3550 C.3     1  VIB1        0.0566
     10  C4       -13.7300    9.5110    6.1700 C.3     1  VIB1        0.0557
     11  N3       -12.4970    9.1550    6.7340 N.3     1  VIB1       -0.2787
     12  C7A      -12.1280    7.7370    6.9750 C.3     1  VIB1        0.0213
     13  C4A      -10.2990    7.2850    8.7230 C.2     1  VIB1        0.1722
     14  N3A       -9.1620    6.6660    9.1130 N.2     1  VIB1       -0.3342
     15  C2A       -8.3880    6.1120    8.1540 C.1     1  VIB1        0.1000
     16  N1A       -8.6820    6.1560    6.8370 N.2     1  VIB1       -0.3567
     17  C6A       -9.8670    6.6920    6.4720 C.2     1  VIB1        0.0850
     18  C5A      -10.7180    7.3100    7.3900 C.3     1  VIB1        0.1182
     19 HM21       -6.3800    5.3760    7.8150 H       1  VIB1        0.0399
     20 HM22       -6.7240    5.7610    9.5010 H       1  VIB1        0.0399
     21 HM23       -7.4050    4.3000    8.7780 H       1  VIB1        0.0399
     22 H4A1      -10.5140    8.1150   10.5300 H       1  VIB1        0.1444
     23 H4A2      -11.7060    8.5580    9.3510 H       1  VIB1        0.1444
     24 HM41      -14.9510    8.8820    7.8400 H       1  VIB1        0.0249
     25 HM42      -15.3480   10.4610    7.1950 H       1  VIB1        0.0249
     26 HM43      -15.8310    9.0400    6.2950 H       1  VIB1        0.0249
     27  HO1      -16.4780   12.9540    4.1160 H       1  VIB1        0.2094
     28 HC71      -16.1670   10.9500    3.0220 H       1  VIB1        0.0557
     29 HC72      -16.2770   10.7590    4.7760 H       1  VIB1        0.0557
     30 HC61      -13.6580   11.1360    3.2460 H       1  VIB1        0.0302
     31 HC62      -14.3190    9.5530    3.6040 H       1  VIB1        0.0302
     32  HC2      -10.6720   10.2390    7.2130 H       1  VIB1        0.0602
     33 H7A1      -12.8110    7.3440    7.7230 H       1  VIB1        0.0441
     34 H7A2      -12.3380    7.2050    6.0460 H       1  VIB1        0.0441
     35 H6AC      -10.1140    6.6280    5.4130 H       1  VIB1        0.0942
@<TRIPOS>BOND
     1    28     5    1
     2    30     6    1
     3    31     6    1
     4     6     5    1
     5     6     9    1
     6     5     4    1
     7     5    29    1
     8     4    27    1
     9     9     8    1
    10     9    10    1
    11    35    17    1
    12     8     7    1
    13    34    12    1
    14    10    11    1
    15    10     3    1
    16    26     3    1
    17    17    16    2
    18    17    18    1
    19    11     7    1
    20    11    12    1
    21     7    32    1
    22    16    15    2
    23     3    25    1
    24     3    24    1
    25    12    18    1
    26    12    33    1
    27    18    13    1
    28    19     1    1
    29    15     1    1
    30    15    14    2
    31     1    21    1
    32     1    20    1
    33    13    14    2
    34    13     2    1
    35    23     2    1
    36     2    22    1
