@<TRIPOS>MOLECULE
2lha_IHP_A_1.pdb
 42 42 0 0 0
SMALL
GASTEIGER

@<TRIPOS>ATOM
      1  C1        13.6370    2.1310  -10.4540 C.3     1  IHP1        0.1284
      2  C2        15.0160    1.6920  -10.9690 C.3     1  IHP1        0.1284
      3  C3        14.9630    0.2060  -11.4040 C.3     1  IHP1        0.1284
      4  C4        13.9360    0.0560  -12.5330 C.3     1  IHP1        0.1284
      5  C5        12.5490    0.5030  -12.0500 C.3     1  IHP1        0.1284
      6  C6        12.5950    1.9600  -11.5710 C.3     1  IHP1        0.1284
      7  O11       13.6520    3.5080  -10.0540 O.3     1  IHP1       -0.2749
      8  P1        13.2490    3.9250   -8.5410 P.3     1  IHP1        0.5323
      9  O21       14.0510    3.2430   -7.4960 O.3     1  IHP1       -0.1145
     10  O31       11.6890    3.5830   -8.3870 O.3     1  IHP1       -0.1145
     11  O41       13.3780    5.5190   -8.4470 O.2     1  IHP1       -0.2224
     12  O12       15.4320    2.4860  -12.0730 O.3     1  IHP1       -0.2749
     13  P2        16.7830    3.3550  -11.9910 P.3     1  IHP1        0.5323
     14  O22       16.9730    3.8620  -10.6080 O.3     1  IHP1       -0.1145
     15  O32       17.9780    2.3750  -12.4290 O.3     1  IHP1       -0.1145
     16  O42       16.6190    4.5350  -13.0570 O.2     1  IHP1       -0.2224
     17  O13       16.2400   -0.2100  -11.8850 O.3     1  IHP1       -0.2749
     18  P3        17.0020   -1.4530  -11.1990 P.3     1  IHP1        0.5323
     19  O23       16.1170   -2.6410  -11.2320 O.3     1  IHP1       -0.1145
     20  O33       17.3270   -0.9850   -9.6950 O.3     1  IHP1       -0.1145
     21  O43       18.3710   -1.7160  -11.9950 O.2     1  IHP1       -0.2224
     22  O14       13.8570   -1.3110  -12.9400 O.3     1  IHP1       -0.2749
     23  P4        14.1910   -1.7240  -14.4620 P.3     1  IHP1        0.5323
     24  O24       15.5440   -1.2440  -14.8260 O.3     1  IHP1       -0.1145
     25  O34       13.0400   -1.0130  -15.3310 O.2     1  IHP1       -0.2224
     26  O44       14.0550   -3.3190  -14.6010 O.3     1  IHP1       -0.1145
     27  O15       11.6050    0.3920  -13.1090 O.3     1  IHP1       -0.2749
     28  P5        10.3040   -0.5440  -12.9610 P.3     1  IHP1        0.5323
     29  O25       10.7190   -1.9350  -12.6750 O.3     1  IHP1       -0.1145
     30  O35        9.4310    0.0690  -11.7510 O.3     1  IHP1       -0.1145
     31  O45        9.4700   -0.4390  -14.3240 O.2     1  IHP1       -0.2224
     32  O16       11.2990    2.3530  -11.1220 O.3     1  IHP1       -0.2749
     33  P6        10.5140    3.5660  -11.8280 P.3     1  IHP1        0.5323
     34  O26        9.1820    3.8020  -11.2080 O.3     1  IHP1       -0.1145
     35  O36       10.3940    3.0980  -13.3620 O.2     1  IHP1       -0.2224
     36  O46       11.4370    4.8740  -11.7460 O.3     1  IHP1       -0.1145
     37  H1        13.3530    1.5570   -9.6780 H       1  IHP1        0.0656
     38  H2        15.6840    1.7970  -10.2280 H       1  IHP1        0.0656
     39  H3        14.6740   -0.3670  -10.6350 H       1  IHP1        0.0656
     40  H4        14.2110    0.6420  -13.2970 H       1  IHP1        0.0656
     41  H5        12.2670   -0.0680  -11.2710 H       1  IHP1        0.0656
     42  H6        12.8980    2.5370  -12.3480 H       1  IHP1        0.0656
@<TRIPOS>BOND
     1    25    23    2
     2    24    23    1
     3    26    23    1
     4    23    22    1
     5    31    28    2
     6    35    33    2
     7    40     4    1
     8    27    28    1
     9    27     5    1
    10    16    13    2
    11    28    29    1
    12    28    30    1
    13    22     4    1
    14     4     5    1
    15     4     3    1
    16    15    13    1
    17    42     6    1
    18    12    13    1
    19    12     2    1
    20     5     6    1
    21     5    41    1
    22    21    18    2
    23    13    14    1
    24    17     3    1
    25    17    18    1
    26    33    36    1
    27    33    34    1
    28    33    32    1
    29     6    32    1
    30     6     1    1
    31     3     2    1
    32     3    39    1
    33    19    18    1
    34    18    20    1
    35     2     1    1
    36     2    38    1
    37     1     7    1
    38     1    37    1
    39     7     8    1
    40     8    11    2
    41     8    10    1
    42     8     9    1
