@<TRIPOS>MOLECULE
2lhb_HEM_A_1.pdb
 43 50 0 0 0
SMALL
GASTEIGER

@<TRIPOS>ATOM
      1  CHA        8.8570   35.3300   -0.5940 C.2   151  HEM151      0.0000
      2  CHB       12.8320   35.3090   -3.3420 C.2   151  HEM151      0.0000
      3  CHC       10.8300   32.0450   -6.2780 C.2   151  HEM151      0.0000
      4  CHD        6.7320   32.2330   -3.6830 C.2   151  HEM151      0.0000
      5  C1A       10.1050   35.6240   -1.0750 C.2   151  HEM151      0.0000
      6  C2A       11.0810   36.5270   -0.4990 C.2   151  HEM151      0.0000
      7  C3A       12.1540   36.5270   -1.2750 C.2   151  HEM151      0.0000
      8  C4A       11.9100   35.5800   -2.3630 C.2   151  HEM151      0.0000
      9  CMA       13.5130   37.2650   -1.2050 C.3   151  HEM151      0.0000
     10  CAA       10.8570   37.3280    0.8130 C.3   151  HEM151      0.0000
     11  CBA       11.3090   36.5820    2.0720 C.3   151  HEM151      0.0000
     12  CGA       10.9700   37.1760    3.4090 C.2   151  HEM151      0.0000
     13  O1A        9.8840   37.8450    3.5030 O.co2 151  HEM151      0.0000
     14  O2A       11.7720   37.0200    4.3720 O.co2 151  HEM151      0.0000
     15  C1B       12.6720   34.3890   -4.3490 C.ar  151  HEM151      0.0000
     16  C2B       13.6680   34.0430   -5.3640 C.ar  151  HEM151      0.0000
     17  C3B       13.0960   33.1520   -6.1860 C.ar  151  HEM151      0.0000
     18  C4B       11.7570   32.8940   -5.6820 C.ar  151  HEM151      0.0000
     19  CMB       15.0680   34.6610   -5.4540 C.3   151  HEM151      0.0000
     20  CAB       13.6780   32.3660   -7.3650 C.2   151  HEM151      0.0000
     21  CBB       14.3510   32.9200   -8.3620 C.2   151  HEM151      0.0000
     22  C1C        9.5020   31.9140   -5.8870 C.2   151  HEM151      0.0000
     23  C2C        8.4720   31.1920   -6.6250 C.2   151  HEM151      0.0000
     24  C3C        7.3670   31.2350   -5.8890 C.2   151  HEM151      0.0000
     25  C4C        7.6470   31.9520   -4.6690 C.2   151  HEM151      0.0000
     26  CMC        8.7480   30.5390   -7.9980 C.3   151  HEM151      0.0000
     27  CAC        5.9540   30.6590   -6.1820 C.2   151  HEM151      0.0000
     28  CBC        5.9220   29.4400   -6.7610 C.2   151  HEM151      0.0000
     29  C1D        6.9440   33.1110   -2.6410 C.ar  151  HEM151      0.0000
     30  C2D        5.9370   33.5350   -1.6850 C.ar  151  HEM151      0.0000
     31  C3D        6.5350   34.3830   -0.8400 C.ar  151  HEM151      0.0000
     32  C4D        7.9060   34.5390   -1.2350 C.ar  151  HEM151      0.0000
     33  CMD        4.4800   33.0140   -1.6910 C.3   151  HEM151      0.0000
     34  CAD        5.8680   35.1340    0.3260 C.3   151  HEM151      0.0000
     35  CBD        5.0670   36.3880   -0.0720 C.3   151  HEM151      0.0000
     36  CGD        4.6010   37.1770    1.1240 C.2   151  HEM151      0.0000
     37  O1D        3.5700   36.7610    1.7380 O.co2 151  HEM151      0.0000
     38  O2D        5.2670   38.1870    1.4460 O.co2 151  HEM151      0.0000
     39  NA        10.6420   35.0510   -2.2230 N.2   151  HEM151      0.0000
     40  NB        11.5210   33.6770   -4.5490 N.ar  151  HEM151      0.0000
     41  NC         8.9810   32.3770   -4.6980 N.2   151  HEM151      0.0000
     42  ND         8.1410   33.7570   -2.3410 N.ar  151  HEM151      0.0000
     43 FE          9.8390   33.6490   -3.4140 Fe    151  HEM151      0.0000
@<TRIPOS>BOND
     1    21    20    2
     2    26    23    1
     3    20    17    1
     4    28    27    2
     5    23    24    2
     6    23    22    1
     7     3    22    2
     8     3    18    1
     9    17    18   ar
    10    17    16   ar
    11    27    24    1
    12    24    25    1
    13    22    41    1
    14    18    40   ar
    15    19    16    1
    16    16    15   ar
    17    41    25    2
    18    41    43    1
    19    25     4    1
    20    40    15   ar
    21    40    43    1
    22    15     2    1
    23     4    29    2
    24    43    42    1
    25    43    39    1
    26     2     8    2
    27    29    42   ar
    28    29    30   ar
    29     8    39    1
    30     8     7    1
    31    42    32   ar
    32    39     5    2
    33    33    30    1
    34    30    31   ar
    35     7     9    1
    36     7     6    2
    37    32    31   ar
    38    32     1    2
    39     5     1    1
    40     5     6    1
    41    31    34    1
    42     6    10    1
    43    35    34    1
    44    35    36    1
    45    10    11    1
    46    36    38   ar
    47    36    37   ar
    48    11    12    1
    49    12    13   ar
    50    12    14   ar
