@<TRIPOS>MOLECULE
2lig_PHN_A_1.pdb
 14 16 0 0 0
SMALL
GASTEIGER

@<TRIPOS>ATOM
      1  N1        -2.0500   49.9110   45.4010 N.2   390  PHN390     -0.2641
      2  C2        -3.2150   49.8420   44.6700 C.3   390  PHN390      0.1516
      3  C3        -4.3000   50.7470   44.9440 C.2   390  PHN390      0.0000
      4  C4        -4.1400   51.7210   45.8580 C.2   390  PHN390     -0.0011
      5  C4A       -2.9740   51.7910   46.5880 C.ar  390  PHN390      0.0185
      6  C5        -2.7730   52.8350   47.4110 C.ar  390  PHN390      0.0016
      7  C6        -1.4870   52.9740   47.9590 C.ar  390  PHN390      0.0016
      8  C6A       -0.5220   52.1390   47.7760 C.ar  390  PHN390      0.0185
      9  C7         0.6430   52.2080   48.4150 C.2   390  PHN390     -0.0011
     10  C8         1.5270   51.2340   48.3240 C.2   390  PHN390      0.0000
     11  C9         1.3660   50.1200   47.5020 C.3   390  PHN390      0.1516
     12  N10        0.2010   50.0500   46.7710 N.2   390  PHN390     -0.2641
     13  C10       -0.7230   51.0950   46.8630 C.ar  390  PHN390      0.0935
     14  C1A       -1.9690   50.8860   46.3140 C.ar  390  PHN390      0.0935
@<TRIPOS>BOND
     1     2     3    1
     2     2     1    1
     3     3     4    2
     4     1    14    2
     5     4     5    1
     6    14     5   ar
     7    14    13   ar
     8     5     6   ar
     9    12    13    2
    10    12    11    1
    11    13     8   ar
    12     6     7   ar
    13    11    10    1
    14     8     7   ar
    15     8     9    1
    16    10     9    2
