@<TRIPOS>MOLECULE
2liq_FUC_A_1.pdb
 21 21 0 0 0
SMALL
GASTEIGER

@<TRIPOS>ATOM
      1  C1        56.5670  -10.3680   18.7820 C.3   156  FUC156      0.1160
      2  C2        55.6090  -11.5180   18.3750 C.3   156  FUC156      0.1121
      3  C3        55.2790  -12.3930   19.5960 C.3   156  FUC156      0.1117
      4  C4        54.6960  -11.5530   20.7320 C.3   156  FUC156      0.1093
      5  C5        55.6900  -10.4380   21.1130 C.3   156  FUC156      0.0848
      6  C6        55.2390   -9.5350   22.2560 C.3   156  FUC156     -0.0361
      7  O2        56.2140  -12.3600   17.3440 O.3   156  FUC156     -0.3865
      8  O3        54.3110  -13.4130   19.2460 O.3   156  FUC156     -0.3865
      9  O4        53.4080  -11.0320   20.3160 O.3   156  FUC156     -0.3866
     10  O5        56.0140   -9.6060   19.9270 O.3   156  FUC156     -0.3657
     11  H1        56.6720   -9.7020   17.9310 H     156  FUC156      0.0650
     12  H2        54.6910  -11.0880   17.9740 H     156  FUC156      0.0647
     13  H3        56.1750  -12.8970   19.9680 H     156  FUC156      0.0647
     14  H4        54.5410  -12.2180   21.5760 H     156  FUC156      0.0646
     15  H5        56.6100  -10.9210   21.4410 H     156  FUC156      0.0620
     16  H61       54.3200   -9.0010   22.0330 H     156  FUC156      0.0255
     17  H62       56.0020   -8.7930   22.4790 H     156  FUC156      0.0255
     18  H63       55.0710  -10.1120   23.1650 H     156  FUC156      0.0255
     19  HO2       56.4580  -11.7950   16.5850 H     156  FUC156      0.2100
     20  HO3       53.9030  -13.7510   20.0600 H     156  FUC156      0.2100
     21  HO4       53.3960  -10.0510   20.3420 H     156  FUC156      0.2100
@<TRIPOS>BOND
     1    19     7    1
     2     7     2    1
     3    11     1    1
     4    12     2    1
     5     2     1    1
     6     2     3    1
     7     1    10    1
     8     8     3    1
     9     8    20    1
    10     3    13    1
    11     3     4    1
    12    10     5    1
    13     9    21    1
    14     9     4    1
    15     4     5    1
    16     4    14    1
    17     5    15    1
    18     5     6    1
    19    16     6    1
    20     6    17    1
    21     6    18    1
