@<TRIPOS>MOLECULE
2liq_MAG_A_1.pdb
 31 31 0 0 0
SMALL
GASTEIGER

@<TRIPOS>ATOM
      1  C1        61.0960   -9.0140   18.1540 C.3   155  MAG155      0.1801
      2  C2        59.7010   -9.6630   17.9660 C.3   155  MAG155      0.1057
      3  C3        59.0030   -9.9650   19.3110 C.3   155  MAG155      0.1481
      4  C4        59.9530  -10.6000   20.3350 C.3   155  MAG155      0.1528
      5  C5        61.2220   -9.7640   20.4980 C.3   155  MAG155      0.1164
      6  C6        62.2320  -10.2970   21.5190 C.3   155  MAG155      0.0731
      7  C7        58.5550   -8.9270   15.8850 C.2   155  MAG155      0.2104
      8  C8        57.7930   -7.7550   15.2190 C.3   155  MAG155      0.0122
      9  N2        58.8620   -8.7590   17.1680 N.am  155  MAG155     -0.3052
     10  O1        61.8190   -9.0190   16.8750 O.3   155  MAG155     -0.3526
     11  O3        57.8910  -10.9230   19.1120 O.3   155  MAG155     -0.2262
     12  O4        59.2510  -10.6540   21.6300 O.3   155  MAG155     -0.2255
     13  O5        61.8740   -9.7240   19.1760 O.3   155  MAG155     -0.3411
     14  O6        63.3470   -9.3860   21.5900 O.3   155  MAG155     -0.3924
     15  O7        58.8610   -9.9470   15.2690 O.2   155  MAG155     -0.2761
     16  CM        63.1450   -8.3880   16.9300 C.3   155  MAG155      0.0395
     17  H1        60.9570   -7.9900   18.4840 H     155  MAG155      0.0930
     18  H2        59.8390  -10.6040   17.4360 H     155  MAG155      0.0576
     19  H3        58.6170   -9.0370   19.7350 H     155  MAG155      0.0676
     20  H4        60.2210  -11.6060   20.0060 H     155  MAG155      0.0683
     21  H5        60.9420   -8.7540   20.8010 H     155  MAG155      0.0648
     22  H61       61.7760  -10.3760   22.5060 H     155  MAG155      0.0584
     23  H62       62.5920  -11.2780   21.2200 H     155  MAG155      0.0584
     24  H81       58.4590   -6.8970   15.1060 H     155  MAG155      0.0322
     25  H82       56.9430   -7.4490   15.8300 H     155  MAG155      0.0322
     26  H83       57.4300   -8.0540   14.2370 H     155  MAG155      0.0322
     27  HN2       58.5530   -7.8970   17.6020 H     155  MAG155      0.1492
     28  HO6       63.7800   -9.3710   20.7160 H     155  MAG155      0.2095
     29  HM1       63.5470   -8.2930   15.9220 H     155  MAG155      0.0525
     30  HM2       63.0790   -7.3990   17.3810 H     155  MAG155      0.0525
     31  HM3       63.8250   -9.0010   17.5220 H     155  MAG155      0.0525
@<TRIPOS>BOND
     1    26     8    1
     2    24     8    1
     3     8    25    1
     4     8     7    1
     5    15     7    2
     6     7     9   am
     7    29    16    1
     8    10    16    1
     9    10     1    1
    10    16    30    1
    11    16    31    1
    12     9    27    1
    13     9     2    1
    14    18     2    1
    15     2     1    1
    16     2     3    1
    17     1    17    1
    18     1    13    1
    19    11     3    1
    20    13     5    1
    21     3    19    1
    22     3     4    1
    23    20     4    1
    24     4     5    1
    25     4    12    1
    26     5    21    1
    27     5     6    1
    28    28    14    1
    29    23     6    1
    30     6    14    1
    31     6    22    1
