@<TRIPOS>MOLECULE
2liq_NAG_A_1.pdb
 28 28 0 0 0
SMALL
GASTEIGER

@<TRIPOS>ATOM
      1  C1        59.3340  -11.9570   22.3000 C.3   154  NAG154      0.1078
      2  C2        58.6860  -11.8700   23.6920 C.3   154  NAG154      0.0801
      3  C3        58.7650  -13.2370   24.3930 C.3   154  NAG154      0.1043
      4  C4        58.1510  -14.3440   23.5210 C.3   154  NAG154      0.1110
      5  C5        58.7300  -14.3410   22.0970 C.3   154  NAG154      0.1104
      6  C6        57.9870  -15.2960   21.1620 C.3   154  NAG154      0.0729
      7  C7        58.8930   -9.6760   24.8050 C.2   154  NAG154      0.2103
      8  C8        59.8230   -8.7930   25.6440 C.3   154  NAG154      0.0122
      9  N2        59.3840  -10.8730   24.5080 N.am  154  NAG154     -0.3075
     10  O3        58.0670  -13.1900   25.6680 O.3   154  NAG154     -0.3872
     11  O4        58.4420  -15.6170   24.1390 O.3   154  NAG154     -0.3865
     12  O5        58.6220  -12.9760   21.5270 O.3   154  NAG154     -0.3639
     13  O6        58.4020  -15.0310   19.8040 O.3   154  NAG154     -0.3924
     14  O7        57.7790   -9.3030   24.4430 O.2   154  NAG154     -0.2761
     15  H1        60.3830  -12.2400   22.3960 H     154  NAG154      0.0642
     16  H2        57.6360  -11.6070   23.5440 H     154  NAG154      0.0551
     17  H3        59.8140  -13.4720   24.5810 H     154  NAG154      0.0639
     18  H4        57.0720  -14.2060   23.4700 H     154  NAG154      0.0646
     19  H5        59.7850  -14.6190   22.1270 H     154  NAG154      0.0646
     20  H61       58.1930  -16.3360   21.4150 H     154  NAG154      0.0584
     21  H62       56.9140  -15.1220   21.2470 H     154  NAG154      0.0584
     22  H81       59.9630   -9.2440   26.6280 H     154  NAG154      0.0322
     23  H82       59.3940   -7.7970   25.7540 H     154  NAG154      0.0322
     24  H83       60.7890   -8.7190   25.1420 H     154  NAG154      0.0322
     25  HN2       60.3040  -11.1130   24.8440 H     154  NAG154      0.1491
     26  HO3       58.3340  -12.3840   26.1510 H     154  NAG154      0.2100
     27  HO4       58.1700  -15.5510   25.0740 H     154  NAG154      0.2100
     28  HO6       58.5960  -14.0770   19.7470 H     154  NAG154      0.2095
@<TRIPOS>BOND
     1    28    13    1
     2    13     6    1
     3     6    21    1
     4     6    20    1
     5     6     5    1
     6    12     5    1
     7    12     1    1
     8     5    19    1
     9     5     4    1
    10     1    15    1
    11     1     2    1
    12    18     4    1
    13     4    11    1
    14     4     3    1
    15    16     2    1
    16     2     3    1
    17     2     9    1
    18    11    27    1
    19     3    17    1
    20     3    10    1
    21    14     7    2
    22     9     7   am
    23     9    25    1
    24     7     8    1
    25    24     8    1
    26     8    23    1
    27     8    22    1
    28    10    26    1
