@<TRIPOS>MOLECULE
2liw_PNS_A_1.pdb
 41 40 0 0 0
SMALL
GASTEIGER

@<TRIPOS>ATOM
      1  P24      -18.3240   -1.0560    1.5670 P.3   2100  PNS2100     0.3935
      2  O25      -17.8150   -2.3830    1.9750 O.3   2100  PNS2100    -0.1425
      3  O26      -19.2050   -0.3180    2.5010 O.3   2100  PNS2100    -0.1425
      4  O27      -19.1300   -1.2690    0.1860 O.3   2100  PNS2100    -0.3080
      5  C28      -18.5150   -1.6210   -1.0460 C.3   2100  PNS2100     0.0644
      6  C29      -18.0920   -3.0970   -1.2770 C.3   2100  PNS2100     0.0234
      7  C30      -16.6160   -3.2880   -0.8700 C.3   2100  PNS2100    -0.0549
      8  C31      -18.1440   -3.3210   -2.8070 C.3   2100  PNS2100    -0.0549
      9  C32      -19.0100   -4.1000   -0.5310 C.3   2100  PNS2100     0.1380
     10  O33      -20.3130   -4.1230   -1.0710 O.3   2100  PNS2100    -0.3820
     11  C34      -18.4490   -5.5220   -0.4540 C.2   2100  PNS2100     0.2423
     12  O35      -18.0590   -6.1230   -1.4610 O.2   2100  PNS2100    -0.2730
     13  N36      -18.1330   -5.9180    0.7810 N.am  2100  PNS2100    -0.3127
     14  C37      -17.3760   -7.1230    1.0580 C.3   2100  PNS2100     0.0199
     15  C38      -15.8750   -6.8290    0.9010 C.3   2100  PNS2100     0.0395
     16  C39      -15.1220   -7.6720   -0.1410 C.2   2100  PNS2100     0.2145
     17  O40      -13.9060   -7.8760   -0.0050 O.2   2100  PNS2100    -0.2758
     18  N41      -15.8040   -8.0400   -1.2320 N.am  2100  PNS2100    -0.3145
     19  C42      -15.2660   -8.7130   -2.3980 C.3   2100  PNS2100     0.0214
     20  C43      -15.1810   -7.7130   -3.5480 C.3   2100  PNS2100     0.0195
     21  S44      -15.5500   -8.3470   -5.1970 S.3   2100  PNS2100    -0.0915
     22 H282      -19.2430   -1.3710   -1.8130 H     2100  PNS2100     0.0571
     23 H281      -17.6570   -0.9710   -1.2000 H     2100  PNS2100     0.0571
     24 H303      -16.0210   -2.4980   -1.3050 H     2100  PNS2100     0.0237
     25 H302      -16.4850   -3.2720    0.2060 H     2100  PNS2100     0.0237
     26 H301      -16.2280   -4.2380   -1.2350 H     2100  PNS2100     0.0237
     27 H313      -17.6770   -4.2680   -3.0730 H     2100  PNS2100     0.0237
     28 H312      -19.1700   -3.3290   -3.1700 H     2100  PNS2100     0.0237
     29 H311      -17.6280   -2.5100   -3.3180 H     2100  PNS2100     0.0237
     30  H32      -19.1060   -3.7640    0.4960 H     2100  PNS2100     0.0696
     31  H33      -20.2750   -4.5190   -1.9460 H     2100  PNS2100     0.2105
     32  H36      -18.3240   -5.2720    1.5320 H     2100  PNS2100     0.1488
     33 H372      -17.5810   -7.4460    2.0780 H     2100  PNS2100     0.0467
     34 H371      -17.7020   -7.9100    0.3820 H     2100  PNS2100     0.0467
     35 H382      -15.7630   -5.7740    0.6400 H     2100  PNS2100     0.0374
     36 H381      -15.3920   -6.9900    1.8650 H     2100  PNS2100     0.0374
     37  H41      -16.7850   -7.8020   -1.2760 H     2100  PNS2100     0.1487
     38 H422      -14.2800   -9.1330   -2.1970 H     2100  PNS2100     0.0470
     39 H421      -15.9360   -9.5240   -2.6630 H     2100  PNS2100     0.0470
     40 H431      -15.8710   -6.8940   -3.3500 H     2100  PNS2100     0.0400
     41 H432      -14.1770   -7.3080   -3.5620 H     2100  PNS2100     0.0400
@<TRIPOS>BOND
     1    21    20    1
     2    41    20    1
     3    20    40    1
     4    20    19    1
     5    29     8    1
     6    28     8    1
     7    27     8    1
     8     8     6    1
     9    39    19    1
    10    19    38    1
    11    19    18    1
    12    31    10    1
    13    22     5    1
    14    12    11    2
    15    24     7    1
    16     6     5    1
    17     6     7    1
    18     6     9    1
    19    37    18    1
    20    26     7    1
    21    18    16   am
    22    23     5    1
    23    10     9    1
    24     5     4    1
    25     7    25    1
    26     9    11    1
    27     9    30    1
    28    11    13   am
    29    16    17    2
    30    16    15    1
    31     4     1    1
    32    34    14    1
    33    35    15    1
    34    13    14    1
    35    13    32    1
    36    15    14    1
    37    15    36    1
    38    14    33    1
    39     1     2    1
    40     1     3    1
