@<TRIPOS>MOLECULE
2ljc_RIM_A_1.pdb
 34 36 0 0 0
SMALL
GASTEIGER

@<TRIPOS>ATOM
      1  CA        91.0100    4.6140   -7.1450 C.3     1  RIM1       -0.0494
      2  CB        90.4960    3.4470   -6.2930 C.3     1  RIM1        0.0077
      3  NC        91.6330    2.5210   -6.0290 N.3     1  RIM1       -0.3270
      4  CD        89.8970    3.9290   -4.9400 C.3     1  RIM1       -0.0136
      5  CE1       89.8560    2.7390   -3.9900 C.3     1  RIM1       -0.0431
      6  CE2       88.4640    4.3940   -5.1480 C.3     1  RIM1       -0.0431
      7  CE3       90.7240    5.0680   -4.3320 C.3     1  RIM1       -0.0431
      8  CF1       89.2540    3.1430   -2.6470 C.3     1  RIM1       -0.0400
      9  CF2       87.8510    4.8620   -3.8160 C.3     1  RIM1       -0.0400
     10  CF3       90.1440    5.4570   -2.9720 C.3     1  RIM1       -0.0400
     11  CG1       87.8290    3.6700   -2.8540 C.3     1  RIM1       -0.0473
     12  CG2       88.7190    5.9630   -3.1920 C.3     1  RIM1       -0.0473
     13  CG3       90.1160    4.2430   -2.0440 C.3     1  RIM1       -0.0473
     14  HA1       91.2230    4.2590   -8.1410 H       1  RIM1        0.0245
     15  HA2       91.9130    5.0060   -6.7050 H       1  RIM1        0.0245
     16  HA3       90.2650    5.3910   -7.1970 H       1  RIM1        0.0245
     17  HB        89.7370    2.9150   -6.8510 H       1  RIM1        0.0461
     18 HNC1       92.0820    2.5330   -5.1590 H       1  RIM1        0.1185
     19 HNC2       91.9630    1.9360   -6.7440 H       1  RIM1        0.1185
     20 HE11       90.8560    2.3640   -3.8310 H       1  RIM1        0.0274
     21 HE12       89.2470    1.9750   -4.4350 H       1  RIM1        0.0274
     22 HE21       87.8940    3.5700   -5.5390 H       1  RIM1        0.0274
     23 HE22       88.4550    5.1910   -5.8430 H       1  RIM1        0.0274
     24 HE31       90.6870    5.9320   -4.9760 H       1  RIM1        0.0274
     25 HE32       91.7390    4.7470   -4.2210 H       1  RIM1        0.0274
     26  HF1       89.2420    2.2690   -1.9860 H       1  RIM1        0.0301
     27  HF2       86.8240    5.2490   -3.9910 H       1  RIM1        0.0301
     28  HF3       90.7550    6.2440   -2.5240 H       1  RIM1        0.0301
     29 HG11       87.2200    2.8770   -3.2780 H       1  RIM1        0.0271
     30 HG12       87.4330    4.0000   -1.8940 H       1  RIM1        0.0271
     31 HG21       88.7500    6.8130   -3.8680 H       1  RIM1        0.0271
     32 HG22       88.2950    6.2430   -2.2310 H       1  RIM1        0.0271
     33 HG31       91.1310    3.8690   -1.9220 H       1  RIM1        0.0271
     34 HG32       89.6900    4.5390   -1.0860 H       1  RIM1        0.0271
@<TRIPOS>BOND
     1    14     1    1
     2    16     1    1
     3     1    15    1
     4     1     2    1
     5    17     2    1
     6    19     3    1
     7     2     3    1
     8     2     4    1
     9     3    18    1
    10    23     6    1
    11    22     6    1
    12     6     4    1
    13     6     9    1
    14    24     7    1
    15     4     7    1
    16     4     5    1
    17    21     5    1
    18     7    25    1
    19     7    10    1
    20    27     9    1
    21     5    20    1
    22     5     8    1
    23    31    12    1
    24     9    12    1
    25     9    11    1
    26    29    11    1
    27    12    10    1
    28    12    32    1
    29    10    28    1
    30    10    13    1
    31    11     8    1
    32    11    30    1
    33     8    13    1
    34     8    26    1
    35    13    33    1
    36    13    34    1
