@<TRIPOS>MOLECULE
2lk1_AQN_A_1.pdb
 27 29 0 0 0
SMALL
GASTEIGER

@<TRIPOS>ATOM
      1  C1         2.0180    1.5930    7.9320 C.ar   32  AQN32      -0.0248
      2  C2         0.9010    1.9120    8.7100 C.ar   32  AQN32       0.0349
      3  C3        -0.4410    2.1610    8.0590 C.2    32  AQN32       0.1946
      4  O3        -0.5390    2.1550    6.8430 O.2    32  AQN32      -0.2866
      5  C4        -1.6610    2.4250    8.9130 C.ar   32  AQN32       0.0331
      6  C5        -2.9090    2.6280    8.3190 C.ar   32  AQN32      -0.0502
      7  C6        -4.0380    2.8450    9.1140 C.ar   32  AQN32      -0.0610
      8  C7        -3.9170    2.8680   10.5060 C.ar   32  AQN32      -0.0610
      9  C8        -2.6690    2.6790   11.1000 C.ar   32  AQN32      -0.0502
     10  C9        -1.5420    2.4630   10.3050 C.ar   32  AQN32       0.0331
     11  C10       -0.1890    2.2720   10.9510 C.2    32  AQN32       0.1945
     12  O10       -0.0820    2.3300   12.1660 O.2    32  AQN32      -0.2866
     13  C11        1.0320    2.0110   10.0970 C.ar   32  AQN32       0.0332
     14  C12        2.2900    1.8650   10.6870 C.ar   32  AQN32      -0.0484
     15  C13        3.4180    1.6450    9.8930 C.ar   32  AQN32      -0.0356
     16  C14        3.2870    1.5180    8.5100 C.ar   32  AQN32       0.0963
     17  S15        4.7330    1.3150    7.4940 S.3    32  AQN32       0.0409
     18  OS1        5.7560    0.6260    8.2560 O.3    32  AQN32      -0.0650
     19  OS2        4.3120    0.7800    6.2220 O.3    32  AQN32      -0.0650
     20  OS3        5.1740    2.7350    7.2840 O.3    32  AQN32      -0.0650
     21  H1         1.9000    1.4140    6.8670 H      32  AQN32       0.0644
     22  H5        -3.0150    2.6180    7.2400 H      32  AQN32       0.0625
     23  H6        -5.0060    2.9960    8.6520 H      32  AQN32       0.0618
     24  H7        -4.7920    3.0310   11.1250 H      32  AQN32       0.0618
     25  H8        -2.5870    2.7080   12.1820 H      32  AQN32       0.0625
     26  H12        2.4020    1.9250   11.7620 H      32  AQN32       0.0625
     27  H13        4.3960    1.5700   10.3560 H      32  AQN32       0.0637
@<TRIPOS>BOND
     1    19    17    1
     2     4     3    2
     3    21     1    1
     4    22     6    1
     5    20    17    1
     6    17    18    1
     7    17    16    1
     8     1    16   ar
     9     1     2   ar
    10     3     2    1
    11     3     5    1
    12     6     5   ar
    13     6     7   ar
    14    16    15   ar
    15    23     7    1
    16     2    13   ar
    17     5    10   ar
    18     7     8   ar
    19    15    27    1
    20    15    14   ar
    21    13    14   ar
    22    13    11    1
    23    10    11    1
    24    10     9   ar
    25     8     9   ar
    26     8    24    1
    27    14    26    1
    28    11    12    2
    29     9    25    1
