@<TRIPOS>MOLECULE
2lkd_GDP_A_1.pdb
 40 42 0 0 0
SMALL
GASTEIGER

@<TRIPOS>ATOM
      1  PB        -8.7540   -3.2450   15.2630 P.3   179  GDP179      0.5373
      2  O1B       -8.5760   -4.6410   15.7640 O.3   179  GDP179     -0.1143
      3  O2B      -10.0510   -3.0330   14.4980 O.2   179  GDP179     -0.2221
      4  O3B       -7.5190   -2.6350   14.5680 O.3   179  GDP179     -0.1143
      5  O3A       -8.9460   -2.3350   16.6480 O.3   179  GDP179     -0.2261
      6  PA        -9.8040   -1.0480   16.9040 P.3   179  GDP179      0.2224
      7  O1A      -10.3600   -1.0240   18.2780 O.3   179  GDP179     -0.4370
      8  O2A      -10.7480   -0.7380   15.7650 O.2   179  GDP179     -0.5170
      9  O5'       -8.6610    0.0830   16.8170 O.3   179  GDP179     -0.3245
     10  C5'       -7.4120   -0.1060   17.4770 C.3   179  GDP179      0.0836
     11  C4'       -6.7580    1.2230   17.7770 C.3   179  GDP179      0.1131
     12  O4'       -6.3150    1.8310   16.5440 O.3   179  GDP179     -0.3474
     13  C3'       -7.6560    2.2860   18.4030 C.3   179  GDP179      0.1133
     14  O3'       -7.5720    2.2400   19.8220 O.3   179  GDP179     -0.3864
     15  C2'       -7.1310    3.6170   17.8490 C.3   179  GDP179      0.1266
     16  O2'       -6.5070    4.3920   18.8550 O.3   179  GDP179     -0.3849
     17  C1'       -6.0770    3.1910   16.8250 C.3   179  GDP179      0.1617
     18  N9        -6.1200    3.9450   15.5760 N.pl3 179  GDP179     -0.2241
     19  C8        -6.9240    3.7050   14.4910 C.2   179  GDP179      0.1451
     20  N7        -6.7280    4.5380   13.5060 N.2   179  GDP179     -0.3865
     21  C5        -5.7310    5.3860   13.9690 C.2   179  GDP179      0.2296
     22  C6        -5.0990    6.4920   13.3400 C.2   179  GDP179      0.2859
     23  O6        -5.2920    6.9510   12.2080 O.2   179  GDP179     -0.2668
     24  N1        -4.1360    7.0750   14.1600 N.am  179  GDP179     -0.2418
     25  C2        -3.8310    6.6400   15.4290 C.2   179  GDP179      0.2395
     26  N2        -2.8800    7.3290   16.0760 N.pl3 179  GDP179     -0.3206
     27  N3        -4.4110    5.6140   16.0270 N.2   179  GDP179     -0.3551
     28  C4        -5.3460    5.0340   15.2450 C.2   179  GDP179      0.2272
     29  H5'       -6.7500   -0.6970   16.8450 H     179  GDP179      0.0591
     30 H5''       -7.5690   -0.6380   18.4150 H     179  GDP179      0.0591
     31  H4'       -5.9490    1.0380   18.4840 H     179  GDP179      0.0647
     32  H3'       -8.7030    2.1190   18.1630 H     179  GDP179      0.0647
     33 HO3'       -6.9460    2.9170   20.0910 H     179  GDP179      0.2100
     34  H2'       -7.9450    4.1610   17.3640 H     179  GDP179      0.0663
     35 HO2'       -5.7430    3.8990   19.1600 H     179  GDP179      0.2101
     36  H1'       -5.0650    3.2620   17.2270 H     179  GDP179      0.0841
     37  H8        -7.6380    2.8970   14.4510 H     179  GDP179      0.1149
     38  HN1       -3.6180    7.8560   13.7850 H     179  GDP179      0.1589
     39 HN21       -2.6080    7.0600   17.0130 H     179  GDP179      0.1459
     40 HN22       -2.4370    8.1210   15.6300 H     179  GDP179      0.1459
@<TRIPOS>BOND
     1    23    22    2
     2    22    21    1
     3    22    24   am
     4    20    21    2
     5    20    19    2
     6    38    24    1
     7    21    28    1
     8    24    25    1
     9    37    19    1
    10    19    18    1
    11     3     1    2
    12     4     1    1
    13    28    18    1
    14    28    27    2
    15     1     2    1
    16     1     5    1
    17    25    27    2
    18    25    26    1
    19    18    17    1
    20    40    26    1
    21     8     6    2
    22    26    39    1
    23    12    17    1
    24    12    11    1
    25     5     6    1
    26     9     6    1
    27     9    10    1
    28    17    36    1
    29    17    15    1
    30    29    10    1
    31     6     7    1
    32    34    15    1
    33    10    11    1
    34    10    30    1
    35    11    13    1
    36    11    31    1
    37    15    13    1
    38    15    16    1
    39    32    13    1
    40    13    14    1
    41    16    35    1
    42    14    33    1
