@<TRIPOS>MOLECULE
2lki_PNS_A_1.pdb
 42 41 0 0 0
SMALL
GASTEIGER

@<TRIPOS>ATOM
      1  P24        7.0310   14.3400   10.0010 P.3    84  PNS84       0.3935
      2  O25        8.1870   13.6630   10.6060 O.3    84  PNS84      -0.1425
      3  O26        6.1520   15.1100   10.9080 O.3    84  PNS84      -0.1425
      4  O27        7.5270   15.3280    8.8220 O.3    84  PNS84      -0.3080
      5  C28        8.4670   14.9740    7.7870 C.3    84  PNS84       0.0644
      6  C29        7.8580   14.1150    6.5910 C.3    84  PNS84       0.0234
      7  C30        6.3280   14.4070    6.4180 C.3    84  PNS84      -0.0549
      8  C31        8.0430   12.6000    6.9040 C.3    84  PNS84      -0.0549
      9  C32        8.6320   14.4830    5.2440 C.3    84  PNS84       0.1380
     10  O33        9.9900   14.0150    5.3080 O.3    84  PNS84      -0.3820
     11  C34        7.9440   13.8780    4.0000 C.2    84  PNS84       0.2423
     12  O35        7.2350   14.5870    3.2770 O.2    84  PNS84      -0.2730
     13  N36        8.1870   12.5900    3.7300 N.am   84  PNS84      -0.3127
     14  C37        7.5710   11.8960    2.5790 C.3    84  PNS84       0.0199
     15  C38        6.0930   11.5760    2.8810 C.3    84  PNS84       0.0395
     16  C39        5.3220   10.8630    1.7730 C.2    84  PNS84       0.2145
     17  O40        5.8450   10.6010    0.6780 O.2    84  PNS84      -0.2758
     18  N41        4.0590   10.5360    2.0980 N.am   84  PNS84      -0.3145
     19  C42        3.1380    9.8480    1.1870 C.3    84  PNS84       0.0204
     20  C43        1.9290    9.2990    1.9290 C.3    84  PNS84       0.0063
     21  S44        0.9840   10.5840    2.7720 S.3    84  PNS84      -0.1767
     22 H282        8.8620   15.9040    7.3970 H      84  PNS84       0.0571
     23 H281        9.2910   14.4290    8.2460 H      84  PNS84       0.0571
     24 H303        5.8280   14.3080    7.3750 H      84  PNS84       0.0237
     25 H302        6.1820   15.4090    6.0470 H      84  PNS84       0.0237
     26 H301        5.8900   13.6960    5.7160 H      84  PNS84       0.0237
     27 H313        7.5490   12.3510    7.8370 H      84  PNS84       0.0237
     28 H312        7.6140   12.0020    6.1100 H      84  PNS84       0.0237
     29 H311        9.1000   12.3640    6.9840 H      84  PNS84       0.0237
     30  H32        8.6510   15.5620    5.1340 H      84  PNS84       0.0696
     31  H33       10.5470   14.5710    4.7490 H      84  PNS84       0.2105
     32  H36        8.7950   12.0840    4.3110 H      84  PNS84       0.1488
     33 H372        7.6360   12.5230    1.6970 H      84  PNS84       0.0467
     34 H371        8.1040   10.9690    2.4040 H      84  PNS84       0.0467
     35 H382        6.0500   10.9530    3.7660 H      84  PNS84       0.0374
     36 H381        5.5820   12.5120    3.0950 H      84  PNS84       0.0374
     37  H41        3.7290   10.7650    2.9930 H      84  PNS84       0.1487
     38 H422        2.7940   10.5470    0.4300 H      84  PNS84       0.0470
     39 H421        3.6560    9.0250    0.7040 H      84  PNS84       0.0470
     40 H431        2.2720    8.5880    2.6710 H      84  PNS84       0.0389
     41 H432        1.2730    8.8010    1.2260 H      84  PNS84       0.0389
     42  H44        1.5530   11.7500    2.4960 H      84  PNS84       0.1017
@<TRIPOS>BOND
     1    38    19    1
     2    17    16    2
     3    39    19    1
     4    19    20    1
     5    19    18    1
     6    41    20    1
     7    33    14    1
     8    16    18   am
     9    16    15    1
    10    20    40    1
    11    20    21    1
    12    18    37    1
    13    34    14    1
    14    42    21    1
    15    14    15    1
    16    14    13    1
    17    15    36    1
    18    15    35    1
    19    12    11    2
    20    13    11   am
    21    13    32    1
    22    11     9    1
    23    31    10    1
    24    30     9    1
    25     9    10    1
    26     9     6    1
    27    26     7    1
    28    25     7    1
    29    28     8    1
    30     7     6    1
    31     7    24    1
    32     6     8    1
    33     6     5    1
    34     8    29    1
    35     8    27    1
    36    22     5    1
    37     5    23    1
    38     5     4    1
    39     4     1    1
    40     1     2    1
    41     1     3    1
