@<TRIPOS>MOLECULE
2lko_4IP_A_1.pdb
 36 36 0 0 0
SMALL
GASTEIGER

@<TRIPOS>ATOM
      1  C1       -14.9570    4.5830   -0.1920 C.3   1228  4IP1228     0.1268
      2  O1       -15.8120    5.7310   -0.2670 O.3   1228  4IP1228    -0.2749
      3  C2       -13.5330    5.0000   -0.5750 C.3   1228  4IP1228     0.1135
      4  O2       -13.5450    5.5890   -1.8790 O.3   1228  4IP1228    -0.3864
      5  C3       -12.6040    3.7840   -0.5850 C.3   1228  4IP1228     0.1276
      6  O3       -11.2900    4.1890   -0.9890 O.3   1228  4IP1228    -0.2749
      7  C4       -13.1250    2.7280   -1.5610 C.3   1228  4IP1228     0.1284
      8  O4       -13.1600    3.2760   -2.8820 O.3   1228  4IP1228    -0.2749
      9  C5       -14.5380    2.2960   -1.1600 C.3   1228  4IP1228     0.1276
     10  O5       -15.0260    1.3180   -2.0830 O.3   1228  4IP1228    -0.2749
     11  C6       -15.4780    3.5060   -1.1500 C.3   1228  4IP1228     0.1135
     12  O6       -16.7790    3.0890   -0.7260 O.3   1228  4IP1228    -0.3864
     13  P1       -17.2090    5.7620    0.5370 P.3   1228  4IP1228     0.5323
     14  O1P      -18.3170    5.1140   -0.1990 O.2   1228  4IP1228    -0.2224
     15  O2P      -17.5010    7.3130    0.8520 O.3   1228  4IP1228    -0.1145
     16  O3P      -16.9170    5.0720    1.9610 O.3   1228  4IP1228    -0.1145
     17  P3       -10.0480    3.1790   -0.8060 P.3   1228  4IP1228     0.5323
     18  O4P       -9.8810    2.2590   -1.9540 O.2   1228  4IP1228    -0.2224
     19  O5P      -10.3110    2.4040    0.5810 O.3   1228  4IP1228    -0.1145
     20  O6P       -8.7560    4.1060   -0.5530 O.3   1228  4IP1228    -0.1145
     21  P4       -13.1650    2.2980   -4.1620 P.3   1228  4IP1228     0.5323
     22  O7P      -12.5850    2.9290   -5.3680 O.2   1228  4IP1228    -0.2224
     23  O8P      -14.6970    1.8470   -4.3700 O.3   1228  4IP1228    -0.1145
     24  O9P      -12.3730    0.9720   -3.7090 O.3   1228  4IP1228    -0.1145
     25  P5       -16.4680    0.6400   -1.8500 P.3   1228  4IP1228     0.5323
     26  OPF      -17.5690    1.4030   -2.4780 O.2   1228  4IP1228    -0.2224
     27  OPG      -16.6390    0.4990   -0.2550 O.3   1228  4IP1228    -0.1145
     28  OPH      -16.3470   -0.8630   -2.4140 O.3   1228  4IP1228    -0.1145
     29  H1       -14.9600    4.1970    0.8130 H     1228  4IP1228     0.0655
     30  H2       -13.1720    5.7180    0.1440 H     1228  4IP1228     0.0647
     31  HO2      -12.6120    5.8340   -2.1420 H     1228  4IP1228     0.2100
     32  H3       -12.5610    3.3660    0.4070 H     1228  4IP1228     0.0656
     33  H4       -12.4670    1.8760   -1.5440 H     1228  4IP1228     0.0656
     34  H5       -14.5030    1.8660   -0.1720 H     1228  4IP1228     0.0656
     35  H6       -15.5400    3.9120   -2.1460 H     1228  4IP1228     0.0647
     36  HO6      -17.4450    3.7980   -0.9500 H     1228  4IP1228     0.2100
@<TRIPOS>BOND
     1    22    21    2
     2    23    21    1
     3    21    24    1
     4    21     8    1
     5     8     7    1
     6    26    25    2
     7    28    25    1
     8    35    11    1
     9    31     4    1
    10    10    25    1
    11    10     9    1
    12    18    17    2
    13     4     3    1
    14    25    27    1
    15     7    33    1
    16     7     9    1
    17     7     5    1
    18     9    11    1
    19     9    34    1
    20    11    12    1
    21    11     1    1
    22     6    17    1
    23     6     5    1
    24    36    12    1
    25    17    20    1
    26    17    19    1
    27     5     3    1
    28     5    32    1
    29     3     1    1
    30     3    30    1
    31     2     1    1
    32     2    13    1
    33    14    13    2
    34     1    29    1
    35    13    15    1
    36    13    16    1
