@<TRIPOS>MOLECULE
2ll4_GAL_M_1.pdb
 22 22 0 0 0
SMALL
GASTEIGER

@<TRIPOS>ATOM
      1  C1         6.4020    2.7870    7.5480 C.3    83  GAL83       0.1161
      2  C2         5.3260    3.7230    7.0060 C.3    83  GAL83       0.1121
      3  C3         4.1000    2.9030    6.6420 C.3    83  GAL83       0.1118
      4  C4         4.5200    1.8890    5.5880 C.3    83  GAL83       0.1117
      5  C5         5.6250    1.0080    6.1710 C.3    83  GAL83       0.1105
      6  C6         6.1380   -0.0290    5.1870 C.3    83  GAL83       0.0729
      7  O2         4.9870    4.6960    7.9840 O.3    83  GAL83      -0.3865
      8  O3         3.0970    3.7590    6.1200 O.3    83  GAL83      -0.3865
      9  O4         5.0020    2.5730    4.4430 O.3    83  GAL83      -0.3865
     10  O5         6.7440    1.8140    6.5550 O.3    83  GAL83      -0.3631
     11  O6         7.5370    0.0990    4.9740 O.3    83  GAL83      -0.3924
     12  H1         6.0360    2.2620    8.4440 H      83  GAL83       0.0650
     13  H2         5.7050    4.1810    6.0760 H      83  GAL83       0.0647
     14  H3         3.7630    2.3580    7.5380 H      83  GAL83       0.0647
     15  H4         3.6610    1.2390    5.3500 H      83  GAL83       0.0647
     16  H5         5.2390    0.4910    7.0660 H      83  GAL83       0.0646
     17  H61        5.6700    0.1320    4.2260 H      83  GAL83       0.0584
     18  H62        5.8640   -1.0060    5.5630 H      83  GAL83       0.0584
     19  HO2        5.7420    4.7530    8.5820 H      83  GAL83       0.2100
     20  HO3        3.4150    4.6520    6.3010 H      83  GAL83       0.2100
     21  HO4        5.9640    2.4980    4.4050 H      83  GAL83       0.2100
     22  HO6        7.7020    0.2250    4.0230 H      83  GAL83       0.2095
@<TRIPOS>BOND
     1    22    11    1
     2    17     6    1
     3    21     9    1
     4     9     4    1
     5    11     6    1
     6     6    18    1
     7     6     5    1
     8    15     4    1
     9     4     5    1
    10     4     3    1
    11    13     2    1
    12     8    20    1
    13     8     3    1
    14     5    10    1
    15     5    16    1
    16    10     1    1
    17     3     2    1
    18     3    14    1
    19     2     1    1
    20     2     7    1
    21     1    12    1
    22     7    19    1
