@<TRIPOS>MOLECULE
2ll4_NAG_M_1.pdb
 29 29 0 0 0
SMALL
GASTEIGER

@<TRIPOS>ATOM
      1  C1        10.7140    3.3910    5.7870 C.3    84  NAG84       0.1778
      2  C2         9.7640    3.0310    6.9270 C.3    84  NAG84       0.1054
      3  C3         8.4830    3.8340    6.7740 C.3    84  NAG84       0.1448
      4  C4         8.8460    5.3070    6.8020 C.3    84  NAG84       0.1145
      5  C5         9.8190    5.5930    5.6600 C.3    84  NAG84       0.1131
      6  C6        10.2590    7.0430    5.6130 C.3    84  NAG84       0.0730
      7  C7        10.0440    0.7530    7.7040 C.2    84  NAG84       0.2104
      8  C8         9.5950   -0.6790    7.5950 C.3    84  NAG84       0.0122
      9  N2         9.4600    1.6150    6.8880 N.am   84  NAG84      -0.3052
     10  O1        11.9400    2.6930    5.9460 O.3    84  NAG84      -0.3654
     11  O3         7.5870    3.5380    7.8630 O.3    84  NAG84      -0.2263
     12  O4         7.6720    6.0900    6.6470 O.3    84  NAG84      -0.3864
     13  O5        11.0010    4.7940    5.8080 O.3    84  NAG84      -0.3414
     14  O6        11.1020    7.2920    4.5020 O.3    84  NAG84      -0.3924
     15  O7        10.9020    1.0850    8.5240 O.2    84  NAG84      -0.2761
     16  H1        10.2400    3.1430    4.8270 H      84  NAG84       0.0928
     17  H2        10.2330    3.3160    7.8800 H      84  NAG84       0.0576
     18  H3         8.0350    3.5840    5.7940 H      84  NAG84       0.0675
     19  H4         9.3500    5.5110    7.7610 H      84  NAG84       0.0648
     20  H5         9.3360    5.3250    4.7120 H      84  NAG84       0.0647
     21  H61       10.8320    7.2590    6.5020 H      84  NAG84       0.0584
     22  H62        9.3670    7.6510    5.6010 H      84  NAG84       0.0584
     23  H81       10.4580   -1.3180    7.4730 H      84  NAG84       0.0322
     24  H82        9.0650   -0.9580    8.4930 H      84  NAG84       0.0322
     25  H83        8.9420   -0.7880    6.7410 H      84  NAG84       0.0322
     26  HN2        8.7840    1.2900    6.2470 H      84  NAG84       0.1492
     27  HO1       12.1360    2.2180    5.1340 H      84  NAG84       0.2125
     28  HO4        7.2530    6.1450    7.5130 H      84  NAG84       0.2100
     29  HO6       11.2210    8.2440    4.3960 H      84  NAG84       0.2095
@<TRIPOS>BOND
     1    29    14    1
     2    14     6    1
     3    20     5    1
     4    16     1    1
     5    27    10    1
     6    22     6    1
     7     6     5    1
     8     6    21    1
     9     5    13    1
    10     5     4    1
    11     1    13    1
    12     1    10    1
    13     1     2    1
    14    18     3    1
    15    26     9    1
    16    12     4    1
    17    12    28    1
    18    25     8    1
    19     3     4    1
    20     3     2    1
    21     3    11    1
    22     4    19    1
    23     9     2    1
    24     9     7   am
    25     2    17    1
    26    23     8    1
    27     8     7    1
    28     8    24    1
    29     7    15    2
