@<TRIPOS>MOLECULE
2ll8_PNS_A_1.pdb
 42 41 0 0 0
SMALL
GASTEIGER

@<TRIPOS>ATOM
      1  P24       14.5200   10.3980    1.4230 P.3   102  PNS102      0.3935
      2  O25       14.6160   10.1840   -0.0260 O.3   102  PNS102     -0.1425
      3  O26       14.7120    9.2220    2.2930 O.3   102  PNS102     -0.1425
      4  O27       15.5100   11.5800    1.9140 O.3   102  PNS102     -0.3080
      5  C28       15.3290   12.9890    1.6150 C.3   102  PNS102      0.0644
      6  C29       15.6910   13.4210    0.1310 C.3   102  PNS102      0.0234
      7  C30       14.4740   13.1750   -0.8260 C.3   102  PNS102     -0.0549
      8  C31       16.9210   12.5880   -0.3490 C.3   102  PNS102     -0.0549
      9  C32       16.0130   14.9800    0.1340 C.3   102  PNS102      0.1380
     10  O33       17.1830   15.2340    0.9390 O.3   102  PNS102     -0.3820
     11  C34       16.2410   15.5670   -1.2870 C.2   102  PNS102      0.2423
     12  O35       15.4160   16.3440   -1.7880 O.2   102  PNS102     -0.2730
     13  N36       17.3710   15.2020   -1.9090 N.am  102  PNS102     -0.3127
     14  C37       17.7350   15.6730   -3.2540 C.3   102  PNS102      0.0199
     15  C38       19.1140   15.1690   -3.6930 C.3   102  PNS102      0.0395
     16  C39       19.5910   15.7790   -5.0160 C.2   102  PNS102      0.2145
     17  O40       19.9140   15.0610   -5.9700 O.2   102  PNS102     -0.2758
     18  N41       19.6390   17.1180   -5.0580 N.am  102  PNS102     -0.3145
     19  C42       20.0620   17.8680   -6.2540 C.3   102  PNS102      0.0204
     20  C43       20.0080   19.3690   -6.0100 C.3   102  PNS102      0.0063
     21  S44       18.3610   19.9090   -5.5150 S.3   102  PNS102     -0.1767
     22 H282       14.2950   13.2510    1.8240 H     102  PNS102      0.0571
     23 H281       15.9560   13.5470    2.3060 H     102  PNS102      0.0571
     24 H303       14.7290   13.4950   -1.8330 H     102  PNS102      0.0237
     25 H302       14.2170   12.1240   -0.8410 H     102  PNS102      0.0237
     26 H301       13.6170   13.7430   -0.4820 H     102  PNS102      0.0237
     27 H313       17.1780   12.8590   -1.3670 H     102  PNS102      0.0237
     28 H312       17.7700   12.7840    0.2930 H     102  PNS102      0.0237
     29 H311       16.6870   11.5280   -0.3090 H     102  PNS102      0.0237
     30  H32       15.1790   15.5060    0.5900 H     102  PNS102      0.0696
     31  H33       17.9200   15.4740    0.3690 H     102  PNS102      0.2105
     32  H36       17.9870   14.5920   -1.4560 H     102  PNS102      0.1488
     33 H372       16.9900   15.3160   -3.9600 H     102  PNS102      0.0467
     34 H371       17.7370   16.7600   -3.2590 H     102  PNS102      0.0467
     35 H382       19.8410   15.4160   -2.9240 H     102  PNS102      0.0374
     36 H381       19.0740   14.0900   -3.7980 H     102  PNS102      0.0374
     37  H41       19.3700   17.6290   -4.2620 H     102  PNS102      0.1487
     38 H422       21.0820   17.5870   -6.5100 H     102  PNS102      0.0470
     39 H421       19.4040   17.6230   -7.0750 H     102  PNS102      0.0470
     40 H431       20.2670   19.8950   -6.9180 H     102  PNS102      0.0389
     41 H432       20.7000   19.6350   -5.2210 H     102  PNS102      0.0389
     42  H44       17.6100   20.0120   -6.6060 H     102  PNS102      0.1017
@<TRIPOS>BOND
     1    39    19    1
     2    40    20    1
     3    42    21    1
     4    38    19    1
     5    19    20    1
     6    19    18    1
     7    20    21    1
     8    20    41    1
     9    17    16    2
    10    18    16   am
    11    18    37    1
    12    16    15    1
    13    33    14    1
    14    36    15    1
    15    15    14    1
    16    15    35    1
    17    34    14    1
    18    14    13    1
    19    13    32    1
    20    13    11   am
    21    24     7    1
    22    12    11    2
    23    27     8    1
    24    11     9    1
    25    25     7    1
    26     7    26    1
    27     7     6    1
    28     8    29    1
    29     8     6    1
    30     8    28    1
    31     2     1    1
    32     6     9    1
    33     6     5    1
    34     9    30    1
    35     9    10    1
    36    31    10    1
    37     1     4    1
    38     1     3    1
    39     5    22    1
    40     5     4    1
    41     5    23    1
