@<TRIPOS>MOLECULE
2lml_PNS_A_1.pdb
 42 41 0 0 0
SMALL
GASTEIGER

@<TRIPOS>ATOM
      1  P24       10.3440   11.9680  -10.3250 P.3    88  PNS88       0.3935
      2  O25       10.7300   11.1520  -11.4880 O.3    88  PNS88      -0.1425
      3  O26       10.3810   13.4450  -10.4790 O.3    88  PNS88      -0.1425
      4  O27        8.9320   11.4750   -9.7370 O.3    88  PNS88      -0.3080
      5  C28        7.6940   11.6340  -10.4230 C.3    88  PNS88       0.0644
      6  C29        6.7060   10.4920  -10.0060 C.3    88  PNS88       0.0234
      7  C30        5.3030   10.7810  -10.5970 C.3    88  PNS88      -0.0549
      8  C31        6.5800   10.4700   -8.4590 C.3    88  PNS88      -0.0549
      9  C32        7.2830    9.0940  -10.5300 C.3    88  PNS88       0.1380
     10  O33        8.5270    8.7890   -9.8710 O.3    88  PNS88      -0.3820
     11  C34        6.3240    7.9090  -10.3050 C.2    88  PNS88       0.2423
     12  O35        6.5480    7.0910   -9.4050 O.2    88  PNS88      -0.2730
     13  N36        5.2780    7.8220  -11.1470 N.am   88  PNS88      -0.3127
     14  C37        4.2590    6.7750  -11.0920 C.3    88  PNS88       0.0199
     15  C38        3.4870    6.7990   -9.7770 C.3    88  PNS88       0.0395
     16  C39        2.7230    8.0970   -9.4780 C.2    88  PNS88       0.2145
     17  O40        2.6180    8.9970  -10.3200 O.2    88  PNS88      -0.2758
     18  N41        2.1440    8.1470   -8.2710 N.am   88  PNS88      -0.3145
     19  C42        1.3710    9.3010   -7.7870 C.3    88  PNS88       0.0204
     20  C43        0.4000    8.8890   -6.6840 C.3    88  PNS88       0.0063
     21  S44        1.2440    8.1180   -5.2980 S.3    88  PNS88      -0.1767
     22 H282        7.2780   12.6020  -10.1500 H      88  PNS88       0.0571
     23 H281        7.8570   11.6060  -11.4960 H      88  PNS88       0.0571
     24 H303        4.5900   10.0630  -10.1870 H      88  PNS88       0.0237
     25 H302        4.9840   11.7830  -10.3320 H      88  PNS88       0.0237
     26 H301        5.3260   10.6850  -11.6730 H      88  PNS88       0.0237
     27 H313        6.2000   11.4220   -8.1020 H      88  PNS88       0.0237
     28 H312        5.8930    9.6860   -8.1580 H      88  PNS88       0.0237
     29 H311        7.5490   10.2810   -8.0140 H      88  PNS88       0.0237
     30  H32        7.4780    9.1710  -11.5930 H      88  PNS88       0.0696
     31  H33        8.3360    8.3320   -9.0410 H      88  PNS88       0.2105
     32  H36        5.1670    8.5050  -11.8210 H      88  PNS88       0.1488
     33 H372        3.5650    6.9210  -11.9120 H      88  PNS88       0.0467
     34 H371        4.7400    5.8070  -11.1990 H      88  PNS88       0.0467
     35 H382        2.7780    5.9840   -9.7780 H      88  PNS88       0.0374
     36 H381        4.2000    6.6410   -8.9820 H      88  PNS88       0.0374
     37  H41        2.2400    7.3790   -7.6750 H      88  PNS88       0.1487
     38 H422        2.0570   10.0450   -7.3970 H      88  PNS88       0.0470
     39 H421        0.8070    9.7300   -8.6100 H      88  PNS88       0.0470
     40 H431       -0.3050    8.1720   -7.0850 H      88  PNS88       0.0389
     41 H432       -0.1380    9.7540   -6.3250 H      88  PNS88       0.0389
     42  H44        2.1160    8.9870   -4.8190 H      88  PNS88       0.1017
@<TRIPOS>BOND
     1    33    14    1
     2    32    13    1
     3    26     7    1
     4    30     9    1
     5    23     5    1
     6     2     1    1
     7    34    14    1
     8    13    14    1
     9    13    11   am
    10    14    15    1
    11     7    25    1
    12     7    24    1
    13     7     6    1
    14     9    11    1
    15     9     6    1
    16     9    10    1
    17     3     1    1
    18     5    22    1
    19     5     6    1
    20     5     4    1
    21     1     4    1
    22    17    16    2
    23    11    12    2
    24     6     8    1
    25    10    31    1
    26    35    15    1
    27    15    16    1
    28    15    36    1
    29    16    18   am
    30    39    19    1
    31     8    28    1
    32     8    27    1
    33     8    29    1
    34    18    19    1
    35    18    37    1
    36    19    38    1
    37    19    20    1
    38    40    20    1
    39    20    41    1
    40    20    21    1
    41    21    42    1
