@<TRIPOS>MOLECULE
2lms_A2G_A_1.pdb
 28 28 0 0 0
SMALL
GASTEIGER

@<TRIPOS>ATOM
      1  O         -5.3620   -2.4290   10.8730 O.3   500  A2G500     -0.3639
      2  C1        -5.8750   -2.2470    9.5670 C.3   500  A2G500      0.1078
      3  C2        -7.4010   -1.9640    9.5490 C.3   500  A2G500      0.0801
      4  N2        -7.8150   -1.7760    8.1380 N.am  500  A2G500     -0.3075
      5  C3        -7.7030   -0.7680   10.4820 C.3   500  A2G500      0.1043
      6  O3        -9.0970   -0.6180   10.7990 O.3   500  A2G500     -0.3872
      7  C4        -7.0070   -0.9350   11.8460 C.3   500  A2G500      0.1110
      8  O4        -7.6440   -1.9810   12.5390 O.3   500  A2G500     -0.3865
      9  C5        -5.5240   -1.2740   11.7100 C.3   500  A2G500      0.1104
     10  C6        -5.0350   -1.6670   13.0990 C.3   500  A2G500      0.0729
     11  O6        -5.2000   -0.6720   13.9120 O.3   500  A2G500     -0.3924
     12  C7        -8.3560   -0.6200    7.6370 C.2   500  A2G500      0.2103
     13  O7        -9.5330   -0.3070    7.7810 O.2   500  A2G500     -0.2761
     14  C8        -7.3800    0.2520    6.8950 C.3   500  A2G500      0.0122
     15  H1        -5.7140   -3.0470    9.0830 H     500  A2G500      0.0642
     16  H2        -7.9540   -2.8450    9.9050 H     500  A2G500      0.0551
     17  HN2       -8.1690   -2.6300    7.7160 H     500  A2G500      0.1491
     18  H3        -7.3970    0.1720   10.0100 H     500  A2G500      0.0639
     19  HO3       -9.5420   -0.2320   10.0120 H     500  A2G500      0.2100
     20  H4        -7.1370   -0.1500   12.3630 H     500  A2G500      0.0646
     21  HO4       -8.3330   -1.6200   13.1030 H     500  A2G500      0.2100
     22  H5        -4.9930   -0.5400   11.4300 H     500  A2G500      0.0646
     23  H6        -3.9770   -1.9270   13.0520 H     500  A2G500      0.0584
     24  H8        -7.0390   -0.2750    6.0000 H     500  A2G500      0.0322
     25  H8A       -6.5130    0.5040    7.5120 H     500  A2G500      0.0322
     26  H8B       -7.8760    1.1820    6.6090 H     500  A2G500      0.0322
     27  H14       -5.6040   -2.5250   13.4570 H     500  A2G500      0.0584
     28  H15       -4.7670    0.1670   13.7370 H     500  A2G500      0.2095
@<TRIPOS>BOND
     1    24    14    1
     2    26    14    1
     3    14    25    1
     4    14    12    1
     5    12    13    2
     6    12     4   am
     7    17     4    1
     8     4     3    1
     9    15     2    1
    10     3     2    1
    11     3    16    1
    12     3     5    1
    13     2     1    1
    14    18     5    1
    15    19     6    1
    16     5     6    1
    17     5     7    1
    18     1     9    1
    19    22     9    1
    20     9     7    1
    21     9    10    1
    22     7    20    1
    23     7     8    1
    24     8    21    1
    25    23    10    1
    26    10    27    1
    27    10    11    1
    28    28    11    1
