@<TRIPOS>MOLECULE
2lpr_III_P_1.pdb
 25 25 0 0 0
SMALL
GASTEIGER

@<TRIPOS>ATOM
      1  N         13.8500   42.1190   18.2540 N.3     4  ALA4        0.0000
      2  CA        14.3830   40.7440   18.0810 C.3     4  ALA4        0.0000
      3  C         13.5040   39.5640   18.4510 C.2     4  ALA4        0.0000
      4  O         12.7700   39.5060   19.4720 O.2     4  ALA4        0.0000
      5  CB        15.6840   40.6310   18.8650 C.3     4  ALA4        0.0000
      6  N         13.5890   38.5620   17.5900 N.am    3  ALA3        0.0000
      7  CA        12.8050   37.3080   17.7720 C.3     3  ALA3        0.0000
      8  C         13.7030   36.1490   17.3620 C.2     3  ALA3        0.0000
      9  O         14.5170   36.3700   16.4740 O.2     3  ALA3        0.0000
     10  CB        11.5940   37.3810   16.8660 C.3     3  ALA3        0.0000
     11  N         13.4980   35.0050   17.9720 N.am    2  PRO2        0.0000
     12  CA        14.2260   33.7990   17.6290 C.3     2  PRO2        0.0000
     13  C         13.8980   33.3970   16.1940 C.2     2  PRO2        0.0000
     14  O         12.7440   33.5680   15.7620 O.2     2  PRO2        0.0000
     15  CB        13.5810   32.6990   18.4880 C.3     2  PRO2        0.0000
     16  CG        12.7760   33.3970   19.5080 C.3     2  PRO2        0.0000
     17  CD        12.4820   34.7900   19.0110 C.3     2  PRO2        0.0000
     18  N         14.8430   32.8070   15.4680 N.am    1  VAL1        0.0000
     19  CA        14.6410   32.3200   14.0880 C.3     1  VAL1        0.0000
     20  CB        15.4800   33.1350   13.0840 C.3     1  VAL1        0.0000
     21  CG1       14.9250   34.5250   12.9390 C.3     1  VAL1        0.0000
     22  CG2       16.9790   33.2090   13.3780 C.3     1  VAL1        0.0000
     23  B         14.9130   30.7900   14.0650 B       1  VAL1        0.0000
     24  O1        14.8860   30.1920   12.7180 O.3     1  VAL1        0.0000
     25  O2        14.0130   30.0760   15.0060 O.3     1  VAL1        0.0000
@<TRIPOS>BOND
     1    24    23    1
     2    21    20    1
     3    20    22    1
     4    20    19    1
     5    23    19    1
     6    23    25    1
     7    19    18    1
     8    18    13   am
     9    14    13    2
    10    13    12    1
    11     9     8    2
    12    10     7    1
    13     8     7    1
    14     8    11   am
    15     6     7    1
    16     6     3   am
    17    12    11    1
    18    12    15    1
    19    11    17    1
    20     2     1    1
    21     2     3    1
    22     2     5    1
    23     3     4    2
    24    15    16    1
    25    17    16    1
