@<TRIPOS>MOLECULE
2lrr_DGP_A_1.pdb
 34 36 0 0 0
SMALL
GASTEIGER

@<TRIPOS>ATOM
      1  P         27.2860   -2.5290  -23.1800 P.3   801  DGP801      0.5320
      2  OP1       26.8230   -3.6140  -22.2750 O.3   801  DGP801     -0.1145
      3  OP2       28.2900   -2.8410  -24.2290 O.2   801  DGP801     -0.2224
      4  OP3       27.8440   -1.3350  -22.2850 O.3   801  DGP801     -0.1145
      5  O5'       26.0090   -1.8850  -23.8780 O.3   801  DGP801     -0.2809
      6  C5'       24.6940   -2.3370  -23.5560 C.3   801  DGP801      0.0880
      7  C4'       23.8400   -1.1940  -23.0560 C.3   801  DGP801      0.1139
      8  O4'       23.7570   -1.2690  -21.6170 O.3   801  DGP801     -0.3500
      9  C3'       24.3580    0.2070  -23.3930 C.3   801  DGP801      0.1259
     10  O3'       23.4030    0.9150  -24.1890 O.3   801  DGP801     -0.2282
     11  C2'       24.5560    0.8940  -22.0510 C.3   801  DGP801      0.0226
     12  C1'       23.7880    0.0320  -21.0610 C.3   801  DGP801      0.1361
     13  N9        24.4050   -0.0650  -19.7450 N.pl3 801  DGP801     -0.2266
     14  C8        25.6950   -0.4400  -19.4720 C.2   801  DGP801      0.1450
     15  N7        25.9830   -0.4260  -18.2000 N.2   801  DGP801     -0.3865
     16  C5        24.8040   -0.0190  -17.5880 C.2   801  DGP801      0.2296
     17  C6        24.5090    0.1800  -16.2140 C.2   801  DGP801      0.2859
     18  O6        25.2560    0.0400  -15.2380 O.2   801  DGP801     -0.2668
     19  N1        23.1930    0.5930  -16.0210 N.am  801  DGP801     -0.2418
     20  C2        22.2840    0.7890  -17.0330 C.2   801  DGP801      0.2395
     21  N2        21.0600    1.1750  -16.6450 N.pl3 801  DGP801     -0.3206
     22  N3        22.5450    0.6100  -18.3200 N.2   801  DGP801     -0.3551
     23  C4        23.8170    0.2080  -18.5250 C.2   801  DGP801      0.2271
     24  H5'       24.7540   -3.0990  -22.7770 H     801  DGP801      0.0592
     25 H5''       24.2290   -2.7680  -24.4410 H     801  DGP801      0.0592
     26  H4'       22.8700   -1.2840  -23.5420 H     801  DGP801      0.0647
     27  H3'       25.2930    0.1450  -23.9450 H     801  DGP801      0.0656
     28  H2'       25.6120    0.9710  -21.7970 H     801  DGP801      0.0334
     29 H2''       24.1450    1.9040  -22.0620 H     801  DGP801      0.0334
     30  H1'       22.7620    0.3800  -20.9490 H     801  DGP801      0.0814
     31  H8        26.4030   -0.7240  -20.2390 H     801  DGP801      0.1149
     32  HN1       22.8890    0.7650  -15.0750 H     801  DGP801      0.1589
     33 HN21       20.3350    1.3310  -17.3280 H     801  DGP801      0.1459
     34 HN22       20.8610    1.3080  -15.6640 H     801  DGP801      0.1459
@<TRIPOS>BOND
     1    25     6    1
     2     3     1    2
     3    10     9    1
     4    27     9    1
     5     5     6    1
     6     5     1    1
     7     6     7    1
     8     6    24    1
     9    26     7    1
    10     9     7    1
    11     9    11    1
    12     1     4    1
    13     1     2    1
    14     7     8    1
    15    29    11    1
    16    11    28    1
    17    11    12    1
    18     8    12    1
    19    12    30    1
    20    12    13    1
    21    31    14    1
    22    13    14    1
    23    13    23    1
    24    14    15    2
    25    23    22    2
    26    23    16    1
    27    22    20    2
    28    15    16    2
    29    16    17    1
    30    33    21    1
    31    20    21    1
    32    20    19    1
    33    21    34    1
    34    17    19   am
    35    17    18    2
    36    19    32    1
