@<TRIPOS>MOLECULE
2ltq_UQ1_A_1.pdb
 18 18 0 0 0
SMALL
GASTEIGER

@<TRIPOS>ATOM
      1  C1       -53.7730   -1.1920  -89.6790 C.2   201  UQ1201      0.2285
      2  O1       -53.1710   -0.7580  -90.6820 O.2   201  UQ1201     -0.2835
      3  C2       -53.1020   -1.0780  -88.3590 C.2   201  UQ1201      0.2140
      4  O2       -51.8580   -0.5130  -88.2750 O.2   201  UQ1201     -0.4652
      5  CM2      -50.6940   -1.3120  -88.4810 C.3   201  UQ1201      0.2528
      6  C3       -53.7750   -1.5800  -87.1370 C.2   201  UQ1201      0.2140
      7  O3       -53.1380   -1.4640  -85.9310 O.2   201  UQ1201     -0.4652
      8  CM3      -52.4500   -2.5700  -85.3520 C.3   201  UQ1201      0.2528
      9  C4       -55.1280   -2.1970  -87.2320 C.2   201  UQ1201      0.2282
     10  O4       -55.6910   -2.6290  -86.2020 O.2   201  UQ1201     -0.2836
     11  C5       -55.8050   -2.3130  -88.5550 C.2   201  UQ1201      0.0198
     12  CM5      -57.1700   -2.9460  -88.6190 C.3   201  UQ1201      0.0343
     13  C6       -55.1330   -1.8080  -89.7950 C.2   201  UQ1201      0.0235
     14  C7       -55.8160   -1.9290  -91.1500 C.3   201  UQ1201      0.0548
     15  C8       -56.0920   -0.5620  -91.7520 C.2   201  UQ1201     -0.0298
     16  C9       -56.5780   -0.3710  -92.9900 C.2   201  UQ1201     -0.0475
     17  C10      -56.8120    1.0270  -93.4890 C.3   201  UQ1201      0.0260
     18  C11      -56.8880   -1.5410  -93.8780 C.3   201  UQ1201      0.0260
@<TRIPOS>BOND
     1    18    16    1
     2    17    16    1
     3    16    15    2
     4    15    14    1
     5    14    13    1
     6     2     1    2
     7    13     1    1
     8    13    11    2
     9     1     3    1
    10    12    11    1
    11    11     9    1
    12     5     4    1
    13     3     4    1
    14     3     6    2
    15     9     6    1
    16     9    10    2
    17     6     7    1
    18     7     8    1
