@<TRIPOS>MOLECULE
2lxy_HTS_A_1.pdb
 13 13 0 0 0
SMALL
GASTEIGER

@<TRIPOS>ATOM
      1  C6         7.9580    2.6500    2.9470 C.ar  101  HTS101     -0.0191
      2  C1         6.7580    2.0150    2.7100 C.ar  101  HTS101      0.1310
      3  C2         6.7260    0.7790    2.0740 C.ar  101  HTS101      0.0603
      4  C3         7.9150    0.1880    1.6780 C.ar  101  HTS101     -0.0440
      5  C4         9.1200    0.8210    1.9130 C.ar  101  HTS101     -0.0605
      6  C5         9.1420    2.0520    2.5480 C.ar  101  HTS101     -0.0582
      7  O1         5.5710    2.5940    3.1010 O.3   101  HTS101     -0.5056
      8  S1         5.1370    0.1070    1.8400 S.3   101  HTS101     -0.0482
      9  H6         7.9780    3.6100    3.4420 H     101  HTS101      0.0654
     10  H3         7.8930   -0.7730    1.1850 H     101  HTS101      0.0630
     11  H4        10.0440    0.3570    1.6010 H     101  HTS101      0.0618
     12  H5        10.0840    2.5430    2.7390 H     101  HTS101      0.0619
     13  HO1        5.6290    2.8520    4.0240 H     101  HTS101      0.2922
@<TRIPOS>BOND
     1    10     4    1
     2    11     5    1
     3     4     5   ar
     4     4     3   ar
     5     8     3    1
     6     5     6   ar
     7     3     2   ar
     8     6    12    1
     9     6     1   ar
    10     2     1   ar
    11     2     7    1
    12     1     9    1
    13     7    13    1
