@<TRIPOS>MOLECULE
2ly0_A2Y_A_1.pdb
 45 49 0 0 0
SMALL
GASTEIGER

@<TRIPOS>ATOM
      1  O          0.5140   11.4390   -0.8780 O.2   100  A2Y100     -0.3539
      2  S          0.5640   14.0600    0.2650 S.2   100  A2Y100     -0.0935
      3  C1         0.5300   14.9720    1.4070 C.ar  100  A2Y100     -0.0236
      4  N1         0.2990   10.1870   -1.2340 N.ar  100  A2Y100     -0.0846
      5  C2         0.2360   14.3530    2.5530 C.ar  100  A2Y100     -0.0540
      6  N2         0.2070    7.3590    0.6510 N.4   100  A2Y100      0.3865
      7  C3         0.0590   13.0540    2.3000 C.ar  100  A2Y100     -0.0439
      8  C4        -0.3360   10.3910    0.7470 C.ar  100  A2Y100      0.0070
      9  C5        -0.5770    8.0870   -0.3530 C.3   100  A2Y100     -0.0455
     10  C9        -0.2090    9.5420   -0.2780 C.ar  100  A2Y100      0.0674
     11  C10        0.1980    5.8760    0.6400 C.3   100  A2Y100     -0.0670
     12  C11        0.1450   11.5900    0.2960 C.ar  100  A2Y100      0.1739
     13  C12        0.2370   12.8020    0.9660 C.ar  100  A2Y100      0.0571
     14  C61       -1.2250    5.2940    0.8890 C.3   100  A2Y100     -0.0600
     15  C62        1.1140    5.3170    1.7630 C.3   100  A2Y100     -0.0600
     16  C63        0.7170    5.2870   -0.7080 C.3   100  A2Y100     -0.0600
     17  C71       -1.2070    3.7470    0.8980 C.3   100  A2Y100     -0.0418
     18  C72        1.1260    3.7730    1.7740 C.3   100  A2Y100     -0.0418
     19  C73        0.7230    3.7430   -0.6850 C.3   100  A2Y100     -0.0418
     20  C81       -0.2880    3.2390    2.0150 C.3   100  A2Y100     -0.0474
     21  C82        1.6420    3.2390    0.4340 C.3   100  A2Y100     -0.0474
     22  C83       -0.7000    3.2210   -0.4500 C.3   100  A2Y100     -0.0474
     23  H44       -0.7460   10.1420    1.7300 H     100  A2Y100      0.0674
     24  H1         0.7260   16.0480    1.3190 H     100  A2Y100      0.0693
     25  H2         0.1540   14.8320    3.5370 H     100  A2Y100      0.0623
     26  H3        -0.1920   12.3230    3.0780 H     100  A2Y100      0.0630
     27  H15       -0.3470    7.7240   -1.3810 H     100  A2Y100      0.0118
     28  H25       -1.6660    7.9750   -0.1670 H     100  A2Y100      0.0118
     29 H161       -1.8990    5.6260    0.1120 H     100  A2Y100      0.0255
     30 H261       -1.5950    5.6420    1.8440 H     100  A2Y100      0.0255
     31 H362        0.7590    5.6670    2.7230 H     100  A2Y100      0.0255
     32 H462        2.1240    5.6710    1.6150 H     100  A2Y100      0.0255
     33 H563        1.7240    5.6360   -0.8860 H     100  A2Y100      0.0255
     34 H663        0.0830    5.6130   -1.5190 H     100  A2Y100      0.0255
     35 H171       -2.2080    3.3800    1.0700 H     100  A2Y100      0.0300
     36 H272        1.7740    3.4280    2.5670 H     100  A2Y100      0.0300
     37 H373        1.0850    3.3740   -1.6330 H     100  A2Y100      0.0300
     38 H181       -0.6510    3.5860    2.9710 H     100  A2Y100      0.0271
     39 H281       -0.2720    2.1560    2.0060 H     100  A2Y100      0.0271
     40 H382        2.6470    3.5940    0.2660 H     100  A2Y100      0.0271
     41 H482        1.6370    2.1590    0.4500 H     100  A2Y100      0.0271
     42 H583       -1.3470    3.5700   -1.2400 H     100  A2Y100      0.0271
     43 H683       -0.6920    2.1400   -0.4390 H     100  A2Y100      0.0271
     44 H1N2        1.2050    7.6750    0.5560 H     100  A2Y100     -0.0846
     45 H2N2       -0.1300    7.6710    1.5940 H     100  A2Y100     -0.0846
@<TRIPOS>BOND
     1    37    19    1
     2    34    16    1
     3    27     9    1
     4    42    22    1
     5     4     1   ar
     6     4    10   ar
     7    33    16    1
     8     1    12   ar
     9    16    19    1
    10    16    11    1
    11    19    22    1
    12    19    21    1
    13    22    43    1
    14    22    17    1
    15     9    10    1
    16     9    28    1
    17     9     6    1
    18    10     8   ar
    19    29    14    1
    20     2    13   ar
    21     2     3   ar
    22    40    21    1
    23    12     8   ar
    24    12    13    1
    25    21    41    1
    26    21    18    1
    27    44     6    1
    28    11     6    1
    29    11    14    1
    30    11    15    1
    31     6    45    1
    32     8    23    1
    33    14    17    1
    34    14    30    1
    35    17    35    1
    36    17    20    1
    37    13     7   ar
    38    24     3    1
    39     3     5   ar
    40    32    15    1
    41    15    18    1
    42    15    31    1
    43    18    20    1
    44    18    36    1
    45    39    20    1
    46    20    38    1
    47     7     5   ar
    48     7    26    1
    49     5    25    1
