@<TRIPOS>MOLECULE
2lzz_HEM_A_1.pdb
 43 50 0 0 0
SMALL
GASTEIGER

@<TRIPOS>ATOM
      1  CHA       -9.1010   -0.8060   -3.9550 C.2   101  HEM101      0.0000
      2  CHB       -9.2070    0.0830   -8.7430 C.2   101  HEM101      0.0000
      3  CHC       -4.3400    0.2480   -8.8330 C.2   101  HEM101      0.0000
      4  CHD       -4.2340   -0.9720   -4.0650 C.2   101  HEM101      0.0000
      5  C1A       -9.5390   -0.6190   -5.2620 C.ar  101  HEM101      0.0000
      6  C2A      -10.9170   -0.7250   -5.6800 C.ar  101  HEM101      0.0000
      7  C3A      -10.9500   -0.4790   -7.0060 C.ar  101  HEM101      0.0000
      8  C4A       -9.5920   -0.2180   -7.4240 C.ar  101  HEM101      0.0000
      9  CMA      -12.1440   -0.4690   -7.9150 C.3   101  HEM101      0.0000
     10  CAA      -12.0660   -1.0510   -4.7720 C.3   101  HEM101      0.0000
     11  CBA      -12.7320    0.1720   -4.1490 C.3   101  HEM101      0.0000
     12  CGA      -14.1510    0.3500   -4.6710 C.2   101  HEM101      0.0000
     13  O1A      -14.8210   -0.6890   -4.8580 O.co2 101  HEM101      0.0000
     14  O2A      -14.5380    1.5210   -4.8740 O.co2 101  HEM101      0.0000
     15  C1B       -7.8910    0.2440   -9.1630 C.2   101  HEM101      0.0000
     16  C2B       -7.5080    0.6470  -10.4960 C.2   101  HEM101      0.0000
     17  C3B       -6.1590    0.6940  -10.5240 C.2   101  HEM101      0.0000
     18  C4B       -5.6940    0.3200   -9.2090 C.2   101  HEM101      0.0000
     19  CMB       -8.4660    0.9480  -11.6110 C.3   101  HEM101      0.0000
     20  CAB       -5.2710    1.0590  -11.6770 C.3   101  HEM101      0.0000
     21  CBB       -5.7690    2.2490  -12.4920 C.3   101  HEM101      0.0000
     22  C1C       -3.8700   -0.1470   -7.5150 C.ar  101  HEM101      0.0000
     23  C2C       -2.4880   -0.3480   -7.1500 C.ar  101  HEM101      0.0000
     24  C3C       -2.4660   -0.6740   -5.8400 C.ar  101  HEM101      0.0000
     25  C4C       -3.8350   -0.6780   -5.3810 C.ar  101  HEM101      0.0000
     26  CMC       -1.3230   -0.2090   -8.0870 C.3   101  HEM101      0.0000
     27  CAC       -1.2720   -0.9820   -4.9840 C.3   101  HEM101      0.0000
     28  CBC       -0.0270   -0.1760   -5.3420 C.3   101  HEM101      0.0000
     29  C1D       -5.5560   -1.0190   -3.6330 C.2   101  HEM101      0.0000
     30  C2D       -5.9570   -1.3120   -2.2770 C.2   101  HEM101      0.0000
     31  C3D       -7.3050   -1.2670   -2.2430 C.2   101  HEM101      0.0000
     32  C4D       -7.7530   -0.9450   -3.5780 C.2   101  HEM101      0.0000
     33  CMD       -5.0130   -1.6070   -1.1470 C.3   101  HEM101      0.0000
     34  CAD       -8.2080   -1.5000   -1.0670 C.3   101  HEM101      0.0000
     35  CBD       -7.8980   -2.7740   -0.2880 C.3   101  HEM101      0.0000
     36  CGD       -7.3230   -2.4520    1.0840 C.2   101  HEM101      0.0000
     37  O1D       -6.3150   -3.0980    1.4420 O.co2 101  HEM101      0.0000
     38  O2D       -7.9030   -1.5660    1.7480 O.co2 101  HEM101      0.0000
     39  NA        -8.7320   -0.3060   -6.3430 N.ar  101  HEM101      0.0000
     40  NB        -6.7670    0.0450   -8.3800 N.2   101  HEM101      0.0000
     41  NC        -4.6910   -0.3520   -6.4190 N.ar  101  HEM101      0.0000
     42  ND        -6.6680   -0.7950   -4.4250 N.2   101  HEM101      0.0000
     43 FE         -6.5640   -0.3960   -6.4370 Fe    101  HEM101      0.0000
@<TRIPOS>BOND
     1    21    20    1
     2    20    17    1
     3    19    16    1
     4    17    16    2
     5    17    18    1
     6    16    15    1
     7    18     3    2
     8    18    40    1
     9    15     2    1
    10    15    40    2
    11     3    22    1
    12     2     8    2
    13    40    43    1
    14    26    23    1
    15     9     7    1
    16    22    23   ar
    17    22    41   ar
    18     8     7   ar
    19     8    39   ar
    20    23    24   ar
    21     7     6   ar
    22    43    41    1
    23    43    39    1
    24    43    42    1
    25    41    25   ar
    26    39     5   ar
    27    24    25   ar
    28    24    27    1
    29     6     5   ar
    30     6    10    1
    31    25     4    1
    32    28    27    1
    33     5     1    2
    34    14    12   ar
    35    13    12   ar
    36    10    11    1
    37    12    11    1
    38    42    29    1
    39    42    32    2
    40     4    29    2
    41     1    32    1
    42    29    30    1
    43    32    31    1
    44    30    31    2
    45    30    33    1
    46    31    34    1
    47    34    35    1
    48    35    36    1
    49    36    37   ar
    50    36    38   ar
