@<TRIPOS>MOLECULE
2m3z_1HF_A_1.pdb
 37 40 0 0 0
SMALL
GASTEIGER

@<TRIPOS>ATOM
      1  C9        -8.8370    2.6480   34.9840 C.2   103  1HF103      0.0768
      2  C10       -9.3470    3.9190   35.1290 C.2   103  1HF103     -0.0008
      3  C13       -9.2000    6.0890   32.4320 C.ar  103  1HF103      0.0925
      4  C6        -5.7720   -0.9390   31.7740 C.2   103  1HF103      0.1542
      5  C4        -5.0740   -2.7860   33.4580 C.ar  103  1HF103     -0.0252
      6  C3        -4.0990   -3.7650   33.6850 C.ar  103  1HF103      0.0964
      7  N1        -7.1490   -0.4770   33.7040 N.pl3 103  1HF103     -0.1127
      8  C2        -3.0800   -4.0010   32.7430 C.ar  103  1HF103     -0.0345
      9  C         -4.0240   -2.3170   31.3540 C.ar  103  1HF103      0.0433
     10  C1        -3.0480   -3.2770   31.5470 C.ar  103  1HF103     -0.0380
     11  C5        -4.9960   -2.0470   32.2820 C.ar  103  1HF103      0.0300
     12  N         -6.7270   -0.2330   32.2960 N.2   103  1HF103     -0.1564
     13  C7        -7.7740    0.5250   34.2140 C.3   103  1HF103      0.2411
     14  C8        -5.1820   -0.5680   30.4580 C.2   103  1HF103      0.2688
     15  O         -5.4250    0.3350   29.6730 O.2   103  1HF103     -0.2681
     16  N2        -4.1670   -1.4220   30.2830 N.am  103  1HF103     -0.2796
     17  S         -8.1540    2.0780   33.4890 S.3   103  1HF103     -0.0669
     18  C11       -9.4100    4.9020   34.2090 C.ar  103  1HF103      0.1289
     19  C12       -8.7710    1.6280   36.0210 C.2   103  1HF103      0.2529
     20  O1        -9.1360    1.6950   37.1770 O.2   103  1HF103     -0.2696
     21  N3        -8.2070    0.5450   35.5110 N.am  103  1HF103     -0.2749
     22  O2        -8.9560    4.8260   32.9150 O.2   103  1HF103     -0.4635
     23  C14       -9.7940    6.9150   33.3460 C.ar  103  1HF103     -0.0233
     24  C15       -9.9320    6.1280   34.5270 C.ar  103  1HF103     -0.0164
     25  S1        -4.1630   -4.6790   35.2200 S.3   103  1HF103      0.0409
     26  O3        -3.1050   -5.6950   35.1420 O.3   103  1HF103     -0.0650
     27  O4        -3.9610   -3.6600   36.2620 O.3   103  1HF103     -0.0650
     28  O5        -5.5260   -5.2290   35.2390 O.3   103  1HF103     -0.0650
     29  H9        -9.7470    4.1870   36.1090 H     103  1HF103      0.0667
     30  H12       -8.8600    6.2500   31.4170 H     103  1HF103      0.1029
     31  H4        -5.8650   -2.6120   34.1840 H     103  1HF103      0.0644
     32  H6        -2.3050   -4.7410   32.9390 H     103  1HF103      0.0637
     33  H7        -2.2660   -3.4300   30.8030 H     103  1HF103      0.0637
     34  H1        -3.6360   -1.5220   29.4300 H     103  1HF103      0.1552
     35  H8        -8.0890   -0.2420   36.1200 H     103  1HF103      0.1521
     36  H11      -10.0700    7.9540   33.1930 H     103  1HF103      0.0649
     37  H10      -10.3410    6.4330   35.4860 H     103  1HF103      0.0655
@<TRIPOS>BOND
     1    34    16    1
     2    15    14    2
     3    16    14   am
     4    16     9    1
     5    14     4    1
     6    33    10    1
     7     9    10   ar
     8     9    11   ar
     9    30     3    1
    10    10     8   ar
    11     4    11    1
    12     4    12    2
    13    11     5   ar
    14    12     7    1
    15     3    22   ar
    16     3    23   ar
    17     8    32    1
    18     8     6   ar
    19    22    18   ar
    20    36    23    1
    21    23    24   ar
    22     5     6   ar
    23     5    31    1
    24    17    13    1
    25    17     1    1
    26     6    25    1
    27     7    13    1
    28    18    24   ar
    29    18     2    1
    30    13    21    1
    31    24    37    1
    32     1     2    2
    33     1    19    1
    34     2    29    1
    35    26    25    1
    36    25    28    1
    37    25    27    1
    38    21    19   am
    39    21    35    1
    40    19    20    2
