@<TRIPOS>MOLECULE
2man_BMA_A_1.pdb
 11 11 0 0 0
SMALL
GASTEIGER

@<TRIPOS>ATOM
      1  C1        -4.2550    0.6410   32.0090 C.3   402  BMA402      0.1777
      2  C2        -4.4560   -0.7930   32.5620 C.3   402  BMA402      0.2141
      3  C3        -4.0500   -1.7540   31.4650 C.3   402  BMA402      0.2173
      4  C4        -4.8460   -1.5070   30.1970 C.3   402  BMA402      0.2142
      5  C5        -4.6130   -0.0430   29.7630 C.3   402  BMA402      0.1810
      6  C6        -5.3480    0.4080   28.5180 C.3   402  BMA402      0.2141
      7  O2        -5.8160   -0.9670   32.9220 O.3   402  BMA402     -0.2176
      8  O3        -4.2410   -3.0820   31.9460 O.3   402  BMA402     -0.2175
      9  O4        -4.4640   -2.4230   29.1990 O.3   402  BMA402     -0.2176
     10  O5        -5.0150    0.8290   30.8330 O.3   402  BMA402     -0.3481
     11  O6        -6.7310    0.3080   28.7960 O.3   402  BMA402     -0.2176
@<TRIPOS>BOND
     1     6    11    1
     2     6     5    1
     3     9     4    1
     4     5     4    1
     5     5    10    1
     6     4     3    1
     7    10     1    1
     8     3     8    1
     9     3     2    1
    10     1     2    1
    11     2     7    1
