@<TRIPOS>MOLECULE
2man_MAN_A_1.pdb
 11 11 0 0 0
SMALL
GASTEIGER

@<TRIPOS>ATOM
      1  C1        -4.7720    5.6720   33.6900 C.3   403  MAN403      0.1777
      2  C2        -5.1000    5.2430   32.2270 C.3   403  MAN403      0.2141
      3  C3        -5.4190    3.7490   32.2450 C.3   403  MAN403      0.2173
      4  C4        -4.2690    2.9590   32.8170 C.3   403  MAN403      0.2142
      5  C5        -3.8640    3.5230   34.2090 C.3   403  MAN403      0.1810
      6  C6        -2.6120    2.8300   34.7210 C.3   403  MAN403      0.2141
      7  O2        -4.0020    5.4860   31.3660 O.3   403  MAN403     -0.2176
      8  O3        -5.6550    3.3180   30.8960 O.3   403  MAN403     -0.2175
      9  O4        -4.5660    1.5970   32.9790 O.3   403  MAN403     -0.2176
     10  O5        -3.6280    4.9240   34.1010 O.3   403  MAN403     -0.3481
     11  O6        -2.4510    3.1310   36.0840 O.3   403  MAN403     -0.2176
@<TRIPOS>BOND
     1     8     3    1
     2     7     2    1
     3     2     3    1
     4     2     1    1
     5     3     4    1
     6     4     9    1
     7     4     5    1
     8     1    10    1
     9    10     5    1
    10     5     6    1
    11     6    11    1
