@<TRIPOS>MOLECULE
2mas_PIR_A_1.pdb
 16 17 0 0 0
SMALL
GASTEIGER

@<TRIPOS>ATOM
      1  C1       107.1160   36.4820   81.8630 C.ar  400  PIR400     -0.0015
      2  C2       106.5220   35.2020   82.0070 C.ar  400  PIR400     -0.0038
      3  C3       107.0330   34.1130   81.2640 C.ar  400  PIR400     -0.0015
      4  C4       107.8940   34.3480   80.1840 C.ar  400  PIR400      0.0178
      5  C5       108.4400   35.6460   80.0050 C.ar  400  PIR400      0.0891
      6  N5       109.2770   35.8850   78.9900 N.pl3 400  PIR400     -0.1281
      7  C6       108.1240   36.6860   80.9080 C.ar  400  PIR400      0.0178
      8  C1'      105.3330   35.0040   82.9310 C.3   400  PIR400      0.1280
      9  C2'      105.1370   36.1330   83.9270 C.3   400  PIR400      0.2035
     10  O2'      105.3650   35.6820   85.2530 O.3   400  PIR400     -0.2185
     11  C3'      103.6700   36.5690   83.7690 C.3   400  PIR400      0.2023
     12  O3'      102.8450   35.9830   84.7620 O.3   400  PIR400     -0.2188
     13  C4'      103.2690   36.0990   82.3930 C.3   400  PIR400      0.1389
     14  N4'      104.0380   34.8720   82.2770 N.3   400  PIR400     -0.2084
     15  C5'      103.5970   37.0450   81.2280 C.3   400  PIR400      0.2020
     16  O5'      103.7070   36.3140   80.0080 O.3   400  PIR400     -0.2188
@<TRIPOS>BOND
     1     6     5    1
     2     5     4   ar
     3     5     7   ar
     4    16    15    1
     5     4     3   ar
     6     7     1   ar
     7    15    13    1
     8     3     2   ar
     9     1     2   ar
    10     2     8    1
    11    14    13    1
    12    14     8    1
    13    13    11    1
    14     8     9    1
    15    11     9    1
    16    11    12    1
    17     9    10    1
