@<TRIPOS>MOLECULE
2mbr_EPU_A_1.pdb
 44 46 0 0 0
SMALL
GASTEIGER

@<TRIPOS>ATOM
      1  N1U       16.7050   22.4440   13.8070 N.am  402  EPU402     -0.1766
      2  C2U       18.0880   22.5160   13.8130 C.1   402  EPU402      0.2845
      3  N3U       18.7540   21.3640   13.6470 N.2   402  EPU402     -0.2452
      4  C4U       18.2020   20.1720   13.4960 C.1   402  EPU402      0.2182
      5  C5U       16.7200   20.0380   13.5310 C.2   402  EPU402      0.1242
      6  C6U       15.9750   21.1740   13.6800 C.2   402  EPU402      0.0929
      7  O2U       18.6660   23.5650   13.9630 O.2   402  EPU402     -0.1918
      8  O4U       18.8740   19.1750   13.3300 O.2   402  EPU402     -0.2085
      9  C1D       15.9410   23.6900   13.9660 C.3   402  EPU402      0.2401
     10  C2D       15.2870   24.2460   12.6940 C.3   402  EPU402      0.2319
     11  O2D       16.0850   24.8580   11.7850 O.3   402  EPU402     -0.2157
     12  C3D       14.1970   25.0530   13.2610 C.3   402  EPU402      0.2158
     13  C4D       13.8550   24.3580   14.5800 C.3   402  EPU402      0.1799
     14  O4D       14.8760   23.4180   14.8150 O.3   402  EPU402     -0.3320
     15  O3D       14.5040   26.4450   13.2240 O.3   402  EPU402     -0.2175
     16  C5D       12.5150   23.5840   14.3040 C.3   402  EPU402      0.1813
     17  O5D       12.7440   22.7970   13.0690 O.3   402  EPU402     -0.3112
     18  PA        11.5180   22.1280   12.4470 P.3   402  EPU402      0.2189
     19  O1A       10.9980   23.3070   11.6630 O.3   402  EPU402     -0.4371
     20  O2A       12.1630   21.1360   11.5020 O.2   402  EPU402     -0.5170
     21  O3A       10.3750   21.4900   13.2100 O.3   402  EPU402     -0.2703
     22  PB        10.6260   20.7360   14.5750 P.3   402  EPU402      0.2208
     23  O1B       10.1540   21.5780   15.7350 O.3   402  EPU402     -0.4371
     24  O2B       12.0290   20.2020   14.7340 O.2   402  EPU402     -0.5170
     25  C1         8.3310   19.7840   14.5460 C.3   402  EPU402      0.2644
     26  C2         7.4680   18.5420   14.5940 C.3   402  EPU402      0.1940
     27  C3         7.4170   17.8160   13.2740 C.3   402  EPU402      0.2235
     28  C4         6.8090   18.9300   12.3270 C.3   402  EPU402      0.2230
     29  C5         7.6880   20.1900   12.2540 C.3   402  EPU402      0.1845
     30  C6         7.0600   21.3360   11.4190 C.3   402  EPU402      0.2142
     31  C7         7.2710   18.2990   17.1760 C.2   402  EPU402      0.2421
     32  C8         7.9330   17.2350   18.0850 C.3   402  EPU402      0.0964
     33  N2         7.6280   18.0690   15.9420 N.am  402  EPU402     -0.1981
     34  O1         9.6810   19.5390   14.3530 O.3   402  EPU402     -0.2864
     35  O3         6.6150   16.7450   13.5530 O.2   402  EPU402     -0.4682
     36  O4         6.6190   18.4160   11.0320 O.3   402  EPU402     -0.2165
     37  O5         7.7680   20.6650   13.6060 O.3   402  EPU402     -0.3259
     38  O6         5.7840   21.7410   11.8200 O.3   402  EPU402     -0.2176
     39  O7         6.6060   19.1580   17.5970 O.2   402  EPU402     -0.2733
     40  C1E        6.6250   14.5500   14.2880 C.2   402  EPU402      0.4211
     41  O1E        6.9450   13.3140   14.1960 O.co2 402  EPU402     -0.2371
     42  O2E        5.8930   14.9520   15.2430 O.co2 402  EPU402     -0.2371
     43  C2E        7.1000   15.5340   13.2750 C.2   402  EPU402      0.2182
     44  C3E        7.9100   15.2440   12.2160 C.2   402  EPU402      0.0471
@<TRIPOS>BOND
     1    36    28    1
     2    30    38    1
     3    30    29    1
     4    20    18    2
     5    19    18    1
     6    11    10    1
     7    44    43    2
     8    29    28    1
     9    29    37    1
    10    28    27    1
    11    18    17    1
    12    18    21    1
    13    10    12    1
    14    10     9    1
    15    17    16    1
    16    21    22    1
    17    15    12    1
    18    12    13    1
    19    27    35    1
    20    27    26    1
    21    43    35    1
    22    43    40    1
    23     8     4    2
    24     4     5    1
    25     4     3    2
    26     5     6    2
    27    37    25    1
    28     3     2    2
    29     6     1    1
    30     1     2   am
    31     1     9    1
    32     2     7    2
    33     9    14    1
    34    41    40   ar
    35    40    42   ar
    36    16    13    1
    37    34    25    1
    38    34    22    1
    39    25    26    1
    40    22    24    2
    41    22    23    1
    42    13    14    1
    43    26    33    1
    44    33    31   am
    45    31    39    2
    46    31    32    1
