@<TRIPOS>MOLECULE
2mbw_HEM_A_1.pdb
 43 50 0 0 0
SMALL
GASTEIGER

@<TRIPOS>ATOM
      1 FE         35.2200    4.2100   10.2440 Fe    154  HEM154      0.0000
      2  CHA       37.8730    2.3550   11.4350 C.2   154  HEM154      0.0000
      3  CHB       37.1610    5.4010    7.7560 C.2   154  HEM154      0.0000
      4  CHC       32.7020    6.2490    9.2420 C.2   154  HEM154      0.0000
      5  CHD       33.3740    3.2440   12.9670 C.2   154  HEM154      0.0000
      6  NA        37.0540    3.9330    9.7080 N.ar  154  HEM154      0.0000
      7  C1A       38.0540    3.1450   10.2680 C.ar  154  HEM154      0.0000
      8  C2A       39.3440    3.1310    9.5030 C.ar  154  HEM154      0.0000
      9  C3A       39.0970    4.0010    8.4580 C.ar  154  HEM154      0.0000
     10  C4A       37.7100    4.4890    8.6050 C.ar  154  HEM154      0.0000
     11  CMA       40.0010    4.3330    7.3150 C.3   154  HEM154      0.0000
     12  CAA       40.5700    2.2420    9.7570 C.3   154  HEM154      0.0000
     13  CBA       40.6540    1.0080    8.8430 C.3   154  HEM154      0.0000
     14  CGA       39.3920    0.1650    8.8650 C.2   154  HEM154      0.0000
     15  O1A       39.0880   -0.4830    9.9020 O.co2 154  HEM154      0.0000
     16  O2A       38.6880    0.1820    7.8380 O.co2 154  HEM154      0.0000
     17  NB        34.9850    5.5830    8.7740 N.2   154  HEM154      0.0000
     18  C1B       35.8730    5.9060    7.8010 C.2   154  HEM154      0.0000
     19  C2B       35.3170    6.8660    6.8520 C.2   154  HEM154      0.0000
     20  C3B       34.0290    7.1190    7.3080 C.2   154  HEM154      0.0000
     21  C4B       33.8640    6.2880    8.4850 C.2   154  HEM154      0.0000
     22  CMB       36.0100    7.3420    5.5610 C.3   154  HEM154      0.0000
     23  CAB       33.0110    7.9750    6.7250 C.3   154  HEM154      0.0000
     24  CBB       33.2930    9.2630    6.2060 C.3   154  HEM154      0.0000
     25  NC        33.3720    4.6030   10.9170 N.ar  154  HEM154      0.0000
     26  C1C       32.4980    5.4840   10.3990 C.ar  154  HEM154      0.0000
     27  C2C       31.2780    5.6350   11.2360 C.ar  154  HEM154      0.0000
     28  C3C       31.4930    4.7880   12.3000 C.ar  154  HEM154      0.0000
     29  C4C       32.7780    4.1560   12.0870 C.ar  154  HEM154      0.0000
     30  CMC       30.1180    6.6130   10.9470 C.3   154  HEM154      0.0000
     31  CAC       30.7720    4.5890   13.5260 C.3   154  HEM154      0.0000
     32  CBC       29.6300    5.2400   13.9780 C.3   154  HEM154      0.0000
     33  ND        35.5850    3.0160   11.8560 N.2   154  HEM154      0.0000
     34  C1D       34.6550    2.7280   12.8710 C.2   154  HEM154      0.0000
     35  C2D       35.2320    1.8280   13.8140 C.2   154  HEM154      0.0000
     36  C3D       36.5050    1.6370   13.4200 C.2   154  HEM154      0.0000
     37  C4D       36.7080    2.3280   12.1790 C.2   154  HEM154      0.0000
     38  CMD       34.5120    1.2180   15.0060 C.3   154  HEM154      0.0000
     39  CAD       37.6110    0.9350   14.1390 C.3   154  HEM154      0.0000
     40  CBD       38.2440    1.9220   15.1300 C.3   154  HEM154      0.0000
     41  CGD       39.3220    1.2670   15.9860 C.2   154  HEM154      0.0000
     42  O1D       38.9770    0.4770   16.9010 O.co2 154  HEM154      0.0000
     43  O2D       40.5030    1.5120   15.7180 O.co2 154  HEM154      0.0000
@<TRIPOS>BOND
     1    22    19    1
     2    24    23    1
     3    23    20    1
     4    19    20    2
     5    19    18    1
     6    20    21    1
     7    11     9    1
     8     3    18    1
     9     3    10    2
    10    18    17    2
    11    16    14   ar
    12     9    10   ar
    13     9     8   ar
    14    21    17    1
    15    21     4    2
    16    10     6   ar
    17    17     1    1
    18    13    14    1
    19    13    12    1
    20    14    15   ar
    21     4    26    1
    22     8    12    1
    23     8     7   ar
    24     6     1    1
    25     6     7   ar
    26     1    25    1
    27     1    33    1
    28     7     2    2
    29    26    25   ar
    30    26    27   ar
    31    25    29   ar
    32    30    27    1
    33    27    28   ar
    34     2    37    1
    35    33    37    2
    36    33    34    1
    37    29    28   ar
    38    29     5    1
    39    37    36    1
    40    28    31    1
    41    34     5    2
    42    34    35    1
    43    36    35    2
    44    36    39    1
    45    31    32    1
    46    35    38    1
    47    39    40    1
    48    40    41    1
    49    43    41   ar
    50    41    42   ar
