@<TRIPOS>MOLECULE
2mcp_PC_H_1.pdb
 11 10 0 0 0
SMALL
GASTEIGER

@<TRIPOS>ATOM
      1  P1        49.3730   57.0640  -37.8060 P.3   223  PC223       0.5325
      2  O1        49.9370   57.0160  -36.4030 O.3   223  PC223      -0.1145
      3  O3        50.3820   56.6260  -38.8160 O.2   223  PC223      -0.2224
      4  O4        47.9990   56.5130  -37.7670 O.3   223  PC223      -0.1145
      5  O2        49.3050   58.6700  -38.0330 O.3   223  PC223      -0.2725
      6  C1        49.6390   59.4420  -36.8830 C.3   223  PC223       0.1317
      7  C2        50.9850   59.0180  -36.2820 C.3   223  PC223      -0.0401
      8  N1        51.1110   59.5510  -34.8670 N.4   223  PC223       0.3874
      9  C3        50.0110   59.0640  -34.0310 C.3   223  PC223      -0.0959
     10  C4        52.4710   59.1760  -34.2810 C.3   223  PC223      -0.0959
     11  C5        51.0250   61.0600  -34.9880 C.3   223  PC223      -0.0959
@<TRIPOS>BOND
     1     3     1    2
     2     5     1    1
     3     5     6    1
     4     1     4    1
     5     1     2    1
     6     6     7    1
     7     7     8    1
     8    11     8    1
     9     8    10    1
    10     8     9    1
