@<TRIPOS>MOLECULE
2mga_HEM_A_1.pdb
 43 50 0 0 0
SMALL
GASTEIGER

@<TRIPOS>ATOM
      1 FE         35.2260    4.2100   10.2610 Fe    154  HEM154      0.0000
      2  CHA       37.8940    2.4010   11.4670 C.2   154  HEM154      0.0000
      3  CHB       37.1410    5.3630    7.7060 C.2   154  HEM154      0.0000
      4  CHC       32.6180    6.0890    9.1100 C.2   154  HEM154      0.0000
      5  CHD       33.3150    3.1590   12.9220 C.2   154  HEM154      0.0000
      6  NA        37.1140    3.9250    9.6830 N.ar  154  HEM154      0.0000
      7  C1A       38.0760    3.1120   10.2840 C.ar  154  HEM154      0.0000
      8  C2A       39.3070    3.1590    9.4810 C.ar  154  HEM154      0.0000
      9  C3A       39.0560    3.9100    8.4170 C.ar  154  HEM154      0.0000
     10  C4A       37.7340    4.4940    8.5820 C.ar  154  HEM154      0.0000
     11  CMA       39.9870    4.3200    7.2430 C.3   154  HEM154      0.0000
     12  CAA       40.5430    2.2670    9.7470 C.3   154  HEM154      0.0000
     13  CBA       40.5520    0.9240    9.0090 C.3   154  HEM154      0.0000
     14  CGA       39.2520    0.1900    8.8160 C.2   154  HEM154      0.0000
     15  O1A       38.7920   -0.5130    9.7340 O.co2 154  HEM154      0.0000
     16  O2A       38.6370    0.2450    7.6880 O.co2 154  HEM154      0.0000
     17  NB        34.9300    5.4970    8.7020 N.2   154  HEM154      0.0000
     18  C1B       35.8600    5.8600    7.7470 C.2   154  HEM154      0.0000
     19  C2B       35.2620    6.8160    6.8210 C.2   154  HEM154      0.0000
     20  C3B       33.9950    6.9580    7.1830 C.2   154  HEM154      0.0000
     21  C4B       33.7850    6.1680    8.3530 C.2   154  HEM154      0.0000
     22  CMB       35.9460    7.3370    5.5140 C.3   154  HEM154      0.0000
     23  CAB       32.9550    7.9060    6.5090 C.3   154  HEM154      0.0000
     24  CBB       33.2970    9.1780    6.0960 C.3   154  HEM154      0.0000
     25  NC        33.3470    4.4780   10.8440 N.ar  154  HEM154      0.0000
     26  C1C       32.4400    5.3710   10.2890 C.ar  154  HEM154      0.0000
     27  C2C       31.3320    5.6000   11.2060 C.ar  154  HEM154      0.0000
     28  C3C       31.5640    4.8810   12.3020 C.ar  154  HEM154      0.0000
     29  C4C       32.8270    4.1620   12.0960 C.ar  154  HEM154      0.0000
     30  CMC       30.2650    6.6270   10.8210 C.3   154  HEM154      0.0000
     31  CAC       30.7940    4.6680   13.6190 C.2   154  HEM154      0.0000
     32  CBC       29.6080    5.2210   13.9400 C.2   154  HEM154      0.0000
     33  ND        35.5630    3.0410   11.8900 N.2   154  HEM154      0.0000
     34  C1D       34.6150    2.7250   12.8250 C.2   154  HEM154      0.0000
     35  C2D       35.2030    1.7850   13.7790 C.2   154  HEM154      0.0000
     36  C3D       36.4890    1.5950   13.3940 C.2   154  HEM154      0.0000
     37  C4D       36.7220    2.3770   12.2200 C.2   154  HEM154      0.0000
     38  CMD       34.4550    1.2640   15.0180 C.3   154  HEM154      0.0000
     39  CAD       37.5470    0.8210   14.2240 C.3   154  HEM154      0.0000
     40  CBD       38.3720    1.8240   15.1370 C.3   154  HEM154      0.0000
     41  CGD       39.5400    1.2400   15.8210 C.2   154  HEM154      0.0000
     42  O1D       39.3800    0.4900   16.8210 O.co2 154  HEM154      0.0000
     43  O2D       40.6750    1.3430   15.3300 O.co2 154  HEM154      0.0000
@<TRIPOS>BOND
     1    22    19    1
     2    24    23    1
     3    23    20    1
     4    19    20    2
     5    19    18    1
     6    20    21    1
     7    11     9    1
     8    16    14   ar
     9     3    18    1
    10     3    10    2
    11    18    17    2
    12    21    17    1
    13    21     4    2
    14     9    10   ar
    15     9     8   ar
    16    10     6   ar
    17    17     1    1
    18    14    13    1
    19    14    15   ar
    20    13    12    1
    21     4    26    1
    22     8    12    1
    23     8     7   ar
    24     6     1    1
    25     6     7   ar
    26     1    25    1
    27     1    33    1
    28     7     2    2
    29    26    25   ar
    30    26    27   ar
    31    30    27    1
    32    25    29   ar
    33    27    28   ar
    34     2    37    1
    35    33    37    2
    36    33    34    1
    37    29    28   ar
    38    29     5    1
    39    37    36    1
    40    28    31    1
    41    34     5    2
    42    34    35    1
    43    36    35    2
    44    36    39    1
    45    31    32    2
    46    35    38    1
    47    39    40    1
    48    40    41    1
    49    43    41   ar
    50    41    42   ar
