@<TRIPOS>MOLECULE
2mgb_HEM_A_1.pdb
 43 50 0 0 0
SMALL
GASTEIGER

@<TRIPOS>ATOM
      1 FE         35.3080    4.1780   10.1880 Fe    154  HEM154      0.0000
      2  CHA       38.0530    2.3930   11.3210 C.2   154  HEM154      0.0000
      3  CHB       37.1690    5.2680    7.5460 C.2   154  HEM154      0.0000
      4  CHC       32.7090    6.1680    9.1330 C.2   154  HEM154      0.0000
      5  CHD       33.5620    3.2700   12.9080 C.2   154  HEM154      0.0000
      6  NA        37.2050    3.9250    9.5820 N.ar  154  HEM154      0.0000
      7  C1A       38.1580    3.0640   10.1100 C.ar  154  HEM154      0.0000
      8  C2A       39.3480    3.1040    9.3070 C.ar  154  HEM154      0.0000
      9  C3A       39.1430    3.9650    8.2930 C.ar  154  HEM154      0.0000
     10  C4A       37.7890    4.4470    8.4170 C.ar  154  HEM154      0.0000
     11  CMA       40.1050    4.2890    7.1420 C.3   154  HEM154      0.0000
     12  CAA       40.6430    2.2510    9.5460 C.3   154  HEM154      0.0000
     13  CBA       40.6660    0.9480    8.7060 C.3   154  HEM154      0.0000
     14  CGA       39.3850    0.1500    8.7380 C.2   154  HEM154      0.0000
     15  O1A       38.9650   -0.4340    9.7980 O.co2 154  HEM154      0.0000
     16  O2A       38.6920    0.1970    7.6920 O.co2 154  HEM154      0.0000
     17  NB        34.9930    5.4970    8.6690 N.2   154  HEM154      0.0000
     18  C1B       35.9100    5.8370    7.7020 C.2   154  HEM154      0.0000
     19  C2B       35.2940    6.7290    6.7470 C.2   154  HEM154      0.0000
     20  C3B       34.0540    6.9980    7.1970 C.2   154  HEM154      0.0000
     21  C4B       33.8490    6.1840    8.3710 C.2   154  HEM154      0.0000
     22  CMB       36.0240    7.2510    5.4770 C.3   154  HEM154      0.0000
     23  CAB       32.9920    7.9060    6.5920 C.2   154  HEM154      0.0000
     24  CBB       33.2610    9.1460    6.1740 C.2   154  HEM154      0.0000
     25  NC        33.4840    4.5890   10.8620 N.ar  154  HEM154      0.0000
     26  C1C       32.5720    5.4580   10.3530 C.ar  154  HEM154      0.0000
     27  C2C       31.4780    5.6310   11.2610 C.ar  154  HEM154      0.0000
     28  C3C       31.7010    4.8490   12.3340 C.ar  154  HEM154      0.0000
     29  C4C       32.9600    4.1860   12.1050 C.ar  154  HEM154      0.0000
     30  CMC       30.3290    6.6110   10.9260 C.3   154  HEM154      0.0000
     31  CAC       30.8710    4.5650   13.6140 C.2   154  HEM154      0.0000
     32  CBC       29.7490    5.2290   13.9900 C.2   154  HEM154      0.0000
     33  ND        35.7460    3.0880   11.8020 N.2   154  HEM154      0.0000
     34  C1D       34.8160    2.7720   12.7890 C.2   154  HEM154      0.0000
     35  C2D       35.4680    1.8960   13.7380 C.2   154  HEM154      0.0000
     36  C3D       36.6990    1.6590   13.3110 C.2   154  HEM154      0.0000
     37  C4D       36.9040    2.4410   12.1050 C.2   154  HEM154      0.0000
     38  CMD       34.7060    1.3820   14.9770 C.3   154  HEM154      0.0000
     39  CAD       37.8250    0.9400   14.0730 C.3   154  HEM154      0.0000
     40  CBD       38.5270    2.0300   15.0680 C.3   154  HEM154      0.0000
     41  CGD       39.6450    1.3740   15.8390 C.2   154  HEM154      0.0000
     42  O1D       39.3300    0.5920   16.7980 O.co2 154  HEM154      0.0000
     43  O2D       40.7800    1.3030   15.3020 O.co2 154  HEM154      0.0000
@<TRIPOS>BOND
     1    22    19    1
     2    24    23    2
     3    23    20    1
     4    19    20    2
     5    19    18    1
     6    11     9    1
     7    20    21    1
     8     3    18    1
     9     3    10    2
    10    16    14   ar
    11    18    17    2
    12     9    10   ar
    13     9     8   ar
    14    21    17    1
    15    21     4    2
    16    10     6   ar
    17    17     1    1
    18    13    14    1
    19    13    12    1
    20    14    15   ar
    21     4    26    1
    22     8    12    1
    23     8     7   ar
    24     6     7   ar
    25     6     1    1
    26     7     2    2
    27     1    25    1
    28     1    33    1
    29    26    25   ar
    30    26    27   ar
    31    25    29   ar
    32    30    27    1
    33    27    28   ar
    34     2    37    1
    35    33    37    2
    36    33    34    1
    37    29    28   ar
    38    29     5    1
    39    37    36    1
    40    28    31    1
    41    34     5    2
    42    34    35    1
    43    36    35    2
    44    36    39    1
    45    31    32    2
    46    35    38    1
    47    39    40    1
    48    40    41    1
    49    43    41   ar
    50    41    42   ar
