@<TRIPOS>MOLECULE
2mgc_HEM_A_1.pdb
 43 50 0 0 0
SMALL
GASTEIGER

@<TRIPOS>ATOM
      1 FE         34.9890    4.2100   10.2520 Fe    154  HEM154      0.0000
      2  CHA       37.6610    2.6300   11.6100 C.2   154  HEM154      0.0000
      3  CHB       37.0140    5.4580    7.7800 C.2   154  HEM154      0.0000
      4  CHC       32.4350    6.1840    9.1100 C.2   154  HEM154      0.0000
      5  CHD       33.0740    3.3250   12.9080 C.2   154  HEM154      0.0000
      6  NA        37.0140    4.1150    9.8480 N.ar  154  HEM154      0.0000
      7  C1A       37.9570    3.3800   10.4950 C.ar  154  HEM154      0.0000
      8  C2A       39.2110    3.3730    9.6970 C.ar  154  HEM154      0.0000
      9  C3A       38.9700    4.0750    8.5820 C.ar  154  HEM154      0.0000
     10  C4A       37.5970    4.5730    8.6560 C.ar  154  HEM154      0.0000
     11  CMA       39.8950    4.4780    7.4260 C.3   154  HEM154      0.0000
     12  CAA       40.4340    2.4720   10.0090 C.3   154  HEM154      0.0000
     13  CBA       40.5020    1.2160    9.0590 C.3   154  HEM154      0.0000
     14  CGA       39.3160    0.3000    9.1240 C.2   154  HEM154      0.0000
     15  O1A       38.9930   -0.2290   10.2790 O.co2 154  HEM154      0.0000
     16  O2A       38.6190    0.1340    8.0640 O.co2 154  HEM154      0.0000
     17  NB        34.7520    5.4890    8.7060 N.2   154  HEM154      0.0000
     18  C1B       35.6960    5.9240    7.7700 C.2   154  HEM154      0.0000
     19  C2B       35.1120    6.8870    6.8670 C.2   154  HEM154      0.0000
     20  C3B       33.8400    7.0850    7.2150 C.2   154  HEM154      0.0000
     21  C4B       33.6210    6.2470    8.3710 C.2   154  HEM154      0.0000
     22  CMB       35.8780    7.4080    5.6280 C.3   154  HEM154      0.0000
     23  CAB       32.7770    7.9770    6.5730 C.3   154  HEM154      0.0000
     24  CBB       33.1100    9.2490    6.1240 C.3   154  HEM154      0.0000
     25  NC        33.0460    4.6520   10.8990 N.ar  154  HEM154      0.0000
     26  C1C       32.2260    5.5840   10.3670 C.ar  154  HEM154      0.0000
     27  C2C       31.0350    5.7020   11.2200 C.ar  154  HEM154      0.0000
     28  C3C       31.1580    4.8570   12.2010 C.ar  154  HEM154      0.0000
     29  C4C       32.4950    4.2330   12.0500 C.ar  154  HEM154      0.0000
     30  CMC       29.8320    6.5870   10.8710 C.3   154  HEM154      0.0000
     31  CAC       30.3600    4.5970   13.5130 C.3   154  HEM154      0.0000
     32  CBC       29.2430    5.3000   13.9170 C.3   154  HEM154      0.0000
     33  ND        35.3080    3.1510   11.9670 N.2   154  HEM154      0.0000
     34  C1D       34.3820    2.8750   12.9540 C.2   154  HEM154      0.0000
     35  C2D       34.9930    1.9900   13.9860 C.2   154  HEM154      0.0000
     36  C3D       36.2430    1.7530   13.5550 C.2   154  HEM154      0.0000
     37  C4D       36.4530    2.5120   12.2930 C.2   154  HEM154      0.0000
     38  CMD       34.2270    1.4530   15.1780 C.3   154  HEM154      0.0000
     39  CAD       37.3830    1.1220   14.3890 C.3   154  HEM154      0.0000
     40  CBD       38.1170    2.3300   15.1190 C.3   154  HEM154      0.0000
     41  CGD       39.2520    1.9270   15.9770 C.2   154  HEM154      0.0000
     42  O1D       39.0790    1.6590   17.2240 O.co2 154  HEM154      0.0000
     43  O2D       40.3510    1.7300   15.3850 O.co2 154  HEM154      0.0000
@<TRIPOS>BOND
     1    22    19    1
     2    24    23    1
     3    23    20    1
     4    19    20    2
     5    19    18    1
     6    20    21    1
     7    11     9    1
     8    18     3    1
     9    18    17    2
    10     3    10    2
    11    16    14   ar
    12    21    17    1
    13    21     4    2
    14     9    10   ar
    15     9     8   ar
    16    10     6   ar
    17    17     1    1
    18    13    14    1
    19    13    12    1
    20     4    26    1
    21    14    15   ar
    22     8    12    1
    23     8     7   ar
    24     6     1    1
    25     6     7   ar
    26     1    25    1
    27     1    33    1
    28    26    25   ar
    29    26    27   ar
    30     7     2    2
    31    30    27    1
    32    25    29   ar
    33    27    28   ar
    34     2    37    1
    35    33    37    2
    36    33    34    1
    37    29    28   ar
    38    29     5    1
    39    28    31    1
    40    37    36    1
    41     5    34    2
    42    34    35    1
    43    31    32    1
    44    36    35    2
    45    36    39    1
    46    35    38    1
    47    39    40    1
    48    40    41    1
    49    43    41   ar
    50    41    42   ar
