@<TRIPOS>MOLECULE
2mgd_HEM_A_1.pdb
 43 50 0 0 0
SMALL
GASTEIGER

@<TRIPOS>ATOM
      1 FE         35.0770    4.3750   10.1310 Fe    154  HEM154      0.0000
      2  CHA       37.8370    2.6930   11.3280 C.2   154  HEM154      0.0000
      3  CHB       37.0250    5.5420    7.5180 C.2   154  HEM154      0.0000
      4  CHC       32.5530    6.5150    9.1070 C.2   154  HEM154      0.0000
      5  CHD       33.3390    3.4740   12.8840 C.2   154  HEM154      0.0000
      6  NA        36.9660    4.1460    9.6110 N.ar  154  HEM154      0.0000
      7  C1A       37.9960    3.4100   10.1760 C.ar  154  HEM154      0.0000
      8  C2A       39.2600    3.3780    9.3890 C.ar  154  HEM154      0.0000
      9  C3A       38.9610    4.1860    8.2460 C.ar  154  HEM154      0.0000
     10  C4A       37.6290    4.6900    8.4130 C.ar  154  HEM154      0.0000
     11  CMA       39.9080    4.5230    7.1150 C.3   154  HEM154      0.0000
     12  CAA       40.5720    2.4830    9.7180 C.3   154  HEM154      0.0000
     13  CBA       40.6920    1.2260    8.8630 C.3   154  HEM154      0.0000
     14  CGA       39.4470    0.3360    8.8680 C.2   154  HEM154      0.0000
     15  O1A       39.0280   -0.0550    9.9640 O.co2 154  HEM154      0.0000
     16  O2A       38.7120    0.3310    7.8690 O.co2 154  HEM154      0.0000
     17  NB        34.8340    5.7520    8.5760 N.2   154  HEM154      0.0000
     18  C1B       35.7050    5.9850    7.5760 C.2   154  HEM154      0.0000
     19  C2B       35.1540    6.9880    6.6110 C.2   154  HEM154      0.0000
     20  C3B       33.9000    7.3560    7.0700 C.2   154  HEM154      0.0000
     21  C4B       33.7440    6.5250    8.3100 C.2   154  HEM154      0.0000
     22  CMB       35.7940    7.5750    5.3510 C.3   154  HEM154      0.0000
     23  CAB       32.9090    8.2820    6.4970 C.3   154  HEM154      0.0000
     24  CBB       33.1430    9.6450    6.1050 C.3   154  HEM154      0.0000
     25  NC        33.3780    4.9070   10.7930 N.ar  154  HEM154      0.0000
     26  C1C       32.4410    5.7520   10.3240 C.ar  154  HEM154      0.0000
     27  C2C       31.2660    5.7930   11.1620 C.ar  154  HEM154      0.0000
     28  C3C       31.4320    5.0320   12.3060 C.ar  154  HEM154      0.0000
     29  C4C       32.7710    4.4380   12.0240 C.ar  154  HEM154      0.0000
     30  CMC       30.1030    6.6860   10.8140 C.3   154  HEM154      0.0000
     31  CAC       30.5770    4.8070   13.5510 C.3   154  HEM154      0.0000
     32  CBC       29.4260    5.6030   13.8890 C.3   154  HEM154      0.0000
     33  ND        35.5200    3.3420   11.8660 N.2   154  HEM154      0.0000
     34  C1D       34.6370    3.0630   12.8630 C.2   154  HEM154      0.0000
     35  C2D       35.2800    2.1110   13.7990 C.2   154  HEM154      0.0000
     36  C3D       36.5130    1.8680   13.4130 C.2   154  HEM154      0.0000
     37  C4D       36.6540    2.6480   12.1440 C.2   154  HEM154      0.0000
     38  CMD       34.5070    1.5260   14.9970 C.3   154  HEM154      0.0000
     39  CAD       37.6820    1.2250   14.1240 C.3   154  HEM154      0.0000
     40  CBD       38.3560    2.2310   15.0650 C.3   154  HEM154      0.0000
     41  CGD       39.5460    1.6430   15.8530 C.2   154  HEM154      0.0000
     42  O1D       39.3470    1.0450   16.9210 O.co2 154  HEM154      0.0000
     43  O2D       40.6500    1.6320   15.3300 O.co2 154  HEM154      0.0000
@<TRIPOS>BOND
     1    22    19    1
     2    24    23    1
     3    23    20    1
     4    19    20    2
     5    19    18    1
     6    20    21    1
     7    11     9    1
     8     3    18    1
     9     3    10    2
    10    18    17    2
    11    16    14   ar
    12     9    10   ar
    13     9     8   ar
    14    21    17    1
    15    21     4    2
    16    10     6   ar
    17    17     1    1
    18    13    14    1
    19    13    12    1
    20    14    15   ar
    21     4    26    1
    22     8    12    1
    23     8     7   ar
    24     6     1    1
    25     6     7   ar
    26     1    25    1
    27     1    33    1
    28     7     2    2
    29    26    25   ar
    30    26    27   ar
    31    25    29   ar
    32    30    27    1
    33    27    28   ar
    34     2    37    1
    35    33    37    2
    36    33    34    1
    37    29    28   ar
    38    29     5    1
    39    37    36    1
    40    28    31    1
    41    34     5    2
    42    34    35    1
    43    36    35    2
    44    36    39    1
    45    31    32    1
    46    35    38    1
    47    39    40    1
    48    40    41    1
    49    43    41   ar
    50    41    42   ar
