@<TRIPOS>MOLECULE
2mge_HEM_A_1.pdb
 43 50 0 0 0
SMALL
GASTEIGER

@<TRIPOS>ATOM
      1 FE         35.1490    4.2930   10.1590 Fe    154  HEM154      0.0000
      2  CHA       37.8940    2.5790   11.3940 C.2   154  HEM154      0.0000
      3  CHB       37.1710    5.5390    7.5390 C.2   154  HEM154      0.0000
      4  CHC       32.5860    6.4210    9.0940 C.2   154  HEM154      0.0000
      5  CHD       33.3720    3.3890   12.9200 C.2   154  HEM154      0.0000
      6  NA        37.0160    4.0820    9.6500 N.ar  154  HEM154      0.0000
      7  C1A       38.0620    3.3130   10.1690 C.ar  154  HEM154      0.0000
      8  C2A       39.3590    3.3700    9.4530 C.ar  154  HEM154      0.0000
      9  C3A       39.0230    4.1590    8.2760 C.ar  154  HEM154      0.0000
     10  C4A       37.7210    4.6740    8.4580 C.ar  154  HEM154      0.0000
     11  CMA       40.0380    4.5170    7.1450 C.3   154  HEM154      0.0000
     12  CAA       40.6940    2.4880    9.6990 C.3   154  HEM154      0.0000
     13  CBA       40.6800    1.1790    8.9110 C.3   154  HEM154      0.0000
     14  CGA       39.3290    0.4110    8.8880 C.2   154  HEM154      0.0000
     15  O1A       38.9500   -0.1830    9.9350 O.co2 154  HEM154      0.0000
     16  O2A       38.5900    0.4930    7.8650 O.co2 154  HEM154      0.0000
     17  NB        34.9190    5.6900    8.6440 N.2   154  HEM154      0.0000
     18  C1B       35.8010    5.9170    7.6360 C.2   154  HEM154      0.0000
     19  C2B       35.2530    6.8950    6.6570 C.2   154  HEM154      0.0000
     20  C3B       34.0730    7.2120    7.1540 C.2   154  HEM154      0.0000
     21  C4B       33.8370    6.4260    8.3610 C.2   154  HEM154      0.0000
     22  CMB       35.9110    7.4730    5.3860 C.3   154  HEM154      0.0000
     23  CAB       33.0470    8.0540    6.5560 C.3   154  HEM154      0.0000
     24  CBB       33.0990    9.4540    6.2520 C.3   154  HEM154      0.0000
     25  NC        33.4340    4.8370   10.7990 N.ar  154  HEM154      0.0000
     26  C1C       32.4750    5.6950   10.3610 C.ar  154  HEM154      0.0000
     27  C2C       31.2420    5.7830   11.1760 C.ar  154  HEM154      0.0000
     28  C3C       31.4420    4.9170   12.2960 C.ar  154  HEM154      0.0000
     29  C4C       32.8080    4.3510   12.0280 C.ar  154  HEM154      0.0000
     30  CMC       30.0750    6.7060   10.8370 C.3   154  HEM154      0.0000
     31  CAC       30.6060    4.6400   13.5560 C.3   154  HEM154      0.0000
     32  CBC       29.4910    5.4870   13.9100 C.3   154  HEM154      0.0000
     33  ND        35.5600    3.2760   11.8630 N.2   154  HEM154      0.0000
     34  C1D       34.6400    3.0230   12.8650 C.2   154  HEM154      0.0000
     35  C2D       35.3040    2.0420   13.7480 C.2   154  HEM154      0.0000
     36  C3D       36.5400    1.8720   13.4130 C.2   154  HEM154      0.0000
     37  C4D       36.7050    2.6130   12.1720 C.2   154  HEM154      0.0000
     38  CMD       34.5660    1.3820   14.9270 C.3   154  HEM154      0.0000
     39  CAD       37.6990    1.3130   14.1880 C.3   154  HEM154      0.0000
     40  CBD       38.3110    2.3830   15.1060 C.3   154  HEM154      0.0000
     41  CGD       39.4800    1.8630   15.9840 C.2   154  HEM154      0.0000
     42  O1D       39.2620    1.5780   17.1760 O.co2 154  HEM154      0.0000
     43  O2D       40.4540    1.3560   15.4460 O.co2 154  HEM154      0.0000
@<TRIPOS>BOND
     1    22    19    1
     2    24    23    1
     3    23    20    1
     4    19    20    2
     5    19    18    1
     6    11     9    1
     7    20    21    1
     8     3    18    1
     9     3    10    2
    10    18    17    2
    11    16    14   ar
    12     9    10   ar
    13     9     8   ar
    14    21    17    1
    15    21     4    2
    16    10     6   ar
    17    17     1    1
    18    14    13    1
    19    14    15   ar
    20    13    12    1
    21     4    26    1
    22     8    12    1
    23     8     7   ar
    24     6     1    1
    25     6     7   ar
    26     1    25    1
    27     1    33    1
    28     7     2    2
    29    26    25   ar
    30    26    27   ar
    31    25    29   ar
    32    30    27    1
    33    27    28   ar
    34     2    37    1
    35    33    37    2
    36    33    34    1
    37    29    28   ar
    38    29     5    1
    39    37    36    1
    40    28    31    1
    41    34     5    2
    42    34    35    1
    43    36    35    2
    44    36    39    1
    45    31    32    1
    46    35    38    1
    47    39    40    1
    48    40    41    1
    49    43    41   ar
    50    41    42   ar
