@<TRIPOS>MOLECULE
2mgf_HEM_A_1.pdb
 43 50 0 0 0
SMALL
GASTEIGER

@<TRIPOS>ATOM
      1 FE         35.2520    4.3460   10.0780 Fe    154  HEM154      0.0000
      2  CHA       37.9090    2.4030   11.3310 C.2   154  HEM154      0.0000
      3  CHB       37.1880    5.4260    7.6050 C.2   154  HEM154      0.0000
      4  CHC       32.6830    6.3010    9.2020 C.2   154  HEM154      0.0000
      5  CHD       33.3800    3.3050   12.9550 C.2   154  HEM154      0.0000
      6  NA        37.0080    4.0780    9.6180 N.ar  154  HEM154      0.0000
      7  C1A       38.0100    3.3080   10.1750 C.ar  154  HEM154      0.0000
      8  C2A       39.2560    3.2800    9.3690 C.ar  154  HEM154      0.0000
      9  C3A       38.9900    4.1140    8.3170 C.ar  154  HEM154      0.0000
     10  C4A       37.6380    4.5740    8.5100 C.ar  154  HEM154      0.0000
     11  CMA       40.0540    4.3780    7.2250 C.3   154  HEM154      0.0000
     12  CAA       40.5830    2.3770    9.6410 C.3   154  HEM154      0.0000
     13  CBA       40.6360    1.1200    8.7580 C.3   154  HEM154      0.0000
     14  CGA       39.4090    0.2400    8.8300 C.2   154  HEM154      0.0000
     15  O1A       39.1130   -0.3110    9.9000 O.co2 154  HEM154      0.0000
     16  O2A       38.7320    0.1000    7.8070 O.co2 154  HEM154      0.0000
     17  NB        34.9100    5.6060    8.6910 N.2   154  HEM154      0.0000
     18  C1B       35.8330    5.9160    7.7310 C.2   154  HEM154      0.0000
     19  C2B       35.2400    6.8570    6.7310 C.2   154  HEM154      0.0000
     20  C3B       34.0080    7.0970    7.1800 C.2   154  HEM154      0.0000
     21  C4B       33.8590    6.3230    8.4100 C.2   154  HEM154      0.0000
     22  CMB       35.9470    7.4580    5.4360 C.3   154  HEM154      0.0000
     23  CAB       33.0200    7.9500    6.5760 C.3   154  HEM154      0.0000
     24  CBB       33.2940    9.2750    6.0140 C.3   154  HEM154      0.0000
     25  NC        33.3410    4.6460   10.8310 N.ar  154  HEM154      0.0000
     26  C1C       32.5740    5.5450   10.4210 C.ar  154  HEM154      0.0000
     27  C2C       31.4090    5.6460   11.3240 C.ar  154  HEM154      0.0000
     28  C3C       31.5060    4.8080   12.3790 C.ar  154  HEM154      0.0000
     29  C4C       32.7820    4.1560   12.0880 C.ar  154  HEM154      0.0000
     30  CMC       30.2300    6.5640   10.9420 C.3   154  HEM154      0.0000
     31  CAC       30.7260    4.5610   13.5630 C.3   154  HEM154      0.0000
     32  CBC       29.6230    5.2860   14.1180 C.3   154  HEM154      0.0000
     33  ND        35.6240    3.0750   11.6470 N.2   154  HEM154      0.0000
     34  C1D       34.6980    2.8470   12.6950 C.2   154  HEM154      0.0000
     35  C2D       35.3380    1.9110   13.6460 C.2   154  HEM154      0.0000
     36  C3D       36.5620    1.7150   13.2290 C.2   154  HEM154      0.0000
     37  C4D       36.7320    2.4350   12.0130 C.2   154  HEM154      0.0000
     38  CMD       34.7640    1.2760   14.9080 C.3   154  HEM154      0.0000
     39  CAD       37.5400    0.9430   14.0810 C.3   154  HEM154      0.0000
     40  CBD       38.3410    1.9130   14.9740 C.3   154  HEM154      0.0000
     41  CGD       39.4950    1.2650   15.7480 C.2   154  HEM154      0.0000
     42  O1D       39.1890    0.6510   16.7410 O.co2 154  HEM154      0.0000
     43  O2D       40.4720    0.8950   15.1480 O.co2 154  HEM154      0.0000
@<TRIPOS>BOND
     1    22    19    1
     2    24    23    1
     3    23    20    1
     4    19    20    2
     5    19    18    1
     6    20    21    1
     7    11     9    1
     8     3    18    1
     9     3    10    2
    10    18    17    2
    11    16    14   ar
    12     9    10   ar
    13     9     8   ar
    14    21    17    1
    15    21     4    2
    16    10     6   ar
    17    17     1    1
    18    13    14    1
    19    13    12    1
    20    14    15   ar
    21     4    26    1
    22     8    12    1
    23     8     7   ar
    24     6     1    1
    25     6     7   ar
    26     1    25    1
    27     1    33    1
    28     7     2    2
    29    26    25   ar
    30    26    27   ar
    31    25    29   ar
    32    30    27    1
    33    27    28   ar
    34     2    37    1
    35    33    37    2
    36    33    34    1
    37    37    36    1
    38    29    28   ar
    39    29     5    1
    40    28    31    1
    41    34     5    2
    42    34    35    1
    43    36    35    2
    44    36    39    1
    45    31    32    1
    46    35    38    1
    47    39    40    1
    48    40    41    1
    49    43    41   ar
    50    41    42   ar
