@<TRIPOS>MOLECULE
2mgg_HEM_A_1.pdb
 43 50 0 0 0
SMALL
GASTEIGER

@<TRIPOS>ATOM
      1 FE         35.2530    4.3060    9.8550 Fe    154  HEM154      0.0000
      2  CHA       37.9560    2.5740   11.1890 C.2   154  HEM154      0.0000
      3  CHB       37.2380    5.5450    7.4830 C.2   154  HEM154      0.0000
      4  CHC       32.7280    6.4950    9.1470 C.2   154  HEM154      0.0000
      5  CHD       33.5560    3.4710   12.8960 C.2   154  HEM154      0.0000
      6  NA        37.1600    4.1170    9.4420 N.ar  154  HEM154      0.0000
      7  C1A       38.1030    3.3420   10.0180 C.ar  154  HEM154      0.0000
      8  C2A       39.3030    3.2950    9.1670 C.ar  154  HEM154      0.0000
      9  C3A       39.0750    4.0700    8.0840 C.ar  154  HEM154      0.0000
     10  C4A       37.7910    4.6280    8.3190 C.ar  154  HEM154      0.0000
     11  CMA       40.1200    4.3530    6.9700 C.3   154  HEM154      0.0000
     12  CAA       40.6310    2.4880    9.3740 C.3   154  HEM154      0.0000
     13  CBA       40.7410    1.2760    8.4550 C.3   154  HEM154      0.0000
     14  CGA       39.5730    0.3290    8.5890 C.2   154  HEM154      0.0000
     15  O1A       39.3100   -0.1250    9.6960 O.co2 154  HEM154      0.0000
     16  O2A       38.8060    0.2320    7.6420 O.co2 154  HEM154      0.0000
     17  NB        34.9810    5.7230    8.5350 N.2   154  HEM154      0.0000
     18  C1B       35.8630    6.0230    7.5440 C.2   154  HEM154      0.0000
     19  C2B       35.2890    7.0020    6.6340 C.2   154  HEM154      0.0000
     20  C3B       34.0820    7.3250    7.1310 C.2   154  HEM154      0.0000
     21  C4B       33.9020    6.5350    8.3360 C.2   154  HEM154      0.0000
     22  CMB       35.9460    7.4910    5.3270 C.3   154  HEM154      0.0000
     23  CAB       33.1580    8.1520    6.5460 C.3   154  HEM154      0.0000
     24  CBB       33.3990    9.5260    6.1540 C.3   154  HEM154      0.0000
     25  NC        33.5080    4.8090   10.7340 N.ar  154  HEM154      0.0000
     26  C1C       32.6270    5.7620   10.3410 C.ar  154  HEM154      0.0000
     27  C2C       31.6250    5.9640   11.3150 C.ar  154  HEM154      0.0000
     28  C3C       31.8210    5.1110   12.3320 C.ar  154  HEM154      0.0000
     29  C4C       32.9910    4.3940   11.9820 C.ar  154  HEM154      0.0000
     30  CMC       30.4350    6.9120   11.1060 C.3   154  HEM154      0.0000
     31  CAC       31.0730    4.8260   13.5730 C.3   154  HEM154      0.0000
     32  CBC       29.9180    5.4330   14.1990 C.3   154  HEM154      0.0000
     33  ND        35.6780    3.2050   11.6390 N.2   154  HEM154      0.0000
     34  C1D       34.8450    2.9820   12.7630 C.2   154  HEM154      0.0000
     35  C2D       35.4890    2.0520   13.6990 C.2   154  HEM154      0.0000
     36  C3D       36.6800    1.8410   13.2370 C.2   154  HEM154      0.0000
     37  C4D       36.8030    2.5500   11.9660 C.2   154  HEM154      0.0000
     38  CMD       34.9310    1.3220   14.9420 C.3   154  HEM154      0.0000
     39  CAD       37.7810    1.0680   13.9370 C.3   154  HEM154      0.0000
     40  CBD       38.5980    1.9590   14.8620 C.3   154  HEM154      0.0000
     41  CGD       39.6460    1.2010   15.6650 C.2   154  HEM154      0.0000
     42  O1D       39.3220    0.7530   16.7570 O.co2 154  HEM154      0.0000
     43  O2D       40.6130    0.7600   15.0740 O.co2 154  HEM154      0.0000
@<TRIPOS>BOND
     1    22    19    1
     2    24    23    1
     3    23    20    1
     4    19    20    2
     5    19    18    1
     6    11     9    1
     7    20    21    1
     8     3    18    1
     9     3    10    2
    10    18    17    2
    11    16    14   ar
    12     9    10   ar
    13     9     8   ar
    14    10     6   ar
    15    21    17    1
    16    21     4    2
    17    13    14    1
    18    13    12    1
    19    17     1    1
    20    14    15   ar
    21     4    26    1
    22     8    12    1
    23     8     7   ar
    24     6     1    1
    25     6     7   ar
    26     1    25    1
    27     1    33    1
    28     7     2    2
    29    26    25   ar
    30    26    27   ar
    31    25    29   ar
    32    30    27    1
    33     2    37    1
    34    27    28   ar
    35    33    37    2
    36    33    34    1
    37    37    36    1
    38    29    28   ar
    39    29     5    1
    40    28    31    1
    41    34     5    2
    42    34    35    1
    43    36    35    2
    44    36    39    1
    45    31    32    1
    46    35    38    1
    47    39    40    1
    48    40    41    1
    49    43    41   ar
    50    41    42   ar
