@<TRIPOS>MOLECULE
2mgh_HEM_A_1.pdb
 43 50 0 0 0
SMALL
GASTEIGER

@<TRIPOS>ATOM
      1 FE         35.3220    4.3280   10.2060 Fe    154  HEM154      0.0000
      2  CHA       37.9850    2.4010   11.2240 C.2   154  HEM154      0.0000
      3  CHB       37.1590    5.3940    7.5320 C.2   154  HEM154      0.0000
      4  CHC       32.6680    6.1450    9.1240 C.2   154  HEM154      0.0000
      5  CHD       33.5250    3.2700   12.8710 C.2   154  HEM154      0.0000
      6  NA        37.1960    4.0040    9.5550 N.ar  154  HEM154      0.0000
      7  C1A       38.1400    3.2070   10.1280 C.ar  154  HEM154      0.0000
      8  C2A       39.3350    3.2220    9.2840 C.ar  154  HEM154      0.0000
      9  C3A       39.1110    4.0200    8.2520 C.ar  154  HEM154      0.0000
     10  C4A       37.7390    4.4860    8.3760 C.ar  154  HEM154      0.0000
     11  CMA       40.0410    4.3830    7.0780 C.3   154  HEM154      0.0000
     12  CAA       40.5750    2.3220    9.5780 C.3   154  HEM154      0.0000
     13  CBA       40.6110    1.0900    8.6050 C.3   154  HEM154      0.0000
     14  CGA       39.3480    0.2610    8.6790 C.2   154  HEM154      0.0000
     15  O1A       39.0880   -0.3160    9.7840 O.co2 154  HEM154      0.0000
     16  O2A       38.7140    0.0950    7.6240 O.co2 154  HEM154      0.0000
     17  NB        34.9750    5.5130    8.6100 N.2   154  HEM154      0.0000
     18  C1B       35.8780    5.8760    7.6560 C.2   154  HEM154      0.0000
     19  C2B       35.2440    6.7850    6.7110 C.2   154  HEM154      0.0000
     20  C3B       33.9860    6.9740    7.1280 C.2   154  HEM154      0.0000
     21  C4B       33.8170    6.2400    8.3670 C.2   154  HEM154      0.0000
     22  CMB       35.9280    7.2900    5.4220 C.3   154  HEM154      0.0000
     23  CAB       32.8910    7.8590    6.5090 C.2   154  HEM154      0.0000
     24  CBB       33.1880    9.1780    6.3990 C.2   154  HEM154      0.0000
     25  NC        33.4290    4.5730   10.7980 N.ar  154  HEM154      0.0000
     26  C1C       32.5490    5.5130   10.3480 C.ar  154  HEM154      0.0000
     27  C2C       31.4410    5.6630   11.2700 C.ar  154  HEM154      0.0000
     28  C3C       31.7010    4.8650   12.3120 C.ar  154  HEM154      0.0000
     29  C4C       32.9000    4.1470   12.0180 C.ar  154  HEM154      0.0000
     30  CMC       30.2600    6.6190   10.9950 C.3   154  HEM154      0.0000
     31  CAC       30.9030    4.6200   13.6280 C.2   154  HEM154      0.0000
     32  CBC       29.8320    5.3080   13.9310 C.2   154  HEM154      0.0000
     33  ND        35.6500    3.0170   11.6970 N.2   154  HEM154      0.0000
     34  C1D       34.7930    2.7960   12.7610 C.2   154  HEM154      0.0000
     35  C2D       35.4540    1.9510   13.7290 C.2   154  HEM154      0.0000
     36  C3D       36.6580    1.6670   13.2330 C.2   154  HEM154      0.0000
     37  C4D       36.8270    2.3690   11.9900 C.2   154  HEM154      0.0000
     38  CMD       34.7880    1.4610   15.0220 C.3   154  HEM154      0.0000
     39  CAD       37.7890    0.9240   14.0090 C.3   154  HEM154      0.0000
     40  CBD       38.4360    1.8720   15.0770 C.3   154  HEM154      0.0000
     41  CGD       39.4850    1.1140   15.9030 C.2   154  HEM154      0.0000
     42  O1D       39.0380    0.4190   16.8660 O.co2 154  HEM154      0.0000
     43  O2D       40.5930    0.9790   15.3710 O.co2 154  HEM154      0.0000
@<TRIPOS>BOND
     1    22    19    1
     2    24    23    2
     3    23    20    1
     4    19    20    2
     5    19    18    1
     6    11     9    1
     7    20    21    1
     8     3    18    1
     9     3    10    2
    10    16    14   ar
    11    18    17    2
    12     9    10   ar
    13     9     8   ar
    14    21    17    1
    15    21     4    2
    16    10     6   ar
    17    13    14    1
    18    13    12    1
    19    17     1    1
    20    14    15   ar
    21     4    26    1
    22     8    12    1
    23     8     7   ar
    24     6     7   ar
    25     6     1    1
    26     7     2    2
    27     1    25    1
    28     1    33    1
    29    26    25   ar
    30    26    27   ar
    31    25    29   ar
    32    30    27    1
    33     2    37    1
    34    27    28   ar
    35    33    37    2
    36    33    34    1
    37    37    36    1
    38    29    28   ar
    39    29     5    1
    40    28    31    1
    41    34     5    2
    42    34    35    1
    43    36    35    2
    44    36    39    1
    45    31    32    2
    46    35    38    1
    47    39    40    1
    48    40    41    1
    49    43    41   ar
    50    41    42   ar
