@<TRIPOS>MOLECULE
2mgi_HEM_A_1.pdb
 43 50 0 0 0
SMALL
GASTEIGER

@<TRIPOS>ATOM
      1 FE         35.3480    4.2720   10.0710 Fe    154  HEM154      0.0000
      2  CHA       38.0480    2.5070   11.1560 C.2   154  HEM154      0.0000
      3  CHB       37.1710    5.3330    7.4440 C.2   154  HEM154      0.0000
      4  CHC       32.7610    6.2760    9.0490 C.2   154  HEM154      0.0000
      5  CHD       33.6380    3.4160   12.8700 C.2   154  HEM154      0.0000
      6  NA        37.1920    4.0440    9.5140 N.ar  154  HEM154      0.0000
      7  C1A       38.1840    3.2640   10.0530 C.ar  154  HEM154      0.0000
      8  C2A       39.3760    3.2600    9.2190 C.ar  154  HEM154      0.0000
      9  C3A       39.1470    4.0880    8.1310 C.ar  154  HEM154      0.0000
     10  C4A       37.7810    4.5380    8.3320 C.ar  154  HEM154      0.0000
     11  CMA       40.0920    4.3710    6.9140 C.3   154  HEM154      0.0000
     12  CAA       40.6790    2.4070    9.4680 C.3   154  HEM154      0.0000
     13  CBA       40.7050    1.2090    8.5390 C.3   154  HEM154      0.0000
     14  CGA       39.4390    0.3780    8.6440 C.2   154  HEM154      0.0000
     15  O1A       39.1590   -0.1430    9.7320 O.co2 154  HEM154      0.0000
     16  O2A       38.6920    0.3090    7.6610 O.co2 154  HEM154      0.0000
     17  NB        34.9900    5.6040    8.6010 N.2   154  HEM154      0.0000
     18  C1B       35.8590    5.8900    7.5570 C.2   154  HEM154      0.0000
     19  C2B       35.2970    6.7870    6.5930 C.2   154  HEM154      0.0000
     20  C3B       34.1000    7.0270    7.0820 C.2   154  HEM154      0.0000
     21  C4B       33.9110    6.3090    8.2950 C.2   154  HEM154      0.0000
     22  CMB       35.8950    7.3970    5.3180 C.3   154  HEM154      0.0000
     23  CAB       33.1780    7.9560    6.5330 C.3   154  HEM154      0.0000
     24  CBB       33.3480    9.2970    6.0110 C.3   154  HEM154      0.0000
     25  NC        33.5700    4.7270   10.8150 N.ar  154  HEM154      0.0000
     26  C1C       32.6490    5.5750   10.3050 C.ar  154  HEM154      0.0000
     27  C2C       31.5040    5.6730   11.2170 C.ar  154  HEM154      0.0000
     28  C3C       31.7340    4.8830   12.3070 C.ar  154  HEM154      0.0000
     29  C4C       33.0170    4.2700   12.0220 C.ar  154  HEM154      0.0000
     30  CMC       30.3810    6.6780   11.0490 C.3   154  HEM154      0.0000
     31  CAC       31.0550    4.7650   13.5970 C.3   154  HEM154      0.0000
     32  CBC       29.7990    5.3170   14.0240 C.3   154  HEM154      0.0000
     33  ND        35.8140    3.2430   11.6050 N.2   154  HEM154      0.0000
     34  C1D       34.9290    2.9590   12.7150 C.2   154  HEM154      0.0000
     35  C2D       35.5640    2.1070   13.6810 C.2   154  HEM154      0.0000
     36  C3D       36.8150    1.8900   13.2550 C.2   154  HEM154      0.0000
     37  C4D       36.9420    2.5560   11.9210 C.2   154  HEM154      0.0000
     38  CMD       34.9800    1.5050   14.9160 C.3   154  HEM154      0.0000
     39  CAD       37.9480    1.3240   14.1310 C.3   154  HEM154      0.0000
     40  CBD       38.6610    2.3720   14.9910 C.3   154  HEM154      0.0000
     41  CGD       39.9090    1.8140   15.6750 C.2   154  HEM154      0.0000
     42  O1D       39.7500    1.0580   16.6460 O.co2 154  HEM154      0.0000
     43  O2D       40.9410    1.7460   15.0020 O.co2 154  HEM154      0.0000
@<TRIPOS>BOND
     1    22    19    1
     2    24    23    1
     3    23    20    1
     4    19    20    2
     5    19    18    1
     6    11     9    1
     7    20    21    1
     8     3    18    1
     9     3    10    2
    10    18    17    2
    11    16    14   ar
    12     9    10   ar
    13     9     8   ar
    14    21    17    1
    15    21     4    2
    16    10     6   ar
    17    13    14    1
    18    13    12    1
    19    17     1    1
    20    14    15   ar
    21     4    26    1
    22     8    12    1
    23     8     7   ar
    24     6     7   ar
    25     6     1    1
    26     7     2    2
    27     1    25    1
    28     1    33    1
    29    26    25   ar
    30    26    27   ar
    31    25    29   ar
    32    30    27    1
    33     2    37    1
    34    27    28   ar
    35    33    37    2
    36    33    34    1
    37    37    36    1
    38    29    28   ar
    39    29     5    1
    40    28    31    1
    41    34     5    2
    42    34    35    1
    43    36    35    2
    44    36    39    1
    45    31    32    1
    46    35    38    1
    47    39    40    1
    48    40    41    1
    49    43    41   ar
    50    41    42   ar
