@<TRIPOS>MOLECULE
2mgj_HEM_A_1.pdb
 43 50 0 0 0
SMALL
GASTEIGER

@<TRIPOS>ATOM
      1 FE         35.2430    4.3520   10.0170 Fe    154  HEM154      0.0000
      2  CHA       38.0340    2.7330   11.2600 C.2   154  HEM154      0.0000
      3  CHB       36.9950    5.3820    7.3990 C.2   154  HEM154      0.0000
      4  CHC       32.6880    6.3970    9.0530 C.2   154  HEM154      0.0000
      5  CHD       33.5350    3.5530   12.8430 C.2   154  HEM154      0.0000
      6  NA        37.0820    4.1950    9.4740 N.ar  154  HEM154      0.0000
      7  C1A       38.1090    3.4860   10.0610 C.ar  154  HEM154      0.0000
      8  C2A       39.3000    3.4710    9.2300 C.ar  154  HEM154      0.0000
      9  C3A       38.9860    4.1760    8.1540 C.ar  154  HEM154      0.0000
     10  C4A       37.6310    4.6220    8.3070 C.ar  154  HEM154      0.0000
     11  CMA       39.9200    4.3670    6.9590 C.3   154  HEM154      0.0000
     12  CAA       40.6020    2.6060    9.4500 C.3   154  HEM154      0.0000
     13  CBA       40.7150    1.2680    8.7480 C.3   154  HEM154      0.0000
     14  CGA       39.4500    0.4380    8.8410 C.2   154  HEM154      0.0000
     15  O1A       39.1050   -0.0090    9.9350 O.co2 154  HEM154      0.0000
     16  O2A       38.7200    0.3690    7.8420 O.co2 154  HEM154      0.0000
     17  NB        34.9030    5.7530    8.5380 N.2   154  HEM154      0.0000
     18  C1B       35.7280    6.0250    7.5500 C.2   154  HEM154      0.0000
     19  C2B       35.1650    6.9330    6.5820 C.2   154  HEM154      0.0000
     20  C3B       33.9680    7.2320    7.0830 C.2   154  HEM154      0.0000
     21  C4B       33.8120    6.4310    8.2580 C.2   154  HEM154      0.0000
     22  CMB       35.7700    7.3530    5.2490 C.3   154  HEM154      0.0000
     23  CAB       32.9940    8.1470    6.5970 C.3   154  HEM154      0.0000
     24  CBB       33.2190    9.4980    6.1550 C.3   154  HEM154      0.0000
     25  NC        33.5360    4.9130   10.8170 N.ar  154  HEM154      0.0000
     26  C1C       32.6560    5.7160   10.3060 C.ar  154  HEM154      0.0000
     27  C2C       31.5680    5.8690   11.2430 C.ar  154  HEM154      0.0000
     28  C3C       31.7730    5.0580   12.3260 C.ar  154  HEM154      0.0000
     29  C4C       32.9960    4.4640   12.0350 C.ar  154  HEM154      0.0000
     30  CMC       30.3730    6.7790   10.9520 C.3   154  HEM154      0.0000
     31  CAC       30.9160    4.8470   13.5920 C.3   154  HEM154      0.0000
     32  CBC       29.6440    5.4640   13.8870 C.3   154  HEM154      0.0000
     33  ND        35.7990    3.4770   11.6750 N.2   154  HEM154      0.0000
     34  C1D       34.8710    3.1950   12.7490 C.2   154  HEM154      0.0000
     35  C2D       35.5100    2.4310   13.7330 C.2   154  HEM154      0.0000
     36  C3D       36.7730    2.2270   13.3430 C.2   154  HEM154      0.0000
     37  C4D       36.9620    2.8440   12.0220 C.2   154  HEM154      0.0000
     38  CMD       34.8590    1.8460   14.9510 C.3   154  HEM154      0.0000
     39  CAD       37.8830    1.7400   14.2680 C.3   154  HEM154      0.0000
     40  CBD       38.7170    2.9110   14.8000 C.3   154  HEM154      0.0000
     41  CGD       39.9030    2.4520   15.6460 C.2   154  HEM154      0.0000
     42  O1D       39.6340    2.0280   16.7500 O.co2 154  HEM154      0.0000
     43  O2D       40.9040    2.0200   15.0880 O.co2 154  HEM154      0.0000
@<TRIPOS>BOND
     1    22    19    1
     2    24    23    1
     3    19    20    2
     4    19    18    1
     5    23    20    1
     6    11     9    1
     7    20    21    1
     8     3    18    1
     9     3    10    2
    10    18    17    2
    11    16    14   ar
    12     9    10   ar
    13     9     8   ar
    14    21    17    1
    15    21     4    2
    16    10     6   ar
    17    17     1    1
    18    13    14    1
    19    13    12    1
    20    14    15   ar
    21     4    26    1
    22     8    12    1
    23     8     7   ar
    24     6     1    1
    25     6     7   ar
    26     1    25    1
    27     1    33    1
    28     7     2    2
    29    26    25   ar
    30    26    27   ar
    31    25    29   ar
    32    30    27    1
    33    27    28   ar
    34     2    37    1
    35    33    37    2
    36    33    34    1
    37    37    36    1
    38    29    28   ar
    39    29     5    1
    40    28    31    1
    41    34     5    2
    42    34    35    1
    43    36    35    2
    44    36    39    1
    45    31    32    1
    46    35    38    1
    47    39    40    1
    48    40    41    1
    49    43    41   ar
    50    41    42   ar
