@<TRIPOS>MOLECULE
2mgk_HEM_A_1.pdb
 43 50 0 0 0
SMALL
GASTEIGER

@<TRIPOS>ATOM
      1 FE         35.0720    4.3590   10.1780 Fe    154  HEM154      0.0000
      2  CHA       37.7620    2.4610   11.5260 C.2   154  HEM154      0.0000
      3  CHB       37.0230    5.4280    7.7260 C.2   154  HEM154      0.0000
      4  CHC       32.3660    6.2010    9.0600 C.2   154  HEM154      0.0000
      5  CHD       33.1910    3.2140   12.8830 C.2   154  HEM154      0.0000
      6  NA        36.9410    4.0560    9.7840 N.ar  154  HEM154      0.0000
      7  C1A       37.9360    3.2730   10.3860 C.ar  154  HEM154      0.0000
      8  C2A       39.2830    3.3360    9.6360 C.ar  154  HEM154      0.0000
      9  C3A       39.0390    4.1090    8.5200 C.ar  154  HEM154      0.0000
     10  C4A       37.6200    4.6200    8.6730 C.ar  154  HEM154      0.0000
     11  CMA       39.8430    4.5180    7.2800 C.3   154  HEM154      0.0000
     12  CAA       40.4820    2.4440    9.8970 C.3   154  HEM154      0.0000
     13  CBA       40.4990    1.2090    8.9710 C.3   154  HEM154      0.0000
     14  CGA       39.2060    0.3720    8.9780 C.2   154  HEM154      0.0000
     15  O1A       38.8850   -0.2480   10.0010 O.co2 154  HEM154      0.0000
     16  O2A       38.5620    0.2550    7.9210 O.co2 154  HEM154      0.0000
     17  NB        34.7690    5.5560    8.7090 N.2   154  HEM154      0.0000
     18  C1B       35.6840    5.8440    7.7460 C.2   154  HEM154      0.0000
     19  C2B       35.1700    6.8340    6.7750 C.2   154  HEM154      0.0000
     20  C3B       33.8800    7.0490    7.1900 C.2   154  HEM154      0.0000
     21  C4B       33.6710    6.2350    8.3880 C.2   154  HEM154      0.0000
     22  CMB       35.7530    7.3620    5.4660 C.3   154  HEM154      0.0000
     23  CAB       32.8740    7.9170    6.5620 C.3   154  HEM154      0.0000
     24  CBB       33.1280    9.2980    6.1980 C.3   154  HEM154      0.0000
     25  NC        33.2770    4.6640   10.8280 N.ar  154  HEM154      0.0000
     26  C1C       32.3200    5.5210   10.3180 C.ar  154  HEM154      0.0000
     27  C2C       31.1860    5.5770   11.1260 C.ar  154  HEM154      0.0000
     28  C3C       31.3370    4.7370   12.2310 C.ar  154  HEM154      0.0000
     29  C4C       32.6500    4.0870   11.9620 C.ar  154  HEM154      0.0000
     30  CMC       29.9290    6.4340   10.8320 C.3   154  HEM154      0.0000
     31  CAC       30.4980    4.5400   13.4420 C.3   154  HEM154      0.0000
     32  CBC       29.3480    5.3280   13.8620 C.3   154  HEM154      0.0000
     33  ND        35.4670    3.0500   11.7890 N.2   154  HEM154      0.0000
     34  C1D       34.5370    2.8310   12.8990 C.2   154  HEM154      0.0000
     35  C2D       35.0870    1.8700   13.9020 C.2   154  HEM154      0.0000
     36  C3D       36.3510    1.6870   13.4540 C.2   154  HEM154      0.0000
     37  C4D       36.5640    2.4490   12.2430 C.2   154  HEM154      0.0000
     38  CMD       34.1710    1.1220   14.9610 C.3   154  HEM154      0.0000
     39  CAD       37.4740    1.0890   14.2430 C.3   154  HEM154      0.0000
     40  CBD       38.1310    2.1530   15.1420 C.3   154  HEM154      0.0000
     41  CGD       39.2730    1.6040   16.0170 C.2   154  HEM154      0.0000
     42  O1D       38.9830    0.9850   17.0370 O.co2 154  HEM154      0.0000
     43  O2D       40.3650    1.4300   15.5060 O.co2 154  HEM154      0.0000
@<TRIPOS>BOND
     1    22    19    1
     2    24    23    1
     3    23    20    1
     4    19    20    2
     5    19    18    1
     6    20    21    1
     7    11     9    1
     8     3    18    1
     9     3    10    2
    10    18    17    2
    11    16    14   ar
    12    21    17    1
    13    21     4    2
    14     9    10   ar
    15     9     8   ar
    16    10     6   ar
    17    17     1    1
    18    13    14    1
    19    13    12    1
    20    14    15   ar
    21     4    26    1
    22     8    12    1
    23     8     7   ar
    24     6     1    1
    25     6     7   ar
    26     1    25    1
    27     1    33    1
    28    26    25   ar
    29    26    27   ar
    30     7     2    2
    31    25    29   ar
    32    30    27    1
    33    27    28   ar
    34     2    37    1
    35    33    37    2
    36    33    34    1
    37    29    28   ar
    38    29     5    1
    39    28    31    1
    40    37    36    1
    41     5    34    2
    42    34    35    1
    43    31    32    1
    44    36    35    2
    45    36    39    1
    46    35    38    1
    47    39    40    1
    48    40    41    1
    49    43    41   ar
    50    41    42   ar
