@<TRIPOS>MOLECULE
2mgl_HEM_A_1.pdb
 43 50 0 0 0
SMALL
GASTEIGER

@<TRIPOS>ATOM
      1 FE         35.1620    4.2620    9.8750 Fe    154  HEM154      0.0000
      2  CHA       37.8870    2.5100   11.3130 C.2   154  HEM154      0.0000
      3  CHB       37.1080    5.4420    7.5180 C.2   154  HEM154      0.0000
      4  CHC       32.7320    6.4150    9.1720 C.2   154  HEM154      0.0000
      5  CHD       33.4430    3.4570   12.8980 C.2   154  HEM154      0.0000
      6  NA        37.0190    4.0650    9.5480 N.ar  154  HEM154      0.0000
      7  C1A       38.0130    3.3130   10.1400 C.ar  154  HEM154      0.0000
      8  C2A       39.3110    3.2450    9.3180 C.ar  154  HEM154      0.0000
      9  C3A       39.0590    4.0380    8.1850 C.ar  154  HEM154      0.0000
     10  C4A       37.6720    4.5560    8.4100 C.ar  154  HEM154      0.0000
     11  CMA       39.9930    4.3870    7.0580 C.3   154  HEM154      0.0000
     12  CAA       40.5810    2.2880    9.6130 C.3   154  HEM154      0.0000
     13  CBA       40.6020    1.1690    8.5720 C.3   154  HEM154      0.0000
     14  CGA       39.3660    0.2960    8.6710 C.2   154  HEM154      0.0000
     15  O1A       39.0980   -0.2660    9.7620 O.co2 154  HEM154      0.0000
     16  O2A       38.6620    0.1850    7.6730 O.co2 154  HEM154      0.0000
     17  NB        34.9640    5.6880    8.6010 N.2   154  HEM154      0.0000
     18  C1B       35.8350    5.9960    7.5670 C.2   154  HEM154      0.0000
     19  C2B       35.2690    6.9750    6.6350 C.2   154  HEM154      0.0000
     20  C3B       34.0450    7.2050    7.1310 C.2   154  HEM154      0.0000
     21  C4B       33.8920    6.4410    8.3840 C.2   154  HEM154      0.0000
     22  CMB       35.8350    7.4970    5.3130 C.3   154  HEM154      0.0000
     23  CAB       33.0510    8.1690    6.6630 C.3   154  HEM154      0.0000
     24  CBB       33.3420    9.4370    6.0410 C.3   154  HEM154      0.0000
     25  NC        33.4800    4.7860   10.7210 N.ar  154  HEM154      0.0000
     26  C1C       32.6080    5.7000   10.2950 C.ar  154  HEM154      0.0000
     27  C2C       31.4840    5.9280   11.1840 C.ar  154  HEM154      0.0000
     28  C3C       31.6490    5.1200   12.3080 C.ar  154  HEM154      0.0000
     29  C4C       32.9110    4.3690   11.9950 C.ar  154  HEM154      0.0000
     30  CMC       30.2720    6.8160   10.8440 C.3   154  HEM154      0.0000
     31  CAC       30.8220    4.7340   13.4790 C.3   154  HEM154      0.0000
     32  CBC       29.8660    5.5310   14.1850 C.3   154  HEM154      0.0000
     33  ND        35.6080    3.2470   11.6480 N.2   154  HEM154      0.0000
     34  C1D       34.7380    3.0440   12.7870 C.2   154  HEM154      0.0000
     35  C2D       35.3470    2.0570   13.7300 C.2   154  HEM154      0.0000
     36  C3D       36.6140    1.8320   13.2590 C.2   154  HEM154      0.0000
     37  C4D       36.7430    2.5350   12.0220 C.2   154  HEM154      0.0000
     38  CMD       34.6300    1.3280   14.8730 C.3   154  HEM154      0.0000
     39  CAD       37.7120    1.1720   13.9970 C.3   154  HEM154      0.0000
     40  CBD       38.4330    2.1740   14.9230 C.3   154  HEM154      0.0000
     41  CGD       39.5530    1.5500   15.7690 C.2   154  HEM154      0.0000
     42  O1D       39.2280    0.6170   16.4920 O.co2 154  HEM154      0.0000
     43  O2D       40.7000    1.5770   15.3320 O.co2 154  HEM154      0.0000
@<TRIPOS>BOND
     1    22    19    1
     2    24    23    1
     3    19    20    2
     4    19    18    1
     5    23    20    1
     6    11     9    1
     7    20    21    1
     8     3    18    1
     9     3    10    2
    10    18    17    2
    11    16    14   ar
    12     9    10   ar
    13     9     8   ar
    14    21    17    1
    15    21     4    2
    16    10     6   ar
    17    13    14    1
    18    13    12    1
    19    17     1    1
    20    14    15   ar
    21     4    26    1
    22     8    12    1
    23     8     7   ar
    24     6     1    1
    25     6     7   ar
    26     1    25    1
    27     1    33    1
    28     7     2    2
    29    26    25   ar
    30    26    27   ar
    31    25    29   ar
    32    30    27    1
    33    27    28   ar
    34     2    37    1
    35    33    37    2
    36    33    34    1
    37    29    28   ar
    38    29     5    1
    39    37    36    1
    40    28    31    1
    41    34     5    2
    42    34    35    1
    43    36    35    2
    44    36    39    1
    45    31    32    1
    46    35    38    1
    47    39    40    1
    48    40    41    1
    49    43    41   ar
    50    41    42   ar
