@<TRIPOS>MOLECULE
2mgm_HEM_A_1.pdb
 43 50 0 0 0
SMALL
GASTEIGER

@<TRIPOS>ATOM
      1 FE         35.1110    4.2380   10.1990 Fe    154  HEM154      0.0000
      2  CHA       37.8290    2.3020   11.4550 C.2   154  HEM154      0.0000
      3  CHB       37.0590    5.2870    7.7230 C.2   154  HEM154      0.0000
      4  CHC       32.5340    6.1250    9.2120 C.2   154  HEM154      0.0000
      5  CHD       33.2620    3.2580   12.9550 C.2   154  HEM154      0.0000
      6  NA        36.9880    3.9530    9.7300 N.ar  154  HEM154      0.0000
      7  C1A       37.9830    3.1230   10.3340 C.ar  154  HEM154      0.0000
      8  C2A       39.2690    3.2070    9.5300 C.ar  154  HEM154      0.0000
      9  C3A       39.0060    3.9720    8.4480 C.ar  154  HEM154      0.0000
     10  C4A       37.6330    4.4690    8.6330 C.ar  154  HEM154      0.0000
     11  CMA       39.8640    4.3940    7.2450 C.3   154  HEM154      0.0000
     12  CAA       40.5180    2.2490    9.7610 C.3   154  HEM154      0.0000
     13  CBA       40.5460    1.1130    8.7510 C.3   154  HEM154      0.0000
     14  CGA       39.2950    0.2150    8.7950 C.2   154  HEM154      0.0000
     15  O1A       38.9220   -0.2940    9.8950 O.co2 154  HEM154      0.0000
     16  O2A       38.6070    0.1500    7.7610 O.co2 154  HEM154      0.0000
     17  NB        34.8180    5.4760    8.8020 N.2   154  HEM154      0.0000
     18  C1B       35.7240    5.7940    7.8340 C.2   154  HEM154      0.0000
     19  C2B       35.1950    6.8180    6.8120 C.2   154  HEM154      0.0000
     20  C3B       33.9420    6.9810    7.3010 C.2   154  HEM154      0.0000
     21  C4B       33.7430    6.1680    8.4900 C.2   154  HEM154      0.0000
     22  CMB       35.8550    7.4000    5.5210 C.3   154  HEM154      0.0000
     23  CAB       33.0220    7.9850    6.7240 C.3   154  HEM154      0.0000
     24  CBB       33.1740    9.2920    6.1280 C.3   154  HEM154      0.0000
     25  NC        33.2240    4.6100   10.9220 N.ar  154  HEM154      0.0000
     26  C1C       32.3550    5.4720   10.3950 C.ar  154  HEM154      0.0000
     27  C2C       31.1150    5.5480   11.1900 C.ar  154  HEM154      0.0000
     28  C3C       31.2680    4.7450   12.2980 C.ar  154  HEM154      0.0000
     29  C4C       32.6530    4.1240   12.0880 C.ar  154  HEM154      0.0000
     30  CMC       29.9760    6.4660   10.8090 C.3   154  HEM154      0.0000
     31  CAC       30.4800    4.5380   13.5620 C.3   154  HEM154      0.0000
     32  CBC       29.2900    5.2660   13.9170 C.3   154  HEM154      0.0000
     33  ND        35.4870    3.0650   11.8520 N.2   154  HEM154      0.0000
     34  C1D       34.5680    2.8020   12.8770 C.2   154  HEM154      0.0000
     35  C2D       35.1600    1.7720   13.8410 C.2   154  HEM154      0.0000
     36  C3D       36.4110    1.6530   13.3990 C.2   154  HEM154      0.0000
     37  C4D       36.6160    2.3550   12.1980 C.2   154  HEM154      0.0000
     38  CMD       34.4380    1.1180   15.0370 C.3   154  HEM154      0.0000
     39  CAD       37.5320    1.0180   14.2040 C.3   154  HEM154      0.0000
     40  CBD       38.1210    2.0550   15.1810 C.3   154  HEM154      0.0000
     41  CGD       39.2990    1.5010   15.9870 C.2   154  HEM154      0.0000
     42  O1D       39.0670    0.8180   16.9780 O.co2 154  HEM154      0.0000
     43  O2D       40.3260    1.3060   15.3770 O.co2 154  HEM154      0.0000
@<TRIPOS>BOND
     1    22    19    1
     2    24    23    1
     3    23    20    1
     4    19    20    2
     5    19    18    1
     6    11     9    1
     7    20    21    1
     8     3    18    1
     9     3    10    2
    10    16    14   ar
    11    18    17    2
    12     9    10   ar
    13     9     8   ar
    14    21    17    1
    15    21     4    2
    16    10     6   ar
    17    13    14    1
    18    13    12    1
    19    14    15   ar
    20    17     1    1
    21     4    26    1
    22     8    12    1
    23     8     7   ar
    24     6     1    1
    25     6     7   ar
    26     1    25    1
    27     1    33    1
    28     7     2    2
    29    26    25   ar
    30    26    27   ar
    31    30    27    1
    32    25    29   ar
    33    27    28   ar
    34     2    37    1
    35    33    37    2
    36    33    34    1
    37    29    28   ar
    38    29     5    1
    39    37    36    1
    40    28    31    1
    41    34     5    2
    42    34    35    1
    43    36    35    2
    44    36    39    1
    45    31    32    1
    46    35    38    1
    47    39    40    1
    48    40    41    1
    49    43    41   ar
    50    41    42   ar
