@<TRIPOS>MOLECULE
2mhb_HEM_A_1.pdb
 43 50 0 0 0
SMALL
GASTEIGER

@<TRIPOS>ATOM
      1  CHA        5.1230  -10.8580   20.1100 C.2   142  HEM142      0.0000
      2  CHB        7.2570  -12.6110   16.1520 C.2   142  HEM142      0.0000
      3  CHC        5.9760   -8.6510   13.7080 C.2   142  HEM142      0.0000
      4  CHD        3.8420   -6.8980   17.6660 C.2   142  HEM142      0.0000
      5  C1A        5.8140  -11.6790   19.2490 C.ar  142  HEM142      0.0000
      6  C2A        6.3750  -12.9760   19.5930 C.ar  142  HEM142      0.0000
      7  C3A        6.9640  -13.4600   18.4990 C.ar  142  HEM142      0.0000
      8  C4A        6.7890  -12.4800   17.4390 C.ar  142  HEM142      0.0000
      9  CMA        7.6810  -14.7900   18.3990 C.3   142  HEM142      0.0000
     10  CAA        6.3110  -13.6650   20.9390 C.3   142  HEM142      0.0000
     11  CBA        6.4330  -12.6150   21.9990 C.3   142  HEM142      0.0000
     12  CGA        6.4340  -13.3180   23.3570 C.2   142  HEM142      0.0000
     13  O1A        6.4080  -14.5370   23.4180 O.co2 142  HEM142      0.0000
     14  O2A        6.4590  -12.6950   24.3550 O.co2 142  HEM142      0.0000
     15  C1B        7.0950  -11.6890   15.1430 C.2   142  HEM142      0.0000
     16  C2B        7.5920  -11.8340   13.7850 C.2   142  HEM142      0.0000
     17  C3B        7.2380  -10.7400   13.1100 C.2   142  HEM142      0.0000
     18  C4B        6.5100   -9.8780   14.0260 C.2   142  HEM142      0.0000
     19  CMB        8.3700  -13.0050   13.2220 C.3   142  HEM142      0.0000
     20  CAB        7.5490  -10.4640   11.6530 C.2   142  HEM142      0.0000
     21  CBB        8.6890  -10.8950   11.1140 C.2   142  HEM142      0.0000
     22  C1C        5.2850   -7.8300   14.5690 C.ar  142  HEM142      0.0000
     23  C2C        4.7240   -6.5340   14.2250 C.ar  142  HEM142      0.0000
     24  C3C        4.1340   -6.0490   15.3190 C.ar  142  HEM142      0.0000
     25  C4C        4.3100   -7.0290   16.3790 C.ar  142  HEM142      0.0000
     26  CMC        4.7870   -5.8440   12.8790 C.3   142  HEM142      0.0000
     27  CAC        3.4180   -4.7190   15.4190 C.2   142  HEM142      0.0000
     28  CBC        4.0510   -3.5890   15.1050 C.2   142  HEM142      0.0000
     29  C1D        4.0040   -7.8200   18.6750 C.2   142  HEM142      0.0000
     30  C2D        3.5060   -7.6750   20.0330 C.2   142  HEM142      0.0000
     31  C3D        3.8600   -8.7690   20.7080 C.2   142  HEM142      0.0000
     32  C4D        4.5890   -9.6300   19.7920 C.2   142  HEM142      0.0000
     33  CMD        2.7280   -6.5040   20.5960 C.3   142  HEM142      0.0000
     34  CAD        3.5500   -9.0460   22.1640 C.3   142  HEM142      0.0000
     35  CBD        4.7650   -8.6980   22.9660 C.3   142  HEM142      0.0000
     36  CGD        4.3980   -8.8120   24.4470 C.2   142  HEM142      0.0000
     37  O1D        3.3260   -8.5090   24.8240 O.co2 142  HEM142      0.0000
     38  O2D        5.2190   -9.2210   25.2540 O.co2 142  HEM142      0.0000
     39  NA         6.0810  -11.3980   17.9230 N.ar  142  HEM142      0.0000
     40  NB         6.4350  -10.4820   15.2670 N.2   142  HEM142      0.0000
     41  NC         5.0180   -8.1110   15.8950 N.ar  142  HEM142      0.0000
     42  ND         4.6640   -9.0270   18.5510 N.2   142  HEM142      0.0000
     43 FE          5.4870   -9.7860   16.8900 Fe    142  HEM142      0.0000
@<TRIPOS>BOND
     1    21    20    2
     2    20    17    1
     3    26    23    1
     4    17    16    2
     5    17    18    1
     6    19    16    1
     7     3    18    2
     8     3    22    1
     9    16    15    1
    10    18    40    1
    11    23    22   ar
    12    23    24   ar
    13    22    41   ar
    14    28    27    2
    15    15    40    2
    16    15     2    1
    17    40    43    1
    18    24    27    1
    19    24    25   ar
    20    41    25   ar
    21    41    43    1
    22     2     8    2
    23    25     4    1
    24    43    39    1
    25    43    42    1
    26     8    39   ar
    27     8     7   ar
    28     4    29    2
    29    39     5   ar
    30     9     7    1
    31     7     6   ar
    32    42    29    1
    33    42    32    2
    34    29    30    1
    35     5     6   ar
    36     5     1    2
    37     6    10    1
    38    32     1    1
    39    32    31    1
    40    30    33    1
    41    30    31    2
    42    31    34    1
    43    10    11    1
    44    11    12    1
    45    34    35    1
    46    35    36    1
    47    12    13   ar
    48    12    14   ar
    49    36    37   ar
    50    36    38   ar
