@<TRIPOS>MOLECULE
2min_CLF_A_1.pdb
 15 31 0 0 0
SMALL
GASTEIGER

@<TRIPOS>ATOM
      1 FE1        -8.0250   -7.9640    2.5490 Fe    498  CLF498      0.0000
      2 FE2        -9.8530   -6.9340    1.4050 Fe    498  CLF498      0.0000
      3 FE3        -8.9810   -9.3760    0.3890 Fe    498  CLF498      0.0000
      4 FE4        -7.5110   -7.1490    0.2670 Fe    498  CLF498      0.0000
      5  S1        -8.0300   -5.7870    1.9690 S.3   498  CLF498      0.0000
      6  S2A       -9.9910   -8.9130    2.3190 S.3   498  CLF498      0.0000
      7  S4A       -9.5170   -7.5350   -0.8060 S.3   498  CLF498      0.0000
      8  S3A       -6.8780   -9.1450    0.9210 S.3   498  CLF498      0.0000
      9 FE5        -4.2950   -5.2290    1.0790 Fe    498  CLF498      0.0000
     10 FE6        -5.9710   -2.7740    3.5050 Fe    498  CLF498      0.0000
     11 FE7        -3.9590   -4.5730    3.7590 Fe    498  CLF498      0.0000
     12 FE8        -6.3330   -5.8790    3.8060 Fe    498  CLF498      0.0000
     13  S2B       -4.2290   -3.1980    1.9870 S.3   498  CLF498      0.0000
     14  S3B       -5.6720   -4.1670    5.2120 S.3   498  CLF498      0.0000
     15  S4B       -4.2120   -6.6550    2.9020 S.3   498  CLF498      0.0000
@<TRIPOS>BOND
     1     7     4    1
     2     7     3    1
     3     7     2    1
     4     4     3    1
     5     4     8    1
     6     4     2    1
     7     4     5    1
     8     4     1    1
     9     3     8    1
    10     3     2    1
    11     3     6    1
    12     3     1    1
    13     8     1    1
    14     9    13    1
    15     9    15    1
    16     9    11    1
    17     2     5    1
    18     2     6    1
    19     2     1    1
    20     5     1    1
    21     5    12    1
    22    13    10    1
    23    13    11    1
    24     6     1    1
    25    15    11    1
    26    15    12    1
    27    10    11    1
    28    10    14    1
    29    11    12    1
    30    11    14    1
    31    12    14    1
