@<TRIPOS>MOLECULE
2min_CFM_A_1.pdb
 17 33 0 0 0
SMALL
GASTEIGER

@<TRIPOS>ATOM
      1 FE1        -9.6380  -24.4880   -9.0440 Fe    496  CFM496      0.0000
      2 FE2        -8.9020  -22.6520   -7.1850 Fe    496  CFM496      0.0000
      3 FE3        -6.9820  -23.8310   -8.6560 Fe    496  CFM496      0.0000
      4 FE4        -8.3240  -25.2510   -6.7810 Fe    496  CFM496      0.0000
      5 FE5        -6.5380  -24.5850   -5.0640 Fe    496  CFM496      0.0000
      6 FE6        -7.0870  -22.0540   -5.4590 Fe    496  CFM496      0.0000
      7 FE7        -5.3070  -23.1320   -6.7440 Fe    496  CFM496      0.0000
      8 MO1        -4.8120  -22.6220   -4.3130 Mo    496  CFM496      0.0000
      9  S1A      -10.3270  -24.2920   -6.8990 S.3   496  CFM496      0.0000
     10  S4A       -7.8620  -25.9660   -8.9090 S.3   496  CFM496      0.0000
     11  S3A       -7.8640  -26.3390   -5.0970 S.3   496  CFM496      0.0000
     12  S2A       -8.6580  -22.5010   -9.4520 S.3   496  CFM496      0.0000
     13  S1B       -6.9970  -22.9790   -3.5110 S.3   496  CFM496      0.0000
     14  S2B       -8.8830  -20.8330   -5.8760 S.3   496  CFM496      0.0000
     15  S3B       -5.1890  -21.1390   -5.7860 S.3   496  CFM496      0.0000
     16  S4B       -4.4380  -24.6070   -5.3860 S.3   496  CFM496      0.0000
     17  S5        -4.9980  -23.3660   -8.8840 S.3   496  CFM496      0.0000
@<TRIPOS>BOND
     1    12     1    1
     2    12     3    1
     3    12     2    1
     4     1    10    1
     5     1     9    1
     6    10     3    1
     7    10     4    1
     8    17     3    1
     9    17     7    1
    10     3     2    1
    11     3     4    1
    12     2     9    1
    13     2     4    1
    14     2    14    1
    15     2     6    1
    16     9     4    1
    17     4    11    1
    18     4     5    1
    19     7    15    1
    20     7     6    1
    21     7    16    1
    22     7     5    1
    23     7     8    1
    24    14     6    1
    25    15     6    1
    26    15     8    1
    27     6     8    1
    28     6    13    1
    29    16     5    1
    30    16     8    1
    31    11     5    1
    32     5    13    1
    33     8    13    1
