@<TRIPOS>MOLECULE
2mjp_ANP_A_1.pdb
 31 33 0 0 0
SMALL
GASTEIGER

@<TRIPOS>ATOM
      1  PG        23.1120   15.4960   -6.0720 P.3   500  ANP500      0.4884
      2  O1G       21.7820   15.3180   -6.7150 O.3   500  ANP500     -0.1240
      3  O2G       24.2490   15.6590   -7.0390 O.2   500  ANP500     -0.2331
      4  O3G       23.0840   16.5860   -5.0490 O.3   500  ANP500     -0.1240
      5  PB        22.3390   13.3310   -4.1250 P.3   500  ANP500      0.4669
      6  O1B       22.6540   11.8750   -4.1330 O.3   500  ANP500     -0.1253
      7  O2B       20.9300   13.7520   -4.4110 O.2   500  ANP500     -0.2351
      8  N3B       23.3510   14.1160   -5.2060 N.3   500  ANP500     -0.0163
      9  PA        24.1560   14.2690   -1.8900 P.3   500  ANP500      0.2220
     10  O1A       25.0940   15.0090   -2.7970 O.2   500  ANP500     -0.5170
     11  O2A       23.8150   14.8580   -0.5640 O.3   500  ANP500     -0.4370
     12  O3A       22.8010   13.9450   -2.7170 O.3   500  ANP500     -0.2360
     13  O5'       24.6420   12.7530   -1.7370 O.3   500  ANP500     -0.3111
     14  C5'       23.9430   11.8190   -0.8670 C.3   500  ANP500      0.1813
     15  C4'       24.4840   10.4070   -0.9000 C.3   500  ANP500      0.1821
     16  O4'       25.9000   10.2680   -0.6190 O.3   500  ANP500     -0.3135
     17  C3'       23.7530    9.4300    0.0090 C.3   500  ANP500      0.2184
     18  O3'       23.0240    8.5630   -0.8360 O.3   500  ANP500     -0.2174
     19  C2'       24.7920    8.7000    0.7940 C.3   500  ANP500      0.2570
     20  O2'       24.7950    7.2850    0.5510 O.3   500  ANP500     -0.2130
     21  C1'       26.1370    9.2330    0.3710 C.3   500  ANP500      0.3186
     22  N9        27.0280    9.6510    1.5260 N.pl3 500  ANP500     -0.1439
     23  C8        26.7180    9.9120    2.8540 C.3   500  ANP500      0.3377
     24  N7        27.7370   10.2370    3.6080 N.2   500  ANP500     -0.2095
     25  C5        28.8100   10.1880    2.7160 C.2   500  ANP500      0.2526
     26  C6        30.2410   10.4300    2.8650 C.2   500  ANP500      0.4393
     27  N6        30.7570   10.7700    4.0220 N.pl3 500  ANP500      0.2180
     28  N1        31.0490   10.2960    1.7620 N.2   500  ANP500      0.0021
     29  C2        30.5000    9.9440    0.5830 C.3   500  ANP500      0.5254
     30  N3        29.1890    9.6870    0.3100 N.2   500  ANP500     -0.0055
     31  C4        28.3890    9.8320    1.4420 C.2   500  ANP500      0.3518
@<TRIPOS>BOND
     1     3     1    2
     2     2     1    1
     3     1     8    1
     4     1     4    1
     5     8     5    1
     6     7     5    2
     7     6     5    1
     8     5    12    1
     9    10     9    2
    10    12     9    1
    11     9    13    1
    12     9    11    1
    13    13    14    1
    14    15    14    1
    15    15    16    1
    16    15    17    1
    17    18    17    1
    18    16    21    1
    19    17    19    1
    20    30    29    1
    21    30    31    2
    22    21    19    1
    23    21    22    1
    24    20    19    1
    25    29    28    1
    26    31    22    1
    27    31    25    1
    28    22    23    1
    29    28    26    2
    30    25    26    1
    31    25    24    2
    32    23    24    1
    33    26    27    1
