@<TRIPOS>MOLECULE
2mpr_GLC_A_1.pdb
 11 11 0 0 0
SMALL
GASTEIGER

@<TRIPOS>ATOM
      1  C1         0.5330   52.2220   68.7630 C.3   429  GLC429      0.1777
      2  C2        -0.4740   51.1900   68.3190 C.3   429  GLC429      0.2141
      3  C3         0.1980   50.2120   67.3690 C.3   429  GLC429      0.2173
      4  C4         0.8190   50.9780   66.2130 C.3   429  GLC429      0.2142
      5  C5         1.7970   52.0020   66.7270 C.3   429  GLC429      0.1810
      6  C6         2.3640   52.8660   65.6110 C.3   429  GLC429      0.2141
      7  O2        -0.9760   50.5120   69.4600 O.3   429  GLC429     -0.2176
      8  O3        -0.7530   49.2780   66.8720 O.3   429  GLC429     -0.2175
      9  O4         1.5180   50.0560   65.3830 O.3   429  GLC429     -0.2176
     10  O5         1.1400   52.8720   67.6510 O.3   429  GLC429     -0.3481
     11  O6         3.3330   53.7790   66.1100 O.3   429  GLC429     -0.2176
@<TRIPOS>BOND
     1     9     4    1
     2     6    11    1
     3     6     5    1
     4     4     5    1
     5     4     3    1
     6     5    10    1
     7     8     3    1
     8     3     2    1
     9    10     1    1
    10     2     1    1
    11     2     7    1
