@<TRIPOS>MOLECULE
2mpr_BGC_A_1.pdb
 12 12 0 0 0
SMALL
GASTEIGER

@<TRIPOS>ATOM
      1  C2         1.6680   53.1170   73.0300 C.3   428  BGC428      0.2434
      2  C3         1.1310   52.2100   71.9290 C.3   428  BGC428      0.2199
      3  C4         1.9260   52.4980   70.6680 C.3   428  BGC428      0.2144
      4  C5         3.4230   52.2700   70.9230 C.3   428  BGC428      0.1836
      5  C6         4.2730   52.6710   69.7380 C.3   428  BGC428      0.2142
      6  C1         3.1310   52.7540   73.2500 C.3   428  BGC428      0.3024
      7  O1         3.6520   53.4910   74.3040 O.3   428  BGC428     -0.1869
      8  O2         0.9300   52.9450   74.2330 O.3   428  BGC428     -0.2148
      9  O3        -0.2580   52.4350   71.7110 O.3   428  BGC428     -0.2174
     10  O4         1.4650   51.6330   69.6120 O.3   428  BGC428     -0.2176
     11  O5         3.8760   53.0490   72.0580 O.3   428  BGC428     -0.3236
     12  O6         3.8040   53.8750   69.1550 O.3   428  BGC428     -0.2176
@<TRIPOS>BOND
     1    12     5    1
     2    10     3    1
     3     5     4    1
     4     3     4    1
     5     3     2    1
     6     4    11    1
     7     9     2    1
     8     2     1    1
     9    11     6    1
    10     1     6    1
    11     1     8    1
    12     6     7    1
