@<TRIPOS>MOLECULE
2msb_MAN_B_1.pdb
 11 11 0 0 0
SMALL
GASTEIGER

@<TRIPOS>ATOM
      1  C1        -2.9530   22.9680    3.5980 C.3     9  MAN9        0.1777
      2  C2        -3.0420   22.9620    2.0900 C.3     9  MAN9        0.2141
      3  C3        -1.9320   22.0720    1.5150 C.3     9  MAN9        0.2173
      4  C4        -0.5770   22.5150    2.0210 C.3     9  MAN9        0.2142
      5  C5        -0.5790   22.6000    3.5440 C.3     9  MAN9        0.1810
      6  C6         0.6800   23.2400    4.0560 C.3     9  MAN9        0.2141
      7  O2        -2.9260   24.2930    1.6030 O.3     9  MAN9       -0.2176
      8  O3        -1.9410   22.1430    0.1020 O.3     9  MAN9       -0.2175
      9  O4         0.3920   21.5660    1.6100 O.3     9  MAN9       -0.2176
     10  O5        -1.6750   23.4110    4.0210 O.3     9  MAN9       -0.3481
     11  O6         0.7270   23.1690    5.4710 O.3     9  MAN9       -0.2176
@<TRIPOS>BOND
     1     8     3    1
     2     3     4    1
     3     3     2    1
     4     7     2    1
     5     9     4    1
     6     4     5    1
     7     2     1    1
     8     5    10    1
     9     5     6    1
    10     1    10    1
    11     6    11    1
