@<TRIPOS>MOLECULE
2mta_HEM_C_1.pdb
 43 50 0 0 0
SMALL
GASTEIGER

@<TRIPOS>ATOM
      1 FE          6.2350   39.0480   40.4090 Fe    200  HEM200      0.0000
      2  CHA        7.5050   39.9810   37.4520 C.2   200  HEM200      0.0000
      3  CHB        9.2480   39.3330   41.8900 C.2   200  HEM200      0.0000
      4  CHC        4.7800   38.7430   43.4520 C.2   200  HEM200      0.0000
      5  CHD        3.1770   38.4290   38.9020 C.2   200  HEM200      0.0000
      6  NA         7.9650   39.6180   39.8380 N.2   200  HEM200      0.0000
      7  C1A        8.3430   40.0000   38.5750 C.2   200  HEM200      0.0000
      8  C2A        9.7530   40.3350   38.5330 C.2   200  HEM200      0.0000
      9  C3A       10.2500   40.1270   39.7820 C.2   200  HEM200      0.0000
     10  C4A        9.1280   39.6870   40.5670 C.2   200  HEM200      0.0000
     11  CMA       11.6490   40.3300   40.3190 C.3   200  HEM200      0.0000
     12  CAA       10.5120   40.7790   37.2720 C.3   200  HEM200      0.0000
     13  CBA       11.0500   39.5370   36.5740 C.3   200  HEM200      0.0000
     14  CGA       12.2560   39.7170   35.6960 C.2   200  HEM200      0.0000
     15  O1A       12.8870   40.7690   35.6780 O.co2 200  HEM200      0.0000
     16  O2A       12.5980   38.7520   35.0130 O.co2 200  HEM200      0.0000
     17  NB         6.9120   38.8880   42.2640 N.ar  200  HEM200      0.0000
     18  C1B        8.2040   38.9090   42.6830 C.ar  200  HEM200      0.0000
     19  C2B        8.3140   38.7150   44.0960 C.ar  200  HEM200      0.0000
     20  C3B        7.0530   38.6580   44.5680 C.ar  200  HEM200      0.0000
     21  C4B        6.1810   38.7760   43.4280 C.ar  200  HEM200      0.0000
     22  CMB        9.6380   38.5300   44.8170 C.3   200  HEM200      0.0000
     23  CAB        6.6170   38.4570   46.0300 C.3   200  HEM200      0.0000
     24  CBB        6.9060   39.6810   46.9290 C.3   200  HEM200      0.0000
     25  NC         4.3820   38.7590   41.0320 N.2   200  HEM200      0.0000
     26  C1C        3.9430   38.7240   42.3350 C.2   200  HEM200      0.0000
     27  C2C        2.5550   38.3340   42.3910 C.2   200  HEM200      0.0000
     28  C3C        2.1190   38.0480   41.1320 C.2   200  HEM200      0.0000
     29  C4C        3.2460   38.3950   40.2910 C.2   200  HEM200      0.0000
     30  CMC        1.7510   38.2640   43.6850 C.3   200  HEM200      0.0000
     31  CAC        0.8190   37.3700   40.7060 C.3   200  HEM200      0.0000
     32  CBC       -0.4860   38.1250   40.7140 C.3   200  HEM200      0.0000
     33  ND         5.5060   39.1550   38.5680 N.ar  200  HEM200      0.0000
     34  C1D        4.2190   38.8550   38.0890 C.ar  200  HEM200      0.0000
     35  C2D        4.0910   39.1600   36.6880 C.ar  200  HEM200      0.0000
     36  C3D        5.2890   39.6780   36.3420 C.ar  200  HEM200      0.0000
     37  C4D        6.1710   39.6030   37.4530 C.ar  200  HEM200      0.0000
     38  CMD        2.8900   38.9510   35.8000 C.3   200  HEM200      0.0000
     39  CAD        5.6430   40.3760   35.0530 C.3   200  HEM200      0.0000
     40  CBD        5.6250   41.9070   35.0770 C.3   200  HEM200      0.0000
     41  CGD        6.2300   42.5410   33.8120 C.2   200  HEM200      0.0000
     42  O1D        6.2140   43.7680   33.6920 O.co2 200  HEM200      0.0000
     43  O2D        6.7720   41.8550   32.9440 O.co2 200  HEM200      0.0000
@<TRIPOS>BOND
     1    43    41   ar
     2    42    41   ar
     3    41    40    1
     4    16    14   ar
     5    39    40    1
     6    39    36    1
     7    15    14   ar
     8    14    13    1
     9    38    35    1
    10    36    35   ar
    11    36    37   ar
    12    13    12    1
    13    35    34   ar
    14    12     8    1
    15     2    37    2
    16     2     7    1
    17    37    33   ar
    18    34    33   ar
    19    34     5    2
    20     8     7    1
    21     8     9    2
    22    33     1    1
    23     7     6    2
    24     5    29    1
    25     9    11    1
    26     9    10    1
    27     6     1    1
    28     6    10    1
    29    29    25    2
    30    29    28    1
    31     1    25    1
    32     1    17    1
    33    10     3    2
    34    31    32    1
    35    31    28    1
    36    25    26    1
    37    28    27    2
    38     3    18    1
    39    17    18   ar
    40    17    21   ar
    41    26    27    1
    42    26     4    2
    43    27    30    1
    44    18    19   ar
    45    21     4    1
    46    21    20   ar
    47    19    20   ar
    48    19    22    1
    49    20    23    1
    50    23    24    1
