@<TRIPOS>MOLECULE
2mya_HEM_A_1.pdb
 43 50 0 0 0
SMALL
GASTEIGER

@<TRIPOS>ATOM
      1 FE         14.7150   27.8530    4.6700 Fe    154  HEM154      0.0000
      2  CHA       15.9950   30.9240    4.9750 C.2   154  HEM154      0.0000
      3  CHB       14.0420   27.7910    8.0800 C.2   154  HEM154      0.0000
      4  CHC       13.3530   24.7590    4.3210 C.2   154  HEM154      0.0000
      5  CHD       15.5090   27.8270    1.2520 C.2   154  HEM154      0.0000
      6  NA        14.8590   29.0950    6.2220 N.2   154  HEM154      0.0000
      7  C1A       15.3980   30.3860    6.1470 C.2   154  HEM154      0.0000
      8  C2A       15.4300   31.0580    7.4660 C.2   154  HEM154      0.0000
      9  C3A       14.9300   30.1290    8.3050 C.2   154  HEM154      0.0000
     10  C4A       14.5630   28.9370    7.5050 C.2   154  HEM154      0.0000
     11  CMA       14.5790   30.2230    9.7900 C.3   154  HEM154      0.0000
     12  CAA       15.9230   32.4910    7.7690 C.3   154  HEM154      0.0000
     13  CBA       14.7260   33.3800    7.9830 C.3   154  HEM154      0.0000
     14  CGA       13.9460   33.5730    6.6970 C.2   154  HEM154      0.0000
     15  O1A       14.5700   33.9460    5.6880 O.co2 154  HEM154      0.0000
     16  O2A       12.7100   33.3830    6.7080 O.co2 154  HEM154      0.0000
     17  NB        13.8830   26.5110    5.9320 N.ar  154  HEM154      0.0000
     18  C1B       13.6970   26.6540    7.3210 C.ar  154  HEM154      0.0000
     19  C2B       13.0600   25.5320    7.9250 C.ar  154  HEM154      0.0000
     20  C3B       12.9000   24.5800    6.8660 C.ar  154  HEM154      0.0000
     21  C4B       13.3610   25.2590    5.6220 C.ar  154  HEM154      0.0000
     22  CMB       12.6020   25.4770    9.4140 C.3   154  HEM154      0.0000
     23  CAB       12.2930   23.3860    7.0880 C.3   154  HEM154      0.0000
     24  CBB       12.5030   22.5510    8.2260 C.3   154  HEM154      0.0000
     25  NC        14.5630   26.5120    3.0880 N.2   154  HEM154      0.0000
     26  C1C       13.9860   25.2590    3.1970 C.2   154  HEM154      0.0000
     27  C2C       14.1480   24.5210    2.0180 C.2   154  HEM154      0.0000
     28  C3C       14.7910   25.3680    1.0980 C.2   154  HEM154      0.0000
     29  C4C       14.9890   26.6160    1.8030 C.2   154  HEM154      0.0000
     30  CMC       13.8000   23.0550    2.0050 C.3   154  HEM154      0.0000
     31  CAC       15.3120   25.1660   -0.1810 C.3   154  HEM154      0.0000
     32  CBC       15.1980   23.9010   -0.8260 C.3   154  HEM154      0.0000
     33  ND        15.5530   29.1280    3.3690 N.ar  154  HEM154      0.0000
     34  C1D       15.7300   29.0040    2.0060 C.ar  154  HEM154      0.0000
     35  C2D       16.4540   30.2030    1.4500 C.ar  154  HEM154      0.0000
     36  C3D       16.6610   31.0440    2.5410 C.ar  154  HEM154      0.0000
     37  C4D       16.1130   30.3290    3.7130 C.ar  154  HEM154      0.0000
     38  CMD       16.9940   30.2790    0.0020 C.3   154  HEM154      0.0000
     39  CAD       17.4630   32.2920    2.6030 C.3   154  HEM154      0.0000
     40  CBD       18.8410   31.7980    2.9200 C.3   154  HEM154      0.0000
     41  CGD       19.8570   32.8810    2.7970 C.2   154  HEM154      0.0000
     42  O1D       20.1460   33.3250    1.6730 O.co2 154  HEM154      0.0000
     43  O2D       20.2900   33.3850    3.8320 O.co2 154  HEM154      0.0000
@<TRIPOS>BOND
     1    32    31    1
     2    31    28    1
     3    38    35    1
     4    28    29    1
     5    28    27    2
     6     5    29    1
     7     5    34    2
     8    35    34   ar
     9    35    36   ar
    10    42    41   ar
    11    29    25    2
    12    30    27    1
    13    34    33   ar
    14    27    26    1
    15    36    39    1
    16    36    37   ar
    17    39    40    1
    18    41    40    1
    19    41    43   ar
    20    25    26    1
    21    25     1    1
    22    26     4    2
    23    33    37   ar
    24    33     1    1
    25    37     2    2
    26     4    21    1
    27     1    17    1
    28     1     6    1
    29     2     7    1
    30    21    17   ar
    31    21    20   ar
    32    15    14   ar
    33    17    18   ar
    34     7     6    2
    35     7     8    1
    36     6    10    1
    37    14    16   ar
    38    14    13    1
    39    20    23    1
    40    20    19   ar
    41    23    24    1
    42    18    19   ar
    43    18     3    1
    44     8    12    1
    45     8     9    2
    46    10     3    2
    47    10     9    1
    48    12    13    1
    49    19    22    1
    50     9    11    1
