@<TRIPOS>MOLECULE
2myb_HEM_A_1.pdb
 43 50 0 0 0
SMALL
GASTEIGER

@<TRIPOS>ATOM
      1 FE         14.6840   27.9760    4.8030 Fe    154  HEM154      0.0000
      2  CHA       16.0230   31.1120    5.1570 C.2   154  HEM154      0.0000
      3  CHB       13.8260   27.9520    8.0650 C.2   154  HEM154      0.0000
      4  CHC       13.4220   24.8310    4.4770 C.2   154  HEM154      0.0000
      5  CHD       15.4750   27.9140    1.5170 C.2   154  HEM154      0.0000
      6  NA        14.9050   29.1910    6.2690 N.2   154  HEM154      0.0000
      7  C1A       15.4680   30.4970    6.2560 C.2   154  HEM154      0.0000
      8  C2A       15.4270   31.0840    7.5440 C.2   154  HEM154      0.0000
      9  C3A       14.8330   30.1670    8.3480 C.2   154  HEM154      0.0000
     10  C4A       14.5320   29.0280    7.5780 C.2   154  HEM154      0.0000
     11  CMA       14.4100   30.3330    9.8040 C.3   154  HEM154      0.0000
     12  CAA       15.8500   32.5250    7.8000 C.3   154  HEM154      0.0000
     13  CBA       14.7530   33.5660    7.9750 C.3   154  HEM154      0.0000
     14  CGA       13.8940   33.7390    6.7090 C.2   154  HEM154      0.0000
     15  O1A       14.4120   34.2910    5.7300 O.co2 154  HEM154      0.0000
     16  O2A       12.7210   33.2990    6.6950 O.co2 154  HEM154      0.0000
     17  NB        13.7950   26.6600    5.9820 N.ar  154  HEM154      0.0000
     18  C1B       13.4580   26.8600    7.3190 C.ar  154  HEM154      0.0000
     19  C2B       12.9730   25.6750    7.9380 C.ar  154  HEM154      0.0000
     20  C3B       12.9440   24.7370    6.9500 C.ar  154  HEM154      0.0000
     21  C4B       13.4470   25.4090    5.7480 C.ar  154  HEM154      0.0000
     22  CMB       12.4670   25.5950    9.3640 C.3   154  HEM154      0.0000
     23  CAB       12.3270   23.4490    6.9430 C.3   154  HEM154      0.0000
     24  CBB       12.7290   22.3500    7.7940 C.3   154  HEM154      0.0000
     25  NC        14.4370   26.6590    3.3490 N.2   154  HEM154      0.0000
     26  C1C       13.9370   25.4020    3.3810 C.2   154  HEM154      0.0000
     27  C2C       14.2080   24.7120    2.1420 C.2   154  HEM154      0.0000
     28  C3C       14.8010   25.6120    1.3000 C.2   154  HEM154      0.0000
     29  C4C       14.9010   26.7690    2.0280 C.2   154  HEM154      0.0000
     30  CMC       13.8480   23.2770    1.8830 C.3   154  HEM154      0.0000
     31  CAC       15.3820   25.4430    0.0230 C.3   154  HEM154      0.0000
     32  CBC       15.4190   24.1620   -0.6930 C.3   154  HEM154      0.0000
     33  ND        15.5800   29.2270    3.6190 N.ar  154  HEM154      0.0000
     34  C1D       15.7500   29.0840    2.2890 C.ar  154  HEM154      0.0000
     35  C2D       16.5060   30.2200    1.7150 C.ar  154  HEM154      0.0000
     36  C3D       16.7980   31.0830    2.7240 C.ar  154  HEM154      0.0000
     37  C4D       16.1590   30.4680    3.9180 C.ar  154  HEM154      0.0000
     38  CMD       16.8310   30.2430    0.1990 C.3   154  HEM154      0.0000
     39  CAD       17.5520   32.3760    2.7100 C.3   154  HEM154      0.0000
     40  CBD       19.0230   32.0250    2.6960 C.3   154  HEM154      0.0000
     41  CGD       19.8860   33.2630    2.7280 C.2   154  HEM154      0.0000
     42  O1D       20.4000   33.7060    1.6830 O.co2 154  HEM154      0.0000
     43  O2D       19.9920   33.8620    3.8080 O.co2 154  HEM154      0.0000
@<TRIPOS>BOND
     1    32    31    1
     2    31    28    1
     3    38    35    1
     4    28    29    1
     5    28    27    2
     6     5    29    1
     7     5    34    2
     8    42    41   ar
     9    35    34   ar
    10    35    36   ar
    11    30    27    1
    12    29    25    2
    13    27    26    1
    14    34    33   ar
    15    40    39    1
    16    40    41    1
    17    39    36    1
    18    36    37   ar
    19    41    43   ar
    20    25    26    1
    21    25     1    1
    22    26     4    2
    23    33    37   ar
    24    33     1    1
    25    37     2    2
    26     4    21    1
    27     1    17    1
    28     1     6    1
    29     2     7    1
    30    15    14   ar
    31    21    17   ar
    32    21    20   ar
    33    17    18   ar
    34     7     6    2
    35     7     8    1
    36     6    10    1
    37    16    14   ar
    38    14    13    1
    39    23    20    1
    40    23    24    1
    41    20    19   ar
    42    18    19   ar
    43    18     3    1
    44     8    12    1
    45     8     9    2
    46    10     3    2
    47    10     9    1
    48    12    13    1
    49    19    22    1
    50     9    11    1
