@<TRIPOS>MOLECULE
2myc_HEM_A_1.pdb
 43 50 0 0 0
SMALL
GASTEIGER

@<TRIPOS>ATOM
      1 FE         14.6320   28.1160    4.8090 Fe    154  HEM154      0.0000
      2  CHA       16.0450   31.2950    5.1280 C.2   154  HEM154      0.0000
      3  CHB       13.7910   28.1280    8.0900 C.2   154  HEM154      0.0000
      4  CHC       13.4070   24.8830    4.6120 C.2   154  HEM154      0.0000
      5  CHD       15.4080   28.0400    1.5460 C.2   154  HEM154      0.0000
      6  NA        14.8460   29.4100    6.2630 N.2   154  HEM154      0.0000
      7  C1A       15.4400   30.7110    6.2340 C.2   154  HEM154      0.0000
      8  C2A       15.3950   31.3550    7.5440 C.2   154  HEM154      0.0000
      9  C3A       14.8840   30.4120    8.3450 C.2   154  HEM154      0.0000
     10  C4A       14.5300   29.2090    7.5810 C.2   154  HEM154      0.0000
     11  CMA       14.4070   30.6290    9.7660 C.3   154  HEM154      0.0000
     12  CAA       15.7490   32.7810    7.7390 C.3   154  HEM154      0.0000
     13  CBA       14.6530   33.8220    7.9280 C.3   154  HEM154      0.0000
     14  CGA       13.7170   33.9760    6.6990 C.2   154  HEM154      0.0000
     15  O1A       14.2170   34.2860    5.6080 O.co2 154  HEM154      0.0000
     16  O2A       12.4750   33.9780    6.8780 O.co2 154  HEM154      0.0000
     17  NB        13.7920   26.8520    6.0020 N.ar  154  HEM154      0.0000
     18  C1B       13.4580   27.0420    7.3640 C.ar  154  HEM154      0.0000
     19  C2B       12.9820   25.9030    7.9730 C.ar  154  HEM154      0.0000
     20  C3B       12.9330   24.9290    7.0450 C.ar  154  HEM154      0.0000
     21  C4B       13.4400   25.5230    5.8400 C.ar  154  HEM154      0.0000
     22  CMB       12.5310   25.7700    9.4540 C.3   154  HEM154      0.0000
     23  CAB       12.2370   23.7010    7.1660 C.3   154  HEM154      0.0000
     24  CBB       12.4730   22.4210    7.8730 C.3   154  HEM154      0.0000
     25  NC        14.3210   26.7770    3.3720 N.2   154  HEM154      0.0000
     26  C1C       13.9160   25.4550    3.4570 C.2   154  HEM154      0.0000
     27  C2C       14.2680   24.7530    2.2960 C.2   154  HEM154      0.0000
     28  C3C       14.8900   25.6370    1.4690 C.2   154  HEM154      0.0000
     29  C4C       14.8350   26.8750    2.0910 C.2   154  HEM154      0.0000
     30  CMC       13.8490   23.3450    2.0330 C.3   154  HEM154      0.0000
     31  CAC       15.3770   25.5270    0.1410 C.3   154  HEM154      0.0000
     32  CBC       15.3580   24.2880   -0.6260 C.3   154  HEM154      0.0000
     33  ND        15.4740   29.4080    3.6970 N.ar  154  HEM154      0.0000
     34  C1D       15.7130   29.2060    2.2840 C.ar  154  HEM154      0.0000
     35  C2D       16.4410   30.3340    1.6950 C.ar  154  HEM154      0.0000
     36  C3D       16.6320   31.2640    2.7050 C.ar  154  HEM154      0.0000
     37  C4D       16.0160   30.6840    3.9190 C.ar  154  HEM154      0.0000
     38  CMD       16.8320   30.4160    0.1980 C.3   154  HEM154      0.0000
     39  CAD       17.3470   32.6080    2.6280 C.3   154  HEM154      0.0000
     40  CBD       18.8920   32.4180    2.8630 C.3   154  HEM154      0.0000
     41  CGD       19.6810   33.7190    2.7090 C.2   154  HEM154      0.0000
     42  O1D       20.6250   33.7380    1.9000 O.co2 154  HEM154      0.0000
     43  O2D       19.2610   34.7900    3.2290 O.co2 154  HEM154      0.0000
@<TRIPOS>BOND
     1    32    31    1
     2    31    28    1
     3    38    35    1
     4    28    29    1
     5    28    27    2
     6     5    29    1
     7     5    34    2
     8    35    34   ar
     9    35    36   ar
    10    42    41   ar
    11    30    27    1
    12    29    25    2
    13    34    33   ar
    14    27    26    1
    15    39    36    1
    16    39    40    1
    17    36    37   ar
    18    41    40    1
    19    41    43   ar
    20    25    26    1
    21    25     1    1
    22    26     4    2
    23    33    37   ar
    24    33     1    1
    25    37     2    2
    26     4    21    1
    27     1    17    1
    28     1     6    1
    29     2     7    1
    30    15    14   ar
    31    21    17   ar
    32    21    20   ar
    33    17    18   ar
    34     7     6    2
    35     7     8    1
    36     6    10    1
    37    14    16   ar
    38    14    13    1
    39    20    23    1
    40    20    19   ar
    41    23    24    1
    42    18    19   ar
    43    18     3    1
    44     8    12    1
    45     8     9    2
    46    10     3    2
    47    10     9    1
    48    12    13    1
    49    19    22    1
    50     9    11    1
