@<TRIPOS>MOLECULE
2myd_HEM_A_1.pdb
 43 50 0 0 0
SMALL
GASTEIGER

@<TRIPOS>ATOM
      1 FE         14.6750   28.0320    4.7650 Fe    154  HEM154      0.0000
      2  CHA       16.0780   31.0980    5.0010 C.2   154  HEM154      0.0000
      3  CHB       13.8330   27.9670    7.9390 C.2   154  HEM154      0.0000
      4  CHC       13.3880   24.9300    4.3980 C.2   154  HEM154      0.0000
      5  CHD       15.3710   27.9330    1.3480 C.2   154  HEM154      0.0000
      6  NA        14.9080   29.2170    6.2120 N.2   154  HEM154      0.0000
      7  C1A       15.5380   30.4980    6.1410 C.2   154  HEM154      0.0000
      8  C2A       15.4610   31.1030    7.4750 C.2   154  HEM154      0.0000
      9  C3A       14.8460   30.2030    8.3530 C.2   154  HEM154      0.0000
     10  C4A       14.5050   29.0290    7.4950 C.2   154  HEM154      0.0000
     11  CMA       14.4710   30.4170    9.8390 C.3   154  HEM154      0.0000
     12  CAA       15.9490   32.5030    7.7640 C.3   154  HEM154      0.0000
     13  CBA       14.8490   33.5660    7.8380 C.3   154  HEM154      0.0000
     14  CGA       14.0490   33.6970    6.5560 C.2   154  HEM154      0.0000
     15  O1A       14.6030   34.1160    5.5130 O.co2 154  HEM154      0.0000
     16  O2A       12.8470   33.3860    6.5930 O.co2 154  HEM154      0.0000
     17  NB        13.8470   26.6930    5.9280 N.ar  154  HEM154      0.0000
     18  C1B       13.5270   26.8630    7.2320 C.ar  154  HEM154      0.0000
     19  C2B       12.9020   25.7200    7.7870 C.ar  154  HEM154      0.0000
     20  C3B       12.7560   24.8170    6.7820 C.ar  154  HEM154      0.0000
     21  C4B       13.3350   25.4830    5.6310 C.ar  154  HEM154      0.0000
     22  CMB       12.4930   25.5540    9.2850 C.3   154  HEM154      0.0000
     23  CAB       12.1700   23.5310    6.8460 C.3   154  HEM154      0.0000
     24  CBB       12.6290   22.4440    7.7250 C.3   154  HEM154      0.0000
     25  NC        14.4580   26.7160    3.2090 N.2   154  HEM154      0.0000
     26  C1C       14.0360   25.4230    3.3040 C.2   154  HEM154      0.0000
     27  C2C       14.2520   24.6830    2.1320 C.2   154  HEM154      0.0000
     28  C3C       14.9000   25.6010    1.2410 C.2   154  HEM154      0.0000
     29  C4C       14.8800   26.8340    1.8790 C.2   154  HEM154      0.0000
     30  CMC       13.6580   23.2940    1.9010 C.3   154  HEM154      0.0000
     31  CAC       15.4000   25.4330   -0.0930 C.3   154  HEM154      0.0000
     32  CBC       15.2620   24.1640   -0.7170 C.3   154  HEM154      0.0000
     33  ND        15.5690   29.2190    3.4400 N.ar  154  HEM154      0.0000
     34  C1D       15.7390   29.0650    2.1110 C.ar  154  HEM154      0.0000
     35  C2D       16.4690   30.2740    1.4990 C.ar  154  HEM154      0.0000
     36  C3D       16.7030   31.1270    2.5760 C.ar  154  HEM154      0.0000
     37  C4D       16.0990   30.5100    3.7620 C.ar  154  HEM154      0.0000
     38  CMD       16.9180   30.4000    0.0300 C.3   154  HEM154      0.0000
     39  CAD       17.5240   32.3930    2.6670 C.3   154  HEM154      0.0000
     40  CBD       18.9630   32.0820    2.9660 C.3   154  HEM154      0.0000
     41  CGD       19.8420   33.2920    2.8450 C.2   154  HEM154      0.0000
     42  O1D       20.2870   33.5630    1.7280 O.co2 154  HEM154      0.0000
     43  O2D       20.0730   34.0100    3.8370 O.co2 154  HEM154      0.0000
@<TRIPOS>BOND
     1    32    31    1
     2    31    28    1
     3    38    35    1
     4    28    29    1
     5    28    27    2
     6     5    29    1
     7     5    34    2
     8    35    34   ar
     9    35    36   ar
    10    42    41   ar
    11    29    25    2
    12    30    27    1
    13    34    33   ar
    14    27    26    1
    15    36    39    1
    16    36    37   ar
    17    39    40    1
    18    41    40    1
    19    41    43   ar
    20    25    26    1
    21    25     1    1
    22    26     4    2
    23    33    37   ar
    24    33     1    1
    25    37     2    2
    26     4    21    1
    27     1    17    1
    28     1     6    1
    29     2     7    1
    30    15    14   ar
    31    21    17   ar
    32    21    20   ar
    33    17    18   ar
    34     7     6    2
    35     7     8    1
    36     6    10    1
    37    14    16   ar
    38    14    13    1
    39    20    23    1
    40    20    19   ar
    41    23    24    1
    42    18    19   ar
    43    18     3    1
    44     8    12    1
    45     8     9    2
    46    10     3    2
    47    10     9    1
    48    12    13    1
    49    19    22    1
    50     9    11    1
