@<TRIPOS>MOLECULE
2mye_HEM_A_1.pdb
 43 50 0 0 0
SMALL
GASTEIGER

@<TRIPOS>ATOM
      1 FE         14.6630   28.0710    4.8090 Fe    154  HEM154      0.0000
      2  CHA       15.9600   31.1190    5.1420 C.2   154  HEM154      0.0000
      3  CHB       13.8390   27.9740    8.1280 C.2   154  HEM154      0.0000
      4  CHC       13.4160   24.7820    4.5090 C.2   154  HEM154      0.0000
      5  CHD       15.4860   27.9610    1.5410 C.2   154  HEM154      0.0000
      6  NA        14.8490   29.1750    6.2980 N.2   154  HEM154      0.0000
      7  C1A       15.4520   30.4890    6.3010 C.2   154  HEM154      0.0000
      8  C2A       15.3440   31.1520    7.5650 C.2   154  HEM154      0.0000
      9  C3A       14.7780   30.2560    8.3920 C.2   154  HEM154      0.0000
     10  C4A       14.4830   29.0330    7.6060 C.2   154  HEM154      0.0000
     11  CMA       14.4600   30.4380    9.8810 C.3   154  HEM154      0.0000
     12  CAA       15.7970   32.5690    7.9150 C.3   154  HEM154      0.0000
     13  CBA       14.6500   33.5440    8.1670 C.3   154  HEM154      0.0000
     14  CGA       13.7270   33.6970    6.9530 C.2   154  HEM154      0.0000
     15  O1A       14.2390   34.0020    5.8480 O.co2 154  HEM154      0.0000
     16  O2A       12.5100   33.4920    7.1090 O.co2 154  HEM154      0.0000
     17  NB        13.8210   26.6990    6.0350 N.ar  154  HEM154      0.0000
     18  C1B       13.5210   26.8090    7.3730 C.ar  154  HEM154      0.0000
     19  C2B       12.9260   25.5960    7.9100 C.ar  154  HEM154      0.0000
     20  C3B       12.8390   24.7250    6.8820 C.ar  154  HEM154      0.0000
     21  C4B       13.3670   25.3800    5.7620 C.ar  154  HEM154      0.0000
     22  CMB       12.5530   25.4760    9.3990 C.3   154  HEM154      0.0000
     23  CAB       12.3760   23.3580    6.9030 C.3   154  HEM154      0.0000
     24  CBB       12.6060   22.4270    7.9370 C.3   154  HEM154      0.0000
     25  NC        14.4820   26.7230    3.3580 N.2   154  HEM154      0.0000
     26  C1C       14.0090   25.3730    3.4250 C.2   154  HEM154      0.0000
     27  C2C       14.2560   24.7060    2.2400 C.2   154  HEM154      0.0000
     28  C3C       14.8190   25.6060    1.3800 C.2   154  HEM154      0.0000
     29  C4C       14.8900   26.8260    2.0790 C.2   154  HEM154      0.0000
     30  CMC       13.8050   23.2880    1.9210 C.3   154  HEM154      0.0000
     31  CAC       15.4210   25.5250    0.0770 C.3   154  HEM154      0.0000
     32  CBC       15.4810   24.3360   -0.7480 C.3   154  HEM154      0.0000
     33  ND        15.5280   29.2490    3.5600 N.ar  154  HEM154      0.0000
     34  C1D       15.7960   29.1220    2.2570 C.ar  154  HEM154      0.0000
     35  C2D       16.5020   30.3420    1.7010 C.ar  154  HEM154      0.0000
     36  C3D       16.6600   31.1690    2.7270 C.ar  154  HEM154      0.0000
     37  C4D       16.0530   30.5190    3.8870 C.ar  154  HEM154      0.0000
     38  CMD       16.8080   30.5360    0.2300 C.3   154  HEM154      0.0000
     39  CAD       17.4500   32.4900    2.8620 C.3   154  HEM154      0.0000
     40  CBD       18.8940   32.0470    3.1320 C.3   154  HEM154      0.0000
     41  CGD       19.8810   33.1890    3.0150 C.2   154  HEM154      0.0000
     42  O1D       20.3630   33.4500    1.8900 O.co2 154  HEM154      0.0000
     43  O2D       20.1260   33.9020    4.0250 O.co2 154  HEM154      0.0000
@<TRIPOS>BOND
     1    32    31    1
     2    31    28    1
     3    38    35    1
     4    28    29    1
     5    28    27    2
     6     5    29    1
     7     5    34    2
     8    35    34   ar
     9    35    36   ar
    10    42    41   ar
    11    30    27    1
    12    29    25    2
    13    27    26    1
    14    34    33   ar
    15    36    39    1
    16    36    37   ar
    17    39    40    1
    18    41    40    1
    19    41    43   ar
    20    25    26    1
    21    25     1    1
    22    26     4    2
    23    33    37   ar
    24    33     1    1
    25    37     2    2
    26     4    21    1
    27     1    17    1
    28     1     6    1
    29     2     7    1
    30    21    17   ar
    31    21    20   ar
    32    15    14   ar
    33    17    18   ar
    34     6     7    2
    35     6    10    1
    36     7     8    1
    37    20    23    1
    38    20    19   ar
    39    23    24    1
    40    14    16   ar
    41    14    13    1
    42    18    19   ar
    43    18     3    1
    44     8    12    1
    45     8     9    2
    46    10     3    2
    47    10     9    1
    48    19    22    1
    49    12    13    1
    50     9    11    1
