@<TRIPOS>MOLECULE
2nad_NAD_A_1.pdb
 44 48 0 0 0
SMALL
GASTEIGER

@<TRIPOS>ATOM
      1  PA        51.1940   35.4700   -7.7570 P.3   394  NAD394      0.2189
      2  O1A       51.4590   36.2390   -9.0540 O.2   394  NAD394     -0.5170
      3  O2A       52.0730   34.4130   -7.2850 O.3   394  NAD394     -0.4371
      4  O5B       49.7030   34.9660   -7.6840 O.3   394  NAD394     -0.3112
      5  C5B       48.6800   35.5050   -8.6020 C.3   394  NAD394      0.1813
      6  C4B       47.8910   34.3400   -9.1130 C.3   394  NAD394      0.1821
      7  O4B       46.6890   34.9800   -9.6870 O.3   394  NAD394     -0.3135
      8  C3B       48.5710   33.6500  -10.3730 C.3   394  NAD394      0.2184
      9  O3B       48.3810   32.2250  -10.1140 O.3   394  NAD394     -0.2174
     10  C2B       47.7450   34.0830  -11.5840 C.3   394  NAD394      0.2570
     11  O2B       47.5820   33.1600  -12.5530 O.3   394  NAD394     -0.2130
     12  C1B       46.4060   34.2920  -10.8340 C.3   394  NAD394      0.3186
     13  N9A       45.5000   35.0380  -11.6520 N.pl3 394  NAD394     -0.1439
     14  C8A       45.7560   36.1050  -12.4840 C.3   394  NAD394      0.3377
     15  N7A       44.7170   36.6020  -13.1230 N.2   394  NAD394     -0.2095
     16  C5A       43.6830   35.8570  -12.7350 C.2   394  NAD394      0.2526
     17  C6A       42.2900   35.9040  -13.2160 C.2   394  NAD394      0.4393
     18  N6A       41.8550   36.7840  -14.1100 N.pl3 394  NAD394      0.2180
     19  N1A       41.5300   34.9590  -12.5860 N.2   394  NAD394      0.0021
     20  C2A       41.9280   34.0680  -11.6700 C.3   394  NAD394      0.5254
     21  N3A       43.2700   33.9280  -11.2600 N.2   394  NAD394     -0.0055
     22  C4A       44.1180   34.8770  -11.8140 C.2   394  NAD394      0.3518
     23  O3        51.1220   36.5740   -6.6740 O.3   394  NAD394     -0.2703
     24  PN        50.8520   36.3880   -5.0370 P.3   394  NAD394      0.2189
     25  O1N       50.0030   35.2150   -4.9610 O.2   394  NAD394     -0.5170
     26  O2N       52.1240   36.5100   -4.3130 O.3   394  NAD394     -0.4371
     27  O5D       49.9650   37.6980   -4.8070 O.3   394  NAD394     -0.3112
     28  C5D       48.6050   37.8800   -5.3690 C.3   394  NAD394      0.1813
     29  C4D       48.0930   39.2410   -5.2110 C.3   394  NAD394      0.1799
     30  O4D       47.7760   39.4090   -3.7340 O.3   394  NAD394     -0.3327
     31  C3D       49.1330   40.4340   -5.3550 C.3   394  NAD394      0.2158
     32  O3D       49.0190   40.7360   -6.7540 O.3   394  NAD394     -0.2175
     33  C2D       48.4730   41.5720   -4.5560 C.3   394  NAD394      0.2309
     34  O2D       47.4100   42.1680   -5.1960 O.3   394  NAD394     -0.2158
     35  C1D       47.8650   40.7600   -3.3390 C.3   394  NAD394      0.2263
     36  N1N       48.7590   40.9440   -2.1150 N.pl3 394  NAD394     -0.2787
     37  C2N       48.1890   41.5770   -0.9970 C.3   394  NAD394      0.1244
     38  C3N       49.0960   41.7360    0.0150 C.2   394  NAD394      0.0544
     39  C7N       48.5490   42.3050    1.3970 C.2   394  NAD394      0.2818
     40  O7N       49.6040   42.6290    2.0470 O.2   394  NAD394     -0.2670
     41  N7N       47.2230   42.1960    1.7730 N.am  394  NAD394     -0.0839
     42  C4N       50.4860   41.3660    0.0740 C.2   394  NAD394      0.0033
     43  C5N       50.8980   40.7540   -1.1380 C.2   394  NAD394      0.0157
     44  C6N       50.0430   40.5730   -2.2200 C.2   394  NAD394      0.0633
@<TRIPOS>BOND
     1    18    17    1
     2    17    16    1
     3    17    19    2
     4    15    16    2
     5    15    14    1
     6    16    22    1
     7    19    20    1
     8    11    10    1
     9    14    13    1
    10    22    13    1
    11    22    21    2
    12    20    21    1
    13    13    12    1
    14    10    12    1
    15    10     8    1
    16    12     7    1
    17     8     9    1
    18     8     6    1
    19     7     6    1
    20     6     5    1
    21     2     1    2
    22     5     4    1
    23     1     4    1
    24     1     3    1
    25     1    23    1
    26    32    31    1
    27    23    24    1
    28    28    29    1
    29    28    27    1
    30    31    29    1
    31    31    33    1
    32    29    30    1
    33    34    33    1
    34    24    25    2
    35    24    27    1
    36    24    26    1
    37    33    35    1
    38    30    35    1
    39    35    36    1
    40    44    36    1
    41    44    43    2
    42    36    37    1
    43    43    42    1
    44    37    38    1
    45    38    42    2
    46    38    39    1
    47    39    41   am
    48    39    40    2
