@<TRIPOS>MOLECULE
2nap_MGD_A_1.pdb
 47 52 0 0 0
SMALL
GASTEIGER

@<TRIPOS>ATOM
      1  PB        63.3450   18.4720   -3.1120 P.3   811  MGD811      0.2189
      2  O1B       63.1930   19.7170   -3.8920 O.2   811  MGD811     -0.5170
      3  O2B       63.7630   18.7340   -1.7150 O.3   811  MGD811     -0.4371
      4  O3B       64.3530   17.4570   -3.7910 O.3   811  MGD811     -0.2703
      5  O3A       66.1970   15.8180   -3.8800 O.3   811  MGD811     -0.3109
      6  PA        64.5420   15.8450   -3.6820 P.3   811  MGD811      0.2189
      7  O1A       63.8590   15.2550   -4.8450 O.2   811  MGD811     -0.5170
      8  O2A       64.1380   15.4980   -2.2920 O.3   811  MGD811     -0.4371
      9  O5'       61.9470   17.6240   -3.0810 O.3   811  MGD811     -0.3112
     10  C5'       61.0660   17.8290   -1.9610 C.3   811  MGD811      0.1813
     11  C4'       59.6540   18.0320   -2.4820 C.3   811  MGD811      0.1799
     12  O4'       58.9160   18.2610   -1.2540 O.3   811  MGD811     -0.3326
     13  C3'       59.3890   19.1230   -3.4890 C.3   811  MGD811      0.2158
     14  O3'       58.8020   18.6710   -4.6780 O.3   811  MGD811     -0.2175
     15  C2'       58.4530   20.0030   -2.6720 C.3   811  MGD811      0.2310
     16  O2'       57.5280   20.8270   -3.2840 O.3   811  MGD811     -0.2158
     17  C1'       57.8690   19.1520   -1.7080 C.3   811  MGD811      0.2293
     18  N9        57.2320   19.4100   -0.4410 N.pl3 811  MGD811     -0.2354
     19  C8        57.6390   20.4630    0.3180 C.3   811  MGD811      0.2246
     20  N7        56.9630   20.4700    1.4840 N.2   811  MGD811     -0.2322
     21  C5        56.1170   19.3370    1.3770 C.2   811  MGD811      0.2182
     22  C6        55.1540   18.7460    2.2980 C.1   811  MGD811      0.2372
     23  O6        54.9100   19.1860    3.4220 O.2   811  MGD811     -0.2069
     24  N1        54.5230   17.6300    1.8410 N.2   811  MGD811     -0.2485
     25  C2        54.7620   17.0840    0.6070 C.1   811  MGD811      0.2531
     26  N2        54.0900   16.0350    0.3220 N.pl3 811  MGD811     -0.0226
     27  N3        55.6600   17.5780   -0.3100 N.2   811  MGD811     -0.3074
     28  C4        56.2970   18.6740    0.1110 C.2   811  MGD811      0.2300
     29  C10       67.0860   15.5290   -2.7710 C.3   811  MGD811      0.1837
     30  C11       68.2010   14.7180   -3.2490 C.3   811  MGD811      0.1762
     31  O11       68.6820   15.1990   -4.5190 O.3   811  MGD811     -0.3271
     32  C12       69.3220   14.7910   -2.2340 C.2   811  MGD811      0.0473
     33  S12       68.9960   15.0700   -0.5200 S.3   811  MGD811     -0.0526
     34  C13       70.6630   14.6480   -2.5880 C.2   811  MGD811      0.0449
     35  S13       71.7240   14.7590   -1.1550 S.3   811  MGD811     -0.0530
     36  C14       70.9520   14.4350   -4.0340 C.3   811  MGD811      0.1850
     37  N15       71.8190   15.5250   -4.4380 N.2   811  MGD811     -0.2411
     38  C16       72.1630   15.5360   -5.7930 C.2   811  MGD811      0.2467
     39  C17       73.3710   16.0200   -6.2720 C.1   811  MGD811      0.2441
     40  O17       74.1840   16.4490   -5.5480 O.2   811  MGD811     -0.2063
     41  N18       73.5880   15.9870   -7.6200 N.2   811  MGD811     -0.2474
     42  C19       72.6820   15.5080   -8.5190 C.1   811  MGD811      0.2608
     43  N19       73.0200   15.5330   -9.8190 N.pl3 811  MGD811     -0.0220
     44  N20       71.5070   15.0350   -8.0640 N.2   811  MGD811     -0.2682
     45  C21       71.2320   15.0340   -6.7270 C.1   811  MGD811      0.1293
     46  N22       69.9790   14.4950   -6.2820 N.2   811  MGD811     -0.1763
     47  C23       69.6340   14.4020   -4.8660 C.3   811  MGD811      0.2573
@<TRIPOS>BOND
     1    43    42    1
     2    42    44    2
     3    42    41    2
     4    44    45    2
     5    41    39    2
     6    45    46    2
     7    45    38    1
     8    46    47    1
     9    39    38    1
    10    39    40    2
    11    38    37    2
    12    47    31    1
    13    47    36    1
    14     7     6    2
    15    14    13    1
    16    31    30    1
    17    37    36    1
    18    36    34    1
    19     2     1    2
    20     5     6    1
    21     5    29    1
    22     4     6    1
    23     4     1    1
    24     6     8    1
    25    13    15    1
    26    13    11    1
    27    16    15    1
    28    30    29    1
    29    30    32    1
    30     1     9    1
    31     1     3    1
    32     9    10    1
    33    15    17    1
    34    34    32    2
    35    34    35    1
    36    11    10    1
    37    11    12    1
    38    32    33    1
    39    17    12    1
    40    17    18    1
    41    18    28    1
    42    18    19    1
    43    27    28    2
    44    27    25    2
    45    28    21    1
    46    19    20    1
    47    26    25    1
    48    25    24    2
    49    21    20    2
    50    21    22    1
    51    24    22    2
    52    22    23    2
