@<TRIPOS>MOLECULE
2ncd_ADP_A_1.pdb
 27 29 0 0 0
SMALL
GASTEIGER

@<TRIPOS>ATOM
      1  PB         5.9770   50.7740   50.0450 P.3   800  ADP800      0.5373
      2  O1B        7.2550   50.9190   50.7910 O.3   800  ADP800     -0.1143
      3  O2B        5.8170   49.5690   49.1900 O.2   800  ADP800     -0.2221
      4  O3B        4.7980   51.0930   50.8740 O.3   800  ADP800     -0.1143
      5  PA         5.8710   52.4750   47.3890 P.3   800  ADP800      0.2231
      6  O1A        6.5100   51.4150   46.5660 O.2   800  ADP800     -0.5169
      7  O2A        4.4760   52.9270   47.1690 O.3   800  ADP800     -0.4370
      8  O3A        6.0030   52.0330   49.0320 O.3   800  ADP800     -0.2261
      9  O5'        6.6570   53.8370   46.8830 O.3   800  ADP800     -0.3111
     10  C5'        6.6380   54.5440   45.6020 C.3   800  ADP800      0.1813
     11  C4'        7.9060   54.9900   44.7770 C.3   800  ADP800      0.1821
     12  O4'        8.3200   54.0970   43.6580 O.3   800  ADP800     -0.3135
     13  C3'        7.6710   56.3270   44.0550 C.3   800  ADP800      0.2184
     14  O3'        8.7510   57.2490   44.2430 O.3   800  ADP800     -0.2174
     15  C2'        7.3500   55.9920   42.5960 C.3   800  ADP800      0.2570
     16  O2'        8.0950   56.7700   41.6510 O.3   800  ADP800     -0.2130
     17  C1'        7.6120   54.4880   42.4120 C.3   800  ADP800      0.3186
     18  N9         6.4540   53.7010   41.7840 N.pl3 800  ADP800     -0.1439
     19  C8         5.6260   52.7840   42.3390 C.3   800  ADP800      0.3377
     20  N7         4.6430   52.3720   41.5480 N.2   800  ADP800     -0.2095
     21  C5         4.9150   53.0240   40.4420 C.2   800  ADP800      0.2526
     22  C6         4.1690   52.9720   39.2660 C.2   800  ADP800      0.4393
     23  N6         3.0390   52.2840   39.2140 N.pl3 800  ADP800      0.2180
     24  N1         4.5900   53.7300   38.2170 N.2   800  ADP800      0.0021
     25  C2         5.6900   54.5080   38.2840 C.3   800  ADP800      0.5254
     26  N3         6.3900   54.5510   39.4360 N.2   800  ADP800     -0.0055
     27  C4         6.0280   53.8380   40.5320 C.2   800  ADP800      0.3518
@<TRIPOS>BOND
     1    24    25    1
     2    24    22    2
     3    25    26    1
     4    23    22    1
     5    22    21    1
     6    26    27    2
     7    21    27    1
     8    21    20    2
     9    27    18    1
    10    20    19    1
    11    16    15    1
    12    18    19    1
    13    18    17    1
    14    17    15    1
    15    17    12    1
    16    15    13    1
    17    12    11    1
    18    13    14    1
    19    13    11    1
    20    11    10    1
    21    10     9    1
    22     6     5    2
    23     9     5    1
    24     7     5    1
    25     5     8    1
    26     8     1    1
    27     3     1    2
    28     1     2    1
    29     1     4    1
