@<TRIPOS>MOLECULE
2ng1_GDP_A_1.pdb
 28 30 0 0 0
SMALL
GASTEIGER

@<TRIPOS>ATOM
      1  PB       -21.6770   -3.9840   13.8930 P.3   900  GDP900      0.5373
      2  O1B      -21.0120   -4.4730   12.6700 O.2   900  GDP900     -0.2221
      3  O2B      -21.3430   -4.7900   15.1070 O.3   900  GDP900     -0.1143
      4  O3B      -23.1180   -3.7090   13.7350 O.3   900  GDP900     -0.1143
      5  O3A      -21.0600   -2.5520   14.1570 O.3   900  GDP900     -0.2261
      6  PA       -19.6120   -1.8810   14.0440 P.3   900  GDP900      0.2231
      7  O1A      -19.6820   -0.7200   13.1680 O.2   900  GDP900     -0.5169
      8  O2A      -18.6410   -2.9510   13.7700 O.3   900  GDP900     -0.4370
      9  O5'      -19.3820   -1.3220   15.5120 O.3   900  GDP900     -0.3111
     10  C5'      -19.2760   -2.2010   16.6300 C.3   900  GDP900      0.1813
     11  C4'      -19.5540   -1.4110   17.9470 C.3   900  GDP900      0.1799
     12  O4'      -18.3510   -0.7650   18.3380 O.3   900  GDP900     -0.3326
     13  C3'      -20.5980   -0.2550   17.9350 C.3   900  GDP900      0.2158
     14  O3'      -21.3900   -0.2760   19.1150 O.3   900  GDP900     -0.2175
     15  C2'      -19.7910    1.0370   17.8400 C.3   900  GDP900      0.2310
     16  O2'      -20.3700    2.2230   18.3570 O.3   900  GDP900     -0.2158
     17  C1'      -18.5880    0.6450   18.6160 C.3   900  GDP900      0.2293
     18  N9       -17.3420    1.3330   18.2690 N.pl3 900  GDP900     -0.2354
     19  C8       -16.7440    1.4820   17.0280 C.3   900  GDP900      0.2246
     20  N7       -15.6330    2.1320   17.0350 N.2   900  GDP900     -0.2322
     21  C5       -15.4480    2.4450   18.4050 C.2   900  GDP900      0.2182
     22  C6       -14.3770    3.1490   19.0660 C.1   900  GDP900      0.2372
     23  O6       -13.3720    3.6290   18.5290 O.2   900  GDP900     -0.2069
     24  N1       -14.5710    3.2710   20.4700 N.2   900  GDP900     -0.2485
     25  C2       -15.6610    2.7650   21.1680 C.1   900  GDP900      0.2531
     26  N2       -15.7150    2.9470   22.4890 N.pl3 900  GDP900     -0.0226
     27  N3       -16.6670    2.0870   20.5540 N.2   900  GDP900     -0.3074
     28  C4       -16.4920    1.9690   19.1680 C.2   900  GDP900      0.2300
@<TRIPOS>BOND
     1     2     1    2
     2     7     6    2
     3     4     1    1
     4     8     6    1
     5     1     5    1
     6     1     3    1
     7     6     5    1
     8     6     9    1
     9     9    10    1
    10    10    11    1
    11    19    20    1
    12    19    18    1
    13    20    21    2
    14    15    13    1
    15    15    16    1
    16    15    17    1
    17    13    11    1
    18    13    14    1
    19    11    12    1
    20    18    17    1
    21    18    28    1
    22    12    17    1
    23    21    22    1
    24    21    28    1
    25    23    22    2
    26    22    24    2
    27    28    27    2
    28    24    25    2
    29    27    25    2
    30    25    26    1
