@<TRIPOS>MOLECULE
2nli_FMN_A_1.pdb
 31 33 0 0 0
SMALL
GASTEIGER

@<TRIPOS>ATOM
      1  N1       -22.6380  -21.5810  -66.0270 N.2   1375  FMN1375    -0.2887
      2  C2       -23.7740  -22.1320  -65.4990 C.1   1375  FMN1375     0.3669
      3  O2       -23.9070  -22.2940  -64.2780 O.2   1375  FMN1375    -0.1744
      4  N3       -24.7820  -22.5350  -66.3460 N.2   1375  FMN1375    -0.2300
      5  C4       -24.6660  -22.3650  -67.7180 C.1   1375  FMN1375     0.2513
      6  O4       -25.4500  -22.9990  -68.4330 O.2   1375  FMN1375    -0.2057
      7  C4A      -23.5030  -21.8150  -68.2510 C.2   1375  FMN1375     0.2706
      8  N5       -23.3370  -21.6360  -69.6260 N.2   1375  FMN1375    -0.3841
      9  C5A      -22.1540  -21.1090  -70.1190 C.2   1375  FMN1375     0.1452
     10  C6       -21.9750  -20.9570  -71.5010 C.2   1375  FMN1375     0.0252
     11  C7       -20.7930  -20.4370  -71.9780 C.2   1375  FMN1375    -0.0375
     12  C7M      -20.5260  -20.5050  -73.4630 C.3   1375  FMN1375     0.0268
     13  C8       -19.7570  -20.0650  -71.1110 C.3   1375  FMN1375     0.0417
     14  C8M      -18.3370  -19.9200  -71.5970 C.3   1375  FMN1375     0.0091
     15  C9       -19.9360  -20.2090  -69.7340 C.2   1375  FMN1375    -0.0049
     16  C9A      -21.1230  -20.7350  -69.2430 C.2   1375  FMN1375     0.0795
     17  N10      -21.3060  -20.8880  -67.8720 N.pl3 1375  FMN1375    -0.2545
     18  C10      -22.4790  -21.4250  -67.3880 C.2   1375  FMN1375     0.2449
     19  C1'      -20.2470  -20.4790  -66.8780 C.3   1375  FMN1375     0.1336
     20  C2'      -19.3240  -21.6670  -66.6110 C.3   1375  FMN1375     0.2048
     21  O2'      -19.9180  -22.6500  -65.7750 O.3   1375  FMN1375    -0.2185
     22  C3'      -17.9960  -21.2450  -65.9760 C.3   1375  FMN1375     0.2165
     23  O3'      -18.2880  -20.5770  -64.7460 O.3   1375  FMN1375    -0.2175
     24  C4'      -17.1070  -20.3890  -66.8640 C.3   1375  FMN1375     0.2147
     25  O4'      -16.9960  -20.9610  -68.1670 O.3   1375  FMN1375    -0.2176
     26  C5'      -15.6960  -20.2890  -66.2870 C.3   1375  FMN1375     0.1892
     27  O5'      -14.9800  -19.2640  -66.9390 O.3   1375  FMN1375    -0.2674
     28  P        -13.8110  -19.6200  -68.0000 P.3   1375  FMN1375     0.5327
     29  O1P      -12.5980  -20.1770  -67.2840 O.3   1375  FMN1375    -0.1145
     30  O2P      -14.4310  -20.6510  -68.9410 O.2   1375  FMN1375    -0.2224
     31  O3P      -13.4500  -18.3410  -68.6870 O.3   1375  FMN1375    -0.1145
@<TRIPOS>BOND
     1    12    11    1
     2    11    10    2
     3    11    13    1
     4    14    13    1
     5    10     9    1
     6    13    15    1
     7     9     8    2
     8     9    16    1
     9    15    16    2
    10     8     7    2
    11    16    17    1
    12    30    28    2
    13    31    28    1
    14     6     5    2
    15     7     5    1
    16     7    18    1
    17    25    24    1
    18    28    29    1
    19    28    27    1
    20    17    18    1
    21    17    19    1
    22     5     4    2
    23    18     1    2
    24    27    26    1
    25    19    20    1
    26    24    26    1
    27    24    22    1
    28    20    22    1
    29    20    21    1
    30     4     2    2
    31     1     2    2
    32    22    23    1
    33     2     3    2
