@<TRIPOS>MOLECULE
2nlr_SHG_A_1.pdb
 12 12 0 0 0
SMALL
GASTEIGER

@<TRIPOS>ATOM
      1  C1        33.2990   16.4480    1.6780 C.3   603  SHG603      0.3046
      2  C2        34.3250   17.0000    2.6340 C.3   603  SHG603      0.2524
      3  C3        34.6310   15.9760    3.7000 C.3   603  SHG603      0.2221
      4  C4        33.3490   15.5530    4.4050 C.3   603  SHG603      0.2146
      5  C5        32.3880   14.9810    3.3700 C.3   603  SHG603      0.1836
      6  C6        31.0560   14.5300    3.9310 C.3   603  SHG603      0.2142
      7  O1        32.8600   17.4280    0.7190 O.3   603  SHG603     -0.1867
      8  O3        35.5310   16.5890    4.6380 O.3   603  SHG603     -0.2172
      9  O4        33.6870   14.4530    5.2660 O.3   603  SHG603     -0.2176
     10  O5        32.1530   16.0690    2.4390 O.3   603  SHG603     -0.3235
     11  O6        30.3280   15.6850    4.3930 O.3   603  SHG603     -0.2176
     12  F2        35.5160   17.2700    1.9100 F     603  SHG603     -0.2289
@<TRIPOS>BOND
     1     7     1    1
     2     1    10    1
     3     1     2    1
     4    12     2    1
     5    10     5    1
     6     2     3    1
     7     5     6    1
     8     5     4    1
     9     3     4    1
    10     3     8    1
    11     6    11    1
    12     4     9    1
