@<TRIPOS>MOLECULE
2nlr_BGC_A_1.pdb
 22 22 0 0 0
SMALL
GASTEIGER

@<TRIPOS>ATOM
      1  C2        34.6910   14.8330   12.9060 C.3   601  BGC601      0.1121
      2  C3        35.3640   13.9830   13.9480 C.3   601  BGC601      0.1118
      3  C4        34.4500   12.8560   14.3660 C.3   601  BGC601      0.1117
      4  C5        33.9800   12.1150   13.1040 C.3   601  BGC601      0.1105
      5  C6        32.9490   11.0290   13.4580 C.3   601  BGC601      0.0729
      6  C1        34.2890   14.0040   11.7340 C.3   601  BGC601      0.1161
      7  O2        35.6190   15.8510   12.4740 O.3   601  BGC601     -0.3865
      8  O3        35.7170   14.7840   15.1160 O.3   601  BGC601     -0.3865
      9  O4        35.2500   11.9660   15.1750 O.3   601  BGC601     -0.3865
     10  O5        33.3610   13.0640   12.1970 O.3   601  BGC601     -0.3631
     11  O6        32.1680   10.6690   12.2430 O.3   601  BGC601     -0.3924
     12  H2        33.8980   15.2580   13.2930 H     601  BGC601      0.0647
     13  H3        36.1830   13.6020   13.5670 H     601  BGC601      0.0647
     14  H4        33.6860   13.1980   14.8750 H     601  BGC601      0.0647
     15  H5        34.7520   11.7000   12.6640 H     601  BGC601      0.0646
     16 H6C1       33.4040   10.2440   13.7990 H     601  BGC601      0.0584
     17 H6C2       32.3500   11.3570   14.1470 H     601  BGC601      0.0584
     18  H1        35.0710   13.5510   11.3550 H     601  BGC601      0.0650
     19  HB        36.0010   15.6020   11.7930 H     601  BGC601      0.2100
     20  HC        36.4940   14.6310   15.3280 H     601  BGC601      0.2100
     21  HD        35.0850   12.0950   15.9680 H     601  BGC601      0.2100
     22  H6        32.6590   10.6890   11.5860 H     601  BGC601      0.2095
@<TRIPOS>BOND
     1    18     6    1
     2    22    11    1
     3     6    10    1
     4     6     1    1
     5    19     7    1
     6    10     4    1
     7    11     5    1
     8     7     1    1
     9    15     4    1
    10     1    12    1
    11     1     2    1
    12     4     5    1
    13     4     3    1
    14     5    16    1
    15     5    17    1
    16    13     2    1
    17     2     3    1
    18     2     8    1
    19     3    14    1
    20     3     9    1
    21     8    20    1
    22     9    21    1
