@<TRIPOS>MOLECULE
2nlr_G2F_A_1.pdb
 11 11 0 0 0
SMALL
GASTEIGER

@<TRIPOS>ATOM
      1  C1        34.1270   15.4270    1.5370 C.3   604  G2F604      0.1801
      2  C2        34.8420   16.3620    2.5010 C.3   604  G2F604      0.2230
      3  C3        34.9920   15.6240    3.8080 C.3   604  G2F604      0.2194
      4  C4        33.6480   15.1850    4.3430 C.3   604  G2F604      0.2144
      5  C5        32.8710   14.3770    3.3130 C.3   604  G2F604      0.1810
      6  C6        31.4220   14.1090    3.7230 C.3   604  G2F604      0.2141
      7  O3        35.6300   16.5410    4.7340 O.3   604  G2F604     -0.2173
      8  O4        33.9470   14.2160    5.3810 O.3   604  G2F604     -0.2176
      9  O5        32.8700   15.1320    2.0970 O.3   604  G2F604     -0.3479
     10  O6        30.7810   15.3070    4.1660 O.3   604  G2F604     -0.2176
     11  F2        36.1070   16.6550    1.9710 F     604  G2F604     -0.2317
@<TRIPOS>BOND
     1     1     9    1
     2     1     2    1
     3    11     2    1
     4     9     5    1
     5     2     3    1
     6     5     6    1
     7     5     4    1
     8     6    10    1
     9     3     4    1
    10     3     7    1
    11     4     8    1
