@<TRIPOS>MOLECULE
2nm2_NEU_A_1.pdb
 18 19 0 0 0
SMALL
GASTEIGER

@<TRIPOS>ATOM
      1  N2        44.9100   46.1750   29.8010 N.2   122  NEU122     -0.2466
      2  C1        44.2380   46.3030   28.5730 C.1   122  NEU122      0.2569
      3  C10       44.5580   47.3350   27.6140 C.2   122  NEU122      0.2989
      4  N9        43.9110   47.5050   26.3470 N.2   122  NEU122     -0.3830
      5  C8        44.4010   48.6390   25.4690 C.2   122  NEU122      0.1467
      6  C7        45.4730   49.4580   25.9420 C.3   122  NEU122      0.1940
      7  N6        46.0990   49.2580   27.2060 N.2   122  NEU122     -0.1992
      8  C5        45.7150   48.2350   28.0770 C.1   122  NEU122      0.1401
      9  N4        46.3650   48.1110   29.2640 N.2   122  NEU122     -0.2672
     10  C3        46.0140   47.1220   30.1310 C.1   122  NEU122      0.2609
     11  N13       46.6130   46.9590   31.2690 N.pl3 122  NEU122     -0.0220
     12  C16       43.7760   48.9200   24.0920 C.3   122  NEU122      0.2340
     13  O21       42.4180   48.3230   24.0030 O.3   122  NEU122     -0.2129
     14  C26       44.5330   48.3790   22.9660 C.3   122  NEU122      0.2214
     15  O22       45.2290   47.1510   23.1270 O.3   122  NEU122     -0.2171
     16  C28       45.6920   49.1830   22.3250 C.3   122  NEU122      0.2178
     17  O24       45.1320   50.3120   21.6670 O.3   122  NEU122     -0.2175
     18  O11       43.2830   45.4480   28.3230 O.2   122  NEU122     -0.2052
@<TRIPOS>BOND
     1    17    16    1
     2    16    14    1
     3    14    15    1
     4    14    12    1
     5    13    12    1
     6    12     5    1
     7     5     6    1
     8     5     4    2
     9     6     7    1
    10     4     3    2
    11     7     8    2
    12     3     8    1
    13     3     2    1
    14     8     9    2
    15    18     2    2
    16     2     1    2
    17     9    10    2
    18     1    10    2
    19    10    11    1
