@<TRIPOS>MOLECULE
2nm3_MPU_A_1.pdb
 18 19 0 0 0
SMALL
GASTEIGER

@<TRIPOS>ATOM
      1  N2        46.9300   45.9020   78.3370 N.2   131  MPU131     -0.2466
      2  C1        47.1320   46.7150   77.1770 C.1   131  MPU131      0.2569
      3  O11       46.4220   47.6700   76.7900 O.2   131  MPU131     -0.2052
      4  C10       48.3410   46.2670   76.4510 C.2   131  MPU131      0.2989
      5  N9        48.5670   47.0280   75.3210 N.2   131  MPU131     -0.3830
      6  C8        49.6410   46.6650   74.6320 C.2   131  MPU131      0.1467
      7  C7        50.5920   45.5410   74.9630 C.3   131  MPU131      0.1940
      8  N6        50.2730   44.8250   76.1310 N.2   131  MPU131     -0.1992
      9  C5        49.1530   45.1670   76.9030 C.1   131  MPU131      0.1401
     10  N4        48.8710   44.4250   78.0670 N.2   131  MPU131     -0.2672
     11  C3        47.7710   44.8250   78.7380 C.1   131  MPU131      0.2609
     12  N13       47.5090   44.0850   79.8680 N.pl3 131  MPU131     -0.0220
     13  C16       49.8990   47.4970   73.4400 C.3   131  MPU131      0.2340
     14  O21       48.9500   48.4950   73.1980 O.3   131  MPU131     -0.2129
     15  C26       50.2690   46.7850   72.1280 C.3   131  MPU131      0.2214
     16  O22       51.5620   46.2080   71.9800 O.3   131  MPU131     -0.2171
     17  C28       49.2780   45.6610   71.6910 C.3   131  MPU131      0.2178
     18  O24       48.0070   46.1940   71.4200 O.3   131  MPU131     -0.2175
@<TRIPOS>BOND
     1    18    17    1
     2    17    15    1
     3    16    15    1
     4    15    13    1
     5    14    13    1
     6    13     6    1
     7     6     7    1
     8     6     5    2
     9     7     8    1
    10     5     4    2
    11     8     9    2
    12     4     9    1
    13     4     2    1
    14     3     2    2
    15     9    10    2
    16     2     1    2
    17    10    11    2
    18     1    11    2
    19    11    12    1
