@<TRIPOS>MOLECULE
2nmn_GAL_A_1.pdb
 11 11 0 0 0
SMALL
GASTEIGER

@<TRIPOS>ATOM
      1  C1        20.3220   38.3170   33.0220 C.3   500  GAL500      0.1777
      2  C2        18.8300   38.6220   32.9170 C.3   500  GAL500      0.2141
      3  C3        17.9880   37.4190   33.3130 C.3   500  GAL500      0.2173
      4  C4        18.4230   36.1690   32.5680 C.3   500  GAL500      0.2142
      5  C5        19.9400   35.9500   32.7030 C.3   500  GAL500      0.1810
      6  C6        20.4310   34.8210   31.8030 C.3   500  GAL500      0.2141
      7  O2        18.5290   39.6340   33.8350 O.3   500  GAL500     -0.2176
      8  O3        16.6400   37.6590   33.0150 O.3   500  GAL500     -0.2175
      9  O4        17.9920   36.2520   31.2220 O.3   500  GAL500     -0.2176
     10  O5        20.6970   37.1040   32.3980 O.3   500  GAL500     -0.3481
     11  O6        21.8390   34.6380   31.9960 O.3   500  GAL500     -0.2176
@<TRIPOS>BOND
     1     9     4    1
     2     6    11    1
     3     6     5    1
     4    10     5    1
     5    10     1    1
     6     4     5    1
     7     4     3    1
     8     2     1    1
     9     2     3    1
    10     2     7    1
    11     8     3    1
