@<TRIPOS>MOLECULE
2nmn_BGC_A_1.pdb
 12 12 0 0 0
SMALL
GASTEIGER

@<TRIPOS>ATOM
      1  C2        24.8110   39.4500   31.8280 C.3   501  BGC501      0.2434
      2  C3        23.3220   39.5300   31.5070 C.3   501  BGC501      0.2199
      3  C4        22.4620   39.0880   32.7030 C.3   501  BGC501      0.2144
      4  C5        22.9470   39.6980   34.0250 C.3   501  BGC501      0.1836
      5  C6        22.3550   38.9730   35.2310 C.3   501  BGC501      0.2142
      6  C1        25.0620   40.2300   33.1070 C.3   501  BGC501      0.3024
      7  O1        26.4370   40.2190   33.4080 O.3   501  BGC501     -0.1869
      8  O2        25.5720   39.9950   30.7780 O.3   501  BGC501     -0.2148
      9  O3        23.0480   38.7430   30.3670 O.3   501  BGC501     -0.2174
     10  O4        21.0950   39.4050   32.4830 O.3   501  BGC501     -0.2176
     11  O5        24.3490   39.5910   34.1450 O.3   501  BGC501     -0.3236
     12  O6        23.0020   37.7300   35.4600 O.3   501  BGC501     -0.2176
@<TRIPOS>BOND
     1     9     2    1
     2     8     1    1
     3     2     1    1
     4     2     3    1
     5     1     6    1
     6    10     3    1
     7     3     4    1
     8     6     7    1
     9     6    11    1
    10     4    11    1
    11     4     5    1
    12     5    12    1
