@<TRIPOS>MOLECULE
2nmo_BGC_A_1.pdb
 12 12 0 0 0
SMALL
GASTEIGER

@<TRIPOS>ATOM
      1  C2        24.8370   38.9780   31.4650 C.3   501  BGC501      0.2434
      2  C3        23.3170   38.9570   31.3300 C.3   501  BGC501      0.2199
      3  C4        22.6420   38.4840   32.6190 C.3   501  BGC501      0.2144
      4  C5        23.1780   39.2480   33.8410 C.3   501  BGC501      0.1836
      5  C6        22.6660   38.6860   35.1670 C.3   501  BGC501      0.2142
      6  C1        25.2360   39.7760   32.7060 C.3   501  BGC501      0.3024
      7  O1        26.6580   39.7350   32.8710 O.3   501  BGC501     -0.1869
      8  O2        25.4170   39.5690   30.2990 O.3   501  BGC501     -0.2148
      9  O3        22.9250   38.1070   30.2480 O.3   501  BGC501     -0.2174
     10  O4        21.2300   38.6510   32.4670 O.3   501  BGC501     -0.2176
     11  O5        24.6120   39.2140   33.8650 O.3   501  BGC501     -0.3236
     12  O6        23.1440   37.3470   35.3620 O.3   501  BGC501     -0.2176
@<TRIPOS>BOND
     1     9     2    1
     2     8     1    1
     3     2     1    1
     4     2     3    1
     5     1     6    1
     6    10     3    1
     7     3     4    1
     8     6     7    1
     9     6    11    1
    10     4    11    1
    11     4     5    1
    12     5    12    1
