@<TRIPOS>MOLECULE
2nmo_GAL_A_1.pdb
 11 11 0 0 0
SMALL
GASTEIGER

@<TRIPOS>ATOM
      1  C1        20.4720   37.4900   32.8150 C.3   500  GAL500      0.1777
      2  C2        18.9820   37.8390   32.8220 C.3   500  GAL500      0.2141
      3  C3        18.1180   36.5940   33.0370 C.3   500  GAL500      0.2173
      4  C4        18.5510   35.4410   32.1280 C.3   500  GAL500      0.2142
      5  C5        20.0550   35.2150   32.2700 C.3   500  GAL500      0.1810
      6  C6        20.5630   34.0600   31.4180 C.3   500  GAL500      0.2141
      7  O2        18.7210   38.7850   33.8640 O.3   500  GAL500     -0.2176
      8  O3        16.7410   36.9200   32.8100 O.3   500  GAL500     -0.2175
      9  O4        18.2320   35.7380   30.7590 O.3   500  GAL500     -0.2176
     10  O5        20.7440   36.4160   31.9030 O.3   500  GAL500     -0.3481
     11  O6        21.9550   33.8770   31.6910 O.3   500  GAL500     -0.2176
@<TRIPOS>BOND
     1     9     4    1
     2     6    11    1
     3     6     5    1
     4    10     5    1
     5    10     1    1
     6     4     5    1
     7     4     3    1
     8     8     3    1
     9     1     2    1
    10     2     3    1
    11     2     7    1
