@<TRIPOS>MOLECULE
2nmp_PLP_A_1.pdb
 15 15 0 0 0
SMALL
GASTEIGER

@<TRIPOS>ATOM
      1  N1       -18.9400   35.4200  -16.9430 N.ar  500  PLP500     -0.2452
      2  C2       -18.9930   36.5460  -17.7000 C.ar  500  PLP500      0.0978
      3  C2A      -17.9090   37.6790  -17.6040 C.3   500  PLP500      0.0555
      4  C3       -20.0370   36.7120  -18.6080 C.ar  500  PLP500      0.2049
      5  O3       -20.0710   37.8370  -19.3620 O.3   500  PLP500     -0.2857
      6  C4       -21.0240   35.7380  -18.7280 C.ar  500  PLP500      0.0182
      7  C4A      -22.1610   35.9630  -19.7170 C.3   500  PLP500      0.0342
      8  C5       -20.9670   34.5830  -17.9290 C.ar  500  PLP500      0.0261
      9  C6       -19.8810   34.4800  -17.0370 C.ar  500  PLP500      0.0965
     10  C5A      -22.0090   33.4490  -17.9340 C.3   500  PLP500      0.1815
     11  O4P      -21.9010   32.6020  -19.0590 O.3   500  PLP500     -0.2653
     12  P        -23.1560   32.0410  -19.9400 P.3   500  PLP500      0.5329
     13  O1P      -22.5970   31.3780  -21.1450 O.2   500  PLP500     -0.2224
     14  O2P      -24.1370   33.3340  -20.1840 O.3   500  PLP500     -0.1145
     15  O3P      -23.9930   31.0840  -18.9780 O.3   500  PLP500     -0.1145
@<TRIPOS>BOND
     1    13    12    2
     2    14    12    1
     3    12    11    1
     4    12    15    1
     5     7     6    1
     6     5     4    1
     7    11    10    1
     8     6     4   ar
     9     6     8   ar
    10     4     2   ar
    11    10     8    1
    12     8     9   ar
    13     2     3    1
    14     2     1   ar
    15     9     1   ar
