@<TRIPOS>MOLECULE
2nmt_MIM_A_1.pdb
 43 45 0 0 0
SMALL
GASTEIGER

@<TRIPOS>ATOM
      1  CIB       27.9210   29.2720   77.5070 C.3   700  MIM700      0.0718
      2  NGB       28.9150   30.4350   75.4200 N.ar  700  MIM700     -0.2293
      3  CBB       27.8360   29.8610   76.0890 C.ar  700  MIM700      0.1208
      4  NAB       26.6820   29.9240   75.2420 N.ar  700  MIM700     -0.3137
      5  CEB       27.0930   30.5450   74.0530 C.ar  700  MIM700      0.0977
      6  CDB       28.4710   30.8570   74.1720 C.ar  700  MIM700      0.1188
      7  C9B       25.3070   29.4170   75.5870 C.3   700  MIM700      0.1072
      8  C8B       24.1670   29.7370   74.5700 C.3   700  MIM700      0.0249
      9  C7B       23.1500   30.8040   75.1560 C.3   700  MIM700      0.0067
     10  C6B       23.9650   32.0660   75.2020 C.3   700  MIM700      0.0264
     11  C3B       23.9840   32.7890   73.8380 C.ar  700  MIM700     -0.0222
     12  C2B       25.0080   33.7610   73.6960 C.ar  700  MIM700     -0.0046
     13  C1B       25.2050   34.4100   72.5050 C.ar  700  MIM700     -0.0041
     14  C0B       24.3800   34.1080   71.3750 C.ar  700  MIM700     -0.0131
     15  C5B       23.3300   33.1200   71.4780 C.ar  700  MIM700     -0.0041
     16  C4B       23.1430   32.4410   72.7190 C.ar  700  MIM700     -0.0046
     17  CAB       24.6410   34.8920   70.0650 C.3   700  MIM700      0.1131
     18  CB        24.2450   36.2740   70.3510 C.2   700  MIM700      0.2463
     19  OB        23.3860   36.4880   71.1920 O.2   700  MIM700     -0.2730
     20  NS        24.7650   37.2480   69.7180 N.am  700  MIM700     -0.1947
     21  CAS       24.3030   38.6150   70.0540 C.3   700  MIM700      0.2054
     22  CS        24.8970   39.5610   69.1070 C.2   700  MIM700      0.2643
     23  OS        25.6820   39.2060   68.2790 O.2   700  MIM700     -0.2714
     24  CBS       24.8330   38.9550   71.5110 C.3   700  MIM700      0.2130
     25  OGS       24.2090   40.0650   72.1650 O.3   700  MIM700     -0.2179
     26  NK        24.5150   40.7940   69.1780 N.am  700  MIM700     -0.1963
     27  CAK       25.0370   41.7660   68.2570 C.3   700  MIM700      0.1728
     28  CK        24.5150   43.1370   68.5280 C.2   700  MIM700      0.2612
     29  OK        23.7010   43.4100   69.4670 O.2   700  MIM700     -0.2715
     30  CBK       24.7450   41.3740   66.7640 C.3   700  MIM700      0.0311
     31  CGK       23.3280   40.8800   66.4870 C.3   700  MIM700      0.0038
     32  CDK       22.7520   41.3980   65.1900 C.3   700  MIM700      0.0206
     33  CEK       21.6550   40.4680   64.6820 C.3   700  MIM700      0.1093
     34  NZK       20.4970   40.6310   65.5540 N.3   700  MIM700     -0.1314
     35  NY        25.0490   44.0240   67.7100 N.am  700  MIM700     -0.2040
     36  CAY       24.7800   45.4240   67.8190 C.3   700  MIM700      0.1152
     37  CBY       26.0310   45.8440   68.5760 C.3   700  MIM700      0.0234
     38  CGY       26.2900   47.3280   68.5050 C.3   700  MIM700      0.0018
     39  CKY       25.7260   48.0240   69.7900 C.3   700  MIM700      0.0001
     40  CHY       26.0170   49.5150   69.7000 C.3   700  MIM700      0.0000
     41  CZY       27.5510   49.7080   69.6240 C.3   700  MIM700      0.0000
     42  CEY       28.1000   49.0500   68.3210 C.3   700  MIM700      0.0000
     43  CDY       27.8270   47.5410   68.3760 C.3   700  MIM700      0.0001
@<TRIPOS>BOND
     1    33    32    1
     2    33    34    1
     3    32    31    1
     4    31    30    1
     5    30    27    1
     6    35    36    1
     7    35    28   am
     8    36    37    1
     9    27    28    1
    10    27    26    1
    11    23    22    2
    12    42    43    1
    13    42    41    1
    14    43    38    1
    15    38    37    1
    16    38    39    1
    17    28    29    2
    18    22    26   am
    19    22    21    1
    20    41    40    1
    21    40    39    1
    22    20    21    1
    23    20    18   am
    24    21    24    1
    25    17    18    1
    26    17    14    1
    27    18    19    2
    28    14    15   ar
    29    14    13   ar
    30    15    16   ar
    31    24    25    1
    32    13    12   ar
    33    16    11   ar
    34    12    11   ar
    35    11    10    1
    36     5     6   ar
    37     5     4   ar
    38     6     2   ar
    39     8     9    1
    40     8     7    1
    41     9    10    1
    42     4     7    1
    43     4     3   ar
    44     2     3   ar
    45     3     1    1
