@<TRIPOS>MOLECULE
2nmv_FLU_D_1.pdb
 16 18 0 0 0
SMALL
GASTEIGER

@<TRIPOS>ATOM
      1  C1        -5.8890    8.2430  -27.3780 C.2   600  FLU600      0.1949
      2  O1        -5.6350    9.5240  -27.0580 O.2   600  FLU600     -0.2868
      3  C2        -4.9500    7.2460  -27.0990 C.2   600  FLU600      0.0788
      4  C3        -5.2660    5.9470  -27.4530 C.2   600  FLU600      0.1443
      5  O2        -4.3830    4.9230  -27.2060 O.2   600  FLU600     -0.4575
      6  C4        -4.7300    3.6350  -27.5690 C.2   600  FLU600      0.1304
      7  C5        -3.8490    2.6040  -27.3170 C.3   600  FLU600      0.1334
      8  C6        -4.1950    1.3010  -27.6860 C.2   600  FLU600      0.1807
      9  O3        -3.3730    0.3890  -27.4520 O.2   600  FLU600     -0.2909
     10  C7        -5.4130    0.9860  -28.3050 C.2   600  FLU600      0.0380
     11  C8        -6.3460    1.9740  -28.5840 C.2   600  FLU600      0.0056
     12  C9        -6.0360    3.2800  -28.2340 C.2   600  FLU600      0.0307
     13  C10       -7.0170    4.3360  -28.5300 C.2   600  FLU600      0.0018
     14  C11       -6.6000    5.6980  -28.1200 C.2   600  FLU600      0.0170
     15  C12       -7.4810    6.7400  -28.3680 C.3   600  FLU600      0.0587
     16  C13       -7.1150    8.0180  -27.9900 C.2   600  FLU600      0.0208
@<TRIPOS>BOND
     1    11    10    2
     2    11    12    1
     3    13    12    1
     4    13    14    2
     5    15    14    1
     6    15    16    1
     7    10     8    1
     8    12     6    2
     9    14     4    1
    10    16     1    2
    11     8     9    2
    12     8     7    1
    13     6     7    1
    14     6     5    1
    15     4     5    1
    16     4     3    2
    17     1     3    1
    18     1     2    1
