@<TRIPOS>MOLECULE
2nmv_ADP_A_1.pdb
 27 29 0 0 0
SMALL
GASTEIGER

@<TRIPOS>ATOM
      1  PB       -15.5890   18.1290  -16.3710 P.3   662  ADP662      0.5373
      2  O1B      -16.6910   17.1010  -16.6370 O.2   662  ADP662     -0.2221
      3  O2B      -14.1630   17.6050  -16.5590 O.3   662  ADP662     -0.1143
      4  O3B      -15.8480   18.9430  -15.1180 O.3   662  ADP662     -0.1143
      5  PA       -15.9170   18.9830  -19.0970 P.3   662  ADP662      0.2231
      6  O1A      -14.5270   18.6060  -19.6100 O.2   662  ADP662     -0.5169
      7  O2A      -17.0840   18.0310  -19.3210 O.3   662  ADP662     -0.4370
      8  O3A      -15.7700   19.2760  -17.5050 O.3   662  ADP662     -0.2261
      9  O5'      -16.3280   20.4670  -19.6450 O.3   662  ADP662     -0.3111
     10  C5'      -17.6490   20.9040  -20.0150 C.3   662  ADP662      0.1813
     11  C4'      -17.7140   21.0910  -21.5390 C.3   662  ADP662      0.1821
     12  O4'      -17.5090   22.4540  -21.9650 O.3   662  ADP662     -0.3135
     13  C3'      -16.5960   20.2830  -22.1710 C.3   662  ADP662      0.2184
     14  O3'      -17.0740   19.6860  -23.3860 O.3   662  ADP662     -0.2174
     15  C2'      -15.4780   21.3020  -22.3800 C.3   662  ADP662      0.2570
     16  O2'      -14.6030   20.9310  -23.4500 O.3   662  ADP662     -0.2130
     17  C1'      -16.1970   22.6490  -22.5630 C.3   662  ADP662      0.3186
     18  N9       -15.4110   23.7920  -21.9580 N.pl3 662  ADP662     -0.1439
     19  C8       -14.5470   23.6950  -20.9110 C.3   662  ADP662      0.3377
     20  N7       -13.9720   24.8870  -20.5650 N.2   662  ADP662     -0.2095
     21  C5       -14.4610   25.8120  -21.4100 C.2   662  ADP662      0.2526
     22  C6       -14.2710   27.2820  -21.6090 C.2   662  ADP662      0.4393
     23  N6       -13.4330   28.0150  -20.8310 N.pl3 662  ADP662      0.2180
     24  N1       -14.9760   27.8730  -22.6060 N.2   662  ADP662      0.0021
     25  C2       -15.8240   27.1780  -23.3920 C.3   662  ADP662      0.5254
     26  N3       -16.0360   25.8450  -23.2740 N.2   662  ADP662     -0.0055
     27  C4       -15.4040   25.0970  -22.3210 C.2   662  ADP662      0.3518
@<TRIPOS>BOND
     1    16    15    1
     2    25    26    1
     3    25    24    1
     4    14    13    1
     5    26    27    2
     6    24    22    2
     7    17    15    1
     8    17    12    1
     9    17    18    1
    10    15    13    1
    11    27    18    1
    12    27    21    1
    13    13    11    1
    14    12    11    1
    15    18    19    1
    16    22    21    1
    17    22    23    1
    18    11    10    1
    19    21    20    2
    20    19    20    1
    21    10     9    1
    22     9     5    1
    23     6     5    2
    24     7     5    1
    25     5     8    1
    26     8     1    1
    27     2     1    2
    28     3     1    1
    29     1     4    1
