@<TRIPOS>MOLECULE
2nmx_M25_A_1.pdb
 16 16 0 0 0
SMALL
GASTEIGER

@<TRIPOS>ATOM
      1  C1       -17.1190   -0.3350  -19.2180 C.ar  311  M25311      0.1250
      2  C2       -17.2670   -1.1950  -18.1260 C.ar  311  M25311      0.0197
      3  C3       -17.8370   -0.6910  -16.9680 C.ar  311  M25311     -0.0028
      4  C4       -18.2630    0.6470  -16.8510 C.ar  311  M25311     -0.0203
      5  C5       -18.1000    1.4990  -17.9670 C.ar  311  M25311     -0.0028
      6  C6       -17.5280    1.0280  -19.1630 C.ar  311  M25311      0.0197
      7  S        -16.3990   -0.9430  -20.7100 S.O2  311  M25311      0.0935
      8  O1       -16.0470    0.1710  -21.5580 O.2   311  M25311     -0.1503
      9  O2       -17.3810   -1.8790  -21.2420 O.2   311  M25311     -0.1503
     10  N1       -15.0290   -1.7550  -20.3310 N.3   311  M25311      0.0392
     11  C7       -18.8660    1.1360  -15.5610 C.3   311  M25311      0.0498
     12  C8       -17.7940    1.6190  -14.5950 C.3   311  M25311      0.1198
     13  N2       -18.4260    2.0720  -13.3570 N.am  311  M25311     -0.2051
     14  C9       -18.7940    3.3740  -13.1580 C.2   311  M25311      0.2419
     15  C10      -19.4340    3.6210  -11.8050 C.3   311  M25311      0.0964
     16  O3       -18.6280    4.2840  -13.9800 O.2   311  M25311     -0.2733
@<TRIPOS>BOND
     1     8     7    2
     2     9     7    2
     3     7    10    1
     4     7     1    1
     5     1     6   ar
     6     1     2   ar
     7     6     5   ar
     8     2     3   ar
     9     5     4   ar
    10     3     4   ar
    11     4    11    1
    12    11    12    1
    13    12    13    1
    14    16    14    2
    15    13    14   am
    16    14    15    1
