@<TRIPOS>MOLECULE
2nmy_ROC_A_1.pdb
 49 53 0 0 0
SMALL
GASTEIGER

@<TRIPOS>ATOM
      1  C         21.7490   26.8050   18.7900 C.2   401  ROC401      0.2910
      2  O         21.3160   28.0230   18.7860 O.2   401  ROC401     -0.2659
      3  N1        23.3760   25.0100   19.2660 N.2   401  ROC401     -0.4013
      4  C2        22.8630   26.2350   19.5820 C.2   401  ROC401      0.1679
      5  C3        23.4120   26.9840   20.6270 C.3   401  ROC401      0.0899
      6  C4        24.5010   26.4220   21.3230 C.2   401  ROC401     -0.0160
      7  C5        26.1110   24.5650   21.6620 C.ar  401  ROC401      0.0022
      8  C6        26.5900   23.3250   21.3010 C.ar  401  ROC401      0.0002
      9  C7        26.0060   22.6300   20.2570 C.ar  401  ROC401      0.0026
     10  C8        24.9460   23.1980   19.5950 C.ar  401  ROC401      0.0320
     11  C4A       25.0350   25.1550   20.9980 C.ar  401  ROC401      0.0257
     12  C8A       24.4350   24.4580   19.9370 C.ar  401  ROC401      0.1309
     13  N         21.1920   25.9130   17.9020 N.am  401  ROC401     -0.1916
     14  CA        19.9340   26.1320   17.0460 C.3   401  ROC401      0.1823
     15  C1        18.8800   24.9880   17.2750 C.2   401  ROC401      0.2618
     16  O1        18.8350   23.9360   16.5710 O.2   401  ROC401     -0.2715
     17  CB        20.2840   26.2720   15.5030 C.3   401  ROC401      0.1195
     18  CG        21.2790   27.3910   15.3910 C.2   401  ROC401      0.2630
     19  OD1       22.5290   27.1740   15.1770 O.2   401  ROC401     -0.2716
     20  ND2       20.8740   28.6270   15.5050 N.am  401  ROC401     -0.0877
     21  C9        15.6590   24.7940   18.4730 C.3   401  ROC401      0.1879
     22  O2        15.3100   25.8970   19.3130 O.3   401  ROC401     -0.2198
     23  CA1       17.0730   24.2490   18.8020 C.3   401  ROC401      0.1313
     24  N2        18.1020   25.1880   18.3350 N.am  401  ROC401     -0.2027
     25  CB1       17.2550   23.9090   20.3430 C.3   401  ROC401      0.0506
     26  CG1       18.7020   23.6360   20.7300 C.ar  401  ROC401     -0.0204
     27  CD1       19.3300   22.4280   20.3850 C.ar  401  ROC401     -0.0042
     28  CD2       19.4280   24.5580   21.4450 C.ar  401  ROC401     -0.0042
     29  CE1       20.6250   22.1710   20.7480 C.ar  401  ROC401     -0.0003
     30  CE2       20.7280   24.3030   21.8100 C.ar  401  ROC401     -0.0003
     31  CZ        21.3710   23.1000   21.4740 C.ar  401  ROC401     -0.0000
     32  N11       14.4650   22.9930   17.2080 N.3   401  ROC401     -0.2643
     33  CM        14.5760   23.7260   18.4630 C.3   401  ROC401      0.1075
     34  C21       13.8350   21.6460   17.3150 C.3   401  ROC401      0.1365
     35  CC        14.5280   20.7830   18.3590 C.2   401  ROC401      0.2558
     36  O3        15.7260   20.5630   18.2430 O.2   401  ROC401     -0.2719
     37  C31       13.8440   20.9340   15.9790 C.3   401  ROC401      0.0254
     38  C3A       13.1820   21.7180   14.8750 C.3   401  ROC401      0.0032
     39  C41       13.2990   21.0840   13.4710 C.3   401  ROC401      0.0001
     40  C51       14.7250   21.2020   12.9000 C.3   401  ROC401      0.0000
     41  C61       15.0460   22.6730   12.7470 C.3   401  ROC401      0.0000
     42  C71       15.0920   23.2290   14.1710 C.3   401  ROC401      0.0014
     43  C7A       13.7210   23.1660   14.8180 C.3   401  ROC401      0.0161
     44  C81       13.7230   23.7890   16.1940 C.3   401  ROC401      0.0725
     45  N3        13.7430   20.1270   19.2750 N.am  401  ROC401     -0.2077
     46  CD        14.1900   19.1990   20.3240 C.3   401  ROC401      0.0788
     47  C11       12.9740   18.7690   21.0910 C.3   401  ROC401      0.0217
     48  C22       15.1320   19.9730   21.2380 C.3   401  ROC401      0.0217
     49  C32       14.9270   18.0370   19.6990 C.3   401  ROC401      0.0217
@<TRIPOS>BOND
     1    41    40    1
     2    41    42    1
     3    40    39    1
     4    39    38    1
     5    42    43    1
     6    43    38    1
     7    43    44    1
     8    38    37    1
     9    19    18    2
    10    18    17    1
    11    18    20   am
    12    17    14    1
    13    37    34    1
    14    44    32    1
    15    16    15    2
    16    14    15    1
    17    14    13    1
    18    32    34    1
    19    32    33    1
    20    15    24   am
    21    34    35    1
    22    13     1   am
    23    36    35    2
    24    24    23    1
    25    35    45   am
    26    33    21    1
    27    21    23    1
    28    21    22    1
    29     2     1    2
    30     1     4    1
    31    23    25    1
    32     3     4    2
    33     3    12    2
    34    45    46    1
    35     4     5    1
    36    10    12   ar
    37    10     9   ar
    38    49    46    1
    39    12    11   ar
    40     9     8   ar
    41    46    47    1
    42    46    48    1
    43    25    26    1
    44    27    26   ar
    45    27    29   ar
    46     5     6    1
    47    26    28   ar
    48    29    31   ar
    49    11     6    2
    50    11     7   ar
    51     8     7   ar
    52    28    30   ar
    53    31    30   ar
