@<TRIPOS>MOLECULE
2nmz_ROC_B_1.pdb
 49 53 0 0 0
SMALL
GASTEIGER

@<TRIPOS>ATOM
      1  C         19.4420   35.7070   18.0870 C.2   401  ROC401      0.2949
      2  O         18.8080   35.1930   19.1060 O.2   401  ROC401     -0.2655
      3  N1        20.5190   37.5130   16.8160 N.2   401  ROC401     -0.4009
      4  C2        20.3810   36.8550   18.0380 C.2   401  ROC401      0.1854
      5  C3        21.0610   37.3250   19.1550 C.2   401  ROC401      0.0330
      6  C4        21.9900   38.3620   19.0420 C.2   401  ROC401     -0.0123
      7  C5        22.8740   40.2130   17.7490 C.2   401  ROC401     -0.0150
      8  C6        22.8750   40.9410   16.5830 C.2   401  ROC401     -0.0038
      9  C7        22.2200   40.4090   15.5010 C.2   401  ROC401      0.0020
     10  C8        21.5670   39.2210   15.4910 C.2   401  ROC401      0.0282
     11  C4A       22.0520   39.0840   17.8470 C.3   401  ROC401      0.0963
     12  C8A       21.3480   38.6040   16.7390 C.2   401  ROC401      0.1169
     13  N         19.1240   35.1770   16.9000 N.am  401  ROC401     -0.1913
     14  CA        18.3220   33.9500   16.7130 C.3   401  ROC401      0.1823
     15  C1        19.1400   32.9980   15.8530 C.2   401  ROC401      0.2618
     16  O1        19.1080   33.1340   14.6100 O.2   401  ROC401     -0.2715
     17  CB        16.9670   34.1710   16.1770 C.3   401  ROC401      0.1195
     18  CG        16.2190   35.0510   17.1230 C.2   401  ROC401      0.2630
     19  OD1       15.9560   36.2410   16.8850 O.2   401  ROC401     -0.2716
     20  ND2       15.8500   34.5260   18.1580 N.am  401  ROC401     -0.0877
     21  C9        20.1470   29.7160   16.0930 C.3   401  ROC401      0.1879
     22  O2        20.3780   29.4140   17.4620 O.3   401  ROC401     -0.2198
     23  CA1       20.6840   31.1000   15.7290 C.3   401  ROC401      0.1313
     24  N2        19.8940   32.0840   16.4740 N.am  401  ROC401     -0.2027
     25  CB1       22.1470   31.3120   16.0740 C.3   401  ROC401      0.0506
     26  CG1       22.5950   32.7250   16.1290 C.ar  401  ROC401     -0.0204
     27  CD1       22.8400   33.4010   14.9200 C.ar  401  ROC401     -0.0042
     28  CD2       22.7840   33.3930   17.3260 C.ar  401  ROC401     -0.0042
     29  CE1       23.2900   34.6910   14.9660 C.ar  401  ROC401     -0.0003
     30  CE2       23.1740   34.7100   17.3230 C.ar  401  ROC401     -0.0003
     31  CZ        23.4750   35.3600   16.1490 C.ar  401  ROC401     -0.0000
     32  N11       19.8250   28.6180   13.9350 N.3   401  ROC401     -0.2643
     33  CM        20.5760   28.5920   15.1630 C.3   401  ROC401      0.1075
     34  C21       20.5310   28.0220   12.7960 C.3   401  ROC401      0.1365
     35  CC        21.8210   28.7490   12.3920 C.2   401  ROC401      0.2558
     36  O3        21.7120   29.9440   12.1960 O.2   401  ROC401     -0.2719
     37  C31       19.7080   28.1670   11.5340 C.3   401  ROC401      0.0254
     38  C3A       18.3780   27.4230   11.6980 C.3   401  ROC401      0.0032
     39  C41       17.4920   27.6600   10.4740 C.3   401  ROC401      0.0001
     40  C51       17.0860   29.1530   10.3250 C.3   401  ROC401      0.0000
     41  C61       16.1960   29.4130   11.5460 C.3   401  ROC401      0.0000
     42  C71       17.1140   29.3220   12.7320 C.3   401  ROC401      0.0014
     43  C7A       17.6670   27.9340   12.9730 C.3   401  ROC401      0.0161
     44  C81       18.5950   27.8430   14.1640 C.3   401  ROC401      0.0725
     45  N3        22.8690   27.9140   12.2830 N.am  401  ROC401     -0.2077
     46  CD        24.2190   28.2970   11.8940 C.3   401  ROC401      0.0788
     47  C11       25.0000   27.0040   11.7370 C.3   401  ROC401      0.0217
     48  C22       24.4880   29.4030   12.7460 C.3   401  ROC401      0.0217
     49  C32       24.1310   29.0940   10.5730 C.3   401  ROC401      0.0217
@<TRIPOS>BOND
     1    40    39    1
     2    40    41    1
     3    39    38    1
     4    49    46    1
     5    37    38    1
     6    37    34    1
     7    41    42    1
     8    38    43    1
     9    47    46    1
    10    46    45    1
    11    46    48    1
    12    36    35    2
    13    45    35   am
    14    35    34    1
    15    42    43    1
    16    34    32    1
    17    43    44    1
    18    32    44    1
    19    32    33    1
    20    16    15    2
    21    27    29   ar
    22    27    26   ar
    23    29    31   ar
    24    33    21    1
    25    10     9    2
    26    10    12    1
    27     9     8    1
    28    23    25    1
    29    23    21    1
    30    23    24    1
    31    15    24   am
    32    15    14    1
    33    25    26    1
    34    21    22    1
    35    26    28   ar
    36    31    30   ar
    37    17    14    1
    38    17    18    1
    39     8     7    2
    40    14    13    1
    41    12     3    2
    42    12    11    1
    43     3     4    2
    44    19    18    2
    45    13     1   am
    46    18    20   am
    47    30    28   ar
    48     7    11    1
    49    11     6    1
    50     4     1    1
    51     4     5    1
    52     1     2    2
    53     6     5    2
