@<TRIPOS>MOLECULE
2nn1_M28_A_1.pdb
 15 15 0 0 0
SMALL
GASTEIGER

@<TRIPOS>ATOM
      1  C1       -17.2850   -0.1480  -19.5040 C.ar  311  M28311      0.1250
      2  C2       -17.8840    1.1500  -19.6590 C.ar  311  M28311      0.0197
      3  C3       -18.4910    1.7660  -18.5530 C.ar  311  M28311     -0.0029
      4  C4       -18.5120    1.1130  -17.2980 C.ar  311  M28311     -0.0215
      5  C5       -17.8940   -0.1620  -17.1970 C.ar  311  M28311     -0.0029
      6  C6       -17.2860   -0.7990  -18.2620 C.ar  311  M28311      0.0197
      7  S        -16.5200   -0.9610  -20.8420 S.O2  311  M28311      0.0935
      8  O1       -16.1010    0.0900  -21.7320 O.2   311  M28311     -0.1503
      9  O2       -17.4980   -1.9070  -21.3580 O.2   311  M28311     -0.1503
     10  N3       -15.2840   -1.7440  -20.2100 N.3   311  M28311      0.0392
     11  C7       -19.1420    1.7170  -16.1040 C.3   311  M28311      0.0382
     12  C8       -18.1470    1.4970  -14.9570 C.3   311  M28311      0.1187
     13  C9       -18.3600    2.0250  -13.5650 C.2   311  M28311      0.3652
     14  O4       -19.0640    3.0400  -13.3820 O.co2 311  M28311     -0.2456
     15  O5       -17.8010    1.4650  -12.5880 O.co2 311  M28311     -0.2456
@<TRIPOS>BOND
     1     8     7    2
     2     9     7    2
     3     7    10    1
     4     7     1    1
     5     2     1   ar
     6     2     3   ar
     7     1     6   ar
     8     3     4   ar
     9     6     5   ar
    10     4     5   ar
    11     4    11    1
    12    11    12    1
    13    12    13    1
    14    13    14   ar
    15    13    15   ar
