@<TRIPOS>MOLECULE
2nn7_M29_A_1.pdb
 17 17 0 0 0
SMALL
GASTEIGER

@<TRIPOS>ATOM
      1  C1       -17.3450   -0.0940  -19.4520 C.ar  311  M29311      0.1250
      2  C2       -18.0990    1.1180  -19.6320 C.ar  311  M29311      0.0200
      3  C3       -18.7530    1.7170  -18.5300 C.ar  311  M29311      0.0014
      4  C4       -18.6730    1.1350  -17.2430 C.ar  311  M29311      0.0003
      5  C5       -17.9350   -0.0430  -17.0520 C.ar  311  M29311      0.0014
      6  C6       -17.2660   -0.6640  -18.1590 C.ar  311  M29311      0.0200
      7  S        -16.5430   -0.8610  -20.8190 S.O2  311  M29311      0.0935
      8  O1       -16.2170    0.2080  -21.7320 O.2   311  M29311     -0.1503
      9  O2       -17.5190   -1.8370  -21.2900 O.2   311  M29311     -0.1503
     10  N        -15.2320   -1.6140  -20.2810 N.3   311  M29311      0.0392
     11  C7       -19.3900    1.7510  -16.0770 C.2   311  M29311      0.0066
     12  C8       -18.7590    3.0130  -15.5280 C.2   311  M29311      0.0819
     13  C9       -19.4590    3.6790  -14.3620 C.2   311  M29311      0.3414
     14  O3       -18.8600    4.8420  -13.9480 O.3   311  M29311     -0.4454
     15  O4       -20.4620    3.2100  -13.8950 O.2   311  M29311     -0.2449
     16  C10      -19.4960    5.5630  -12.8580 C.3   311  M29311      0.2089
     17  C11      -18.7570    6.8890  -12.7570 C.3   311  M29311      0.0513
@<TRIPOS>BOND
     1     8     7    2
     2     9     7    2
     3     7    10    1
     4     7     1    1
     5     2     1   ar
     6     2     3   ar
     7     1     6   ar
     8     3     4   ar
     9     6     5   ar
    10     4     5   ar
    11     4    11    1
    12    11    12    2
    13    12    13    1
    14    13    14    1
    15    13    15    2
    16    14    16    1
    17    16    17    1
