@<TRIPOS>MOLECULE
2nn8_LBT_A_1.pdb
 23 24 0 0 0
SMALL
GASTEIGER

@<TRIPOS>ATOM
      1  C1        20.2520   37.6300   32.8210 C.3   501  LBT501      0.2695
      2  C2        18.7740   38.0010   32.7830 C.3   501  LBT501      0.2406
      3  C3        17.9010   36.7820   33.0530 C.3   501  LBT501      0.2198
      4  C4        18.2970   35.6230   32.1550 C.3   501  LBT501      0.2144
      5  C5        19.7890   35.3500   32.3000 C.3   501  LBT501      0.1835
      6  C6        20.2490   34.2170   31.3990 C.3   501  LBT501      0.2142
      7  O1        21.0060   38.7560   32.3800 O.3   501  LBT501     -0.3257
      8  O2        18.5190   38.9840   33.7920 O.3   501  LBT501     -0.2149
      9  O3        16.5300   37.1130   32.8200 O.3   501  LBT501     -0.2174
     10  O4        17.9690   35.9540   30.7930 O.3   501  LBT501     -0.2176
     11  O5        20.5220   36.5290   31.9490 O.3   501  LBT501     -0.3256
     12  O6        21.6570   34.0580   31.5740 O.3   501  LBT501     -0.2176
     13  C1'       25.0600   39.8950   32.7080 C.3   501  LBT501      0.3023
     14  C2'       24.6360   39.0970   31.4720 C.3   501  LBT501      0.2433
     15  C3'       23.1200   39.1070   31.3010 C.3   501  LBT501      0.2168
     16  C4'       22.4180   38.6520   32.5770 C.3   501  LBT501      0.1804
     17  C5'       22.8980   39.5070   33.7630 C.3   501  LBT501      0.1804
     18  C6'       22.3130   39.0650   35.1050 C.3   501  LBT501      0.2141
     19  O1'       24.8400   41.2960   32.4940 O.3   501  LBT501     -0.1869
     20  O2'       25.2510   39.6350   30.2970 O.3   501  LBT501     -0.2148
     21  O3'       22.7690   38.2560   30.2060 O.3   501  LBT501     -0.2175
     22  O5'       24.3300   39.4410   33.8570 O.3   501  LBT501     -0.3237
     23  O6'       22.5920   37.6770   35.3410 O.3   501  LBT501     -0.2176
@<TRIPOS>BOND
     1    21    15    1
     2    20    14    1
     3    10     4    1
     4    15    14    1
     5    15    16    1
     6     6    12    1
     7     6     5    1
     8    14    13    1
     9    11     5    1
    10    11     1    1
    11     4     5    1
    12     4     3    1
    13     7    16    1
    14     7     1    1
    15    19    13    1
    16    16    17    1
    17    13    22    1
    18     2     1    1
    19     2     3    1
    20     2     8    1
    21     9     3    1
    22    17    22    1
    23    17    18    1
    24    18    23    1
