@<TRIPOS>MOLECULE
2nnb_HEM_A_1.pdb
 43 50 0 0 0
SMALL
GASTEIGER

@<TRIPOS>ATOM
      1 FE         25.7960   -1.5110   14.3440 Fe    472  HEM472      0.0000
      2  CHA       28.0600   -3.5220   12.8040 C.2   472  HEM472      0.0000
      3  CHB       23.2820   -3.4780   13.1750 C.2   472  HEM472      0.0000
      4  CHC       23.4500    0.5030   15.9360 C.2   472  HEM472      0.0000
      5  CHD       28.2440    0.6760   15.1370 C.2   472  HEM472      0.0000
      6  NA        25.6710   -3.1540   13.1200 N.ar  472  HEM472      0.0000
      7  C1A       26.7330   -3.8610   12.6110 C.ar  472  HEM472      0.0000
      8  C2A       26.2370   -5.0470   11.9530 C.ar  472  HEM472      0.0000
      9  C3A       24.8980   -5.0370   12.0970 C.ar  472  HEM472      0.0000
     10  C4A       24.5410   -3.8520   12.8110 C.ar  472  HEM472      0.0000
     11  CMA       23.8870   -6.0510   11.5100 C.3   472  HEM472      0.0000
     12  CAA       27.0690   -6.1490   11.2600 C.3   472  HEM472      0.0000
     13  CBA       27.3860   -5.6480    9.8180 C.3   472  HEM472      0.0000
     14  CGA       27.9930   -6.7300    8.9030 C.2   472  HEM472      0.0000
     15  O1A       28.0440   -7.9280    9.2620 O.co2 472  HEM472      0.0000
     16  O2A       28.4470   -6.4020    7.7290 O.co2 472  HEM472      0.0000
     17  NB        23.8400   -1.4440   14.4600 N.2   472  HEM472      0.0000
     18  C1B       22.9780   -2.4350   14.0370 C.2   472  HEM472      0.0000
     19  C2B       21.6330   -2.1130   14.4640 C.2   472  HEM472      0.0000
     20  C3B       21.6860   -1.0200   15.2080 C.2   472  HEM472      0.0000
     21  C4B       23.0490   -0.5990   15.2530 C.2   472  HEM472      0.0000
     22  CMB       20.3790   -2.9520   14.0940 C.3   472  HEM472      0.0000
     23  CAB       20.5760   -0.2520   15.9450 C.2   472  HEM472      0.0000
     24  CBB       19.4800   -0.8900   16.4380 C.2   472  HEM472      0.0000
     25  NC        25.8510    0.2470   15.2920 N.ar  472  HEM472      0.0000
     26  C1C       24.8050    0.8910   15.9430 C.ar  472  HEM472      0.0000
     27  C2C       25.3160    1.9670   16.7130 C.ar  472  HEM472      0.0000
     28  C3C       26.6190    2.0320   16.4630 C.ar  472  HEM472      0.0000
     29  C4C       26.9710    0.9520   15.5810 C.ar  472  HEM472      0.0000
     30  CMC       24.4450    2.9460   17.5730 C.3   472  HEM472      0.0000
     31  CAC       27.6570    3.0170   16.9650 C.2   472  HEM472      0.0000
     32  CBC       27.5280    3.7440   18.0800 C.2   472  HEM472      0.0000
     33  ND        27.8490   -1.4060   14.0150 N.2   472  HEM472      0.0000
     34  C1D       28.6690   -0.4390   14.4690 C.2   472  HEM472      0.0000
     35  C2D       30.0130   -0.7550   14.0920 C.2   472  HEM472      0.0000
     36  C3D       29.9530   -2.0410   13.4270 C.2   472  HEM472      0.0000
     37  C4D       28.5740   -2.3920   13.4180 C.2   472  HEM472      0.0000
     38  CMD       31.2560    0.1110   14.3750 C.3   472  HEM472      0.0000
     39  CAD       31.1710   -2.8030   12.8800 C.3   472  HEM472      0.0000
     40  CBD       31.6460   -3.7060   14.0810 C.3   472  HEM472      0.0000
     41  CGD       32.8350   -4.5610   13.6790 C.2   472  HEM472      0.0000
     42  O1D       33.8960   -4.4900   14.3760 O.co2 472  HEM472      0.0000
     43  O2D       32.7130   -5.2580   12.6350 O.co2 472  HEM472      0.0000
@<TRIPOS>BOND
     1    16    14   ar
     2    14    15   ar
     3    14    13    1
     4    13    12    1
     5    12     8    1
     6    11     9    1
     7     8     9   ar
     8     8     7   ar
     9     9    10   ar
    10     7     2    2
    11     7     6   ar
    12    43    41   ar
    13     2    37    1
    14    10     6   ar
    15    10     3    2
    16    39    36    1
    17    39    40    1
    18     6     1    1
    19     3    18    1
    20    37    36    1
    21    37    33    2
    22    36    35    2
    23    41    40    1
    24    41    42   ar
    25    33     1    1
    26    33    34    1
    27    18    17    2
    28    18    19    1
    29    35    38    1
    30    35    34    1
    31    22    19    1
    32     1    17    1
    33     1    25    1
    34    17    21    1
    35    19    20    2
    36    34     5    2
    37     5    29    1
    38    20    21    1
    39    20    23    1
    40    21     4    2
    41    25    29   ar
    42    25    26   ar
    43    29    28   ar
    44     4    26    1
    45    26    27   ar
    46    23    24    2
    47    28    27   ar
    48    28    31    1
    49    27    30    1
    50    31    32    2
