@<TRIPOS>MOLECULE
2nnd_PRZ_A_1.pdb
 12 12 0 0 0
SMALL
GASTEIGER

@<TRIPOS>ATOM
      1  N1        50.2220   22.7330   42.6440 N.ar  300  PRZ300     -0.2418
      2  C2        50.2270   23.4220   41.4790 C.ar  300  PRZ300      0.1119
      3  C3        51.3990   23.4670   40.7230 C.ar  300  PRZ300      0.2389
      4  N4        52.4990   22.8350   41.1810 N.ar  300  PRZ300     -0.2075
      5  C5        52.4750   22.1470   42.3280 C.ar  300  PRZ300      0.1227
      6  C6        51.3130   22.1010   43.0850 C.ar  300  PRZ300      0.1193
      7  C21       48.9370   24.0740   41.0140 C.3   300  PRZ300      0.0506
      8  C22       48.8530   25.5790   41.1280 C.3   300  PRZ300      0.0061
      9  C23       48.6560   26.0310   42.5680 C.3   300  PRZ300      0.0004
     10  C24       47.6780   26.0350   40.2720 C.3   300  PRZ300      0.0004
     11  O31       51.4490   24.1800   39.5540 O.3   300  PRZ300     -0.4553
     12  C31       52.6300   24.2120   38.7450 C.3   300  PRZ300      0.2543
@<TRIPOS>BOND
     1    12    11    1
     2    11     3    1
     3    10     8    1
     4     3     4   ar
     5     3     2   ar
     6     7     8    1
     7     7     2    1
     8     8     9    1
     9     4     5   ar
    10     2     1   ar
    11     5     6   ar
    12     1     6   ar
