@<TRIPOS>MOLECULE
2nng_ZYX_A_1.pdb
 13 13 0 0 0
SMALL
GASTEIGER

@<TRIPOS>ATOM
      1  C1        -5.2110    2.2850   15.7470 C.ar  301  ZYX301      0.1250
      2  C2        -3.8580    2.2760   15.4320 C.ar  301  ZYX301      0.0197
      3  C3        -3.3380    3.3490   14.7060 C.ar  301  ZYX301     -0.0028
      4  C4        -4.1320    4.4050   14.2860 C.ar  301  ZYX301     -0.0206
      5  C5        -5.4890    4.3670   14.5920 C.ar  301  ZYX301     -0.0028
      6  C6        -6.0230    3.3260   15.3110 C.ar  301  ZYX301      0.0197
      7  S         -5.8950    0.9400   16.7130 S.O2  301  ZYX301      0.0935
      8  O1        -7.3120    1.0580   16.5550 O.2   301  ZYX301     -0.1503
      9  O2        -5.3200    1.1250   18.0250 O.2   301  ZYX301     -0.1503
     10  N1        -5.3770   -0.4270   16.0610 N.3   301  ZYX301      0.0392
     11  C7        -3.6430    5.5140   13.3710 C.3   301  ZYX301      0.0468
     12  C8        -2.5690    6.4240   13.8810 C.3   301  ZYX301      0.1140
     13  N2        -2.1560    7.1920   12.6700 N.3   301  ZYX301     -0.1310
@<TRIPOS>BOND
     1    13    12    1
     2    11    12    1
     3    11     4    1
     4     4     5   ar
     5     4     3   ar
     6     5     6   ar
     7     3     2   ar
     8     6     1   ar
     9     2     1   ar
    10     1     7    1
    11    10     7    1
    12     8     7    2
    13     7     9    2
