@<TRIPOS>MOLECULE
2nnh_HEM_A_1.pdb
 43 50 0 0 0
SMALL
GASTEIGER

@<TRIPOS>ATOM
      1 FE         24.3920   55.3110   31.8010 Fe    500  HEM500      0.0000
      2  CHA       23.3870   57.9060   33.6690 C.2   500  HEM500      0.0000
      3  CHB       25.6870   57.4310   29.5680 C.2   500  HEM500      0.0000
      4  CHC       25.0820   52.7480   29.8430 C.2   500  HEM500      0.0000
      5  CHD       23.2420   53.2590   34.1510 C.2   500  HEM500      0.0000
      6  NA        24.6590   57.3460   31.6870 N.ar  500  HEM500      0.0000
      7  C1A       24.0880   58.2600   32.5200 C.ar  500  HEM500      0.0000
      8  C2A       24.1970   59.5570   31.9840 C.ar  500  HEM500      0.0000
      9  C3A       24.8530   59.4190   30.7880 C.ar  500  HEM500      0.0000
     10  C4A       25.1150   58.0330   30.6560 C.ar  500  HEM500      0.0000
     11  CMA       25.2460   60.5540   29.7600 C.3   500  HEM500      0.0000
     12  CAA       23.6670   60.8180   32.6650 C.3   500  HEM500      0.0000
     13  CBA       24.6330   61.4970   33.5820 C.3   500  HEM500      0.0000
     14  CGA       24.0710   62.7320   34.2420 C.2   500  HEM500      0.0000
     15  O1A       24.7310   63.7680   34.2480 O.co2 500  HEM500      0.0000
     16  O2A       22.9660   62.7120   34.7710 O.co2 500  HEM500      0.0000
     17  NB        25.2290   55.1260   29.9240 N.2   500  HEM500      0.0000
     18  C1B       25.7190   56.1040   29.1680 C.2   500  HEM500      0.0000
     19  C2B       26.2510   55.6080   27.9670 C.2   500  HEM500      0.0000
     20  C3B       26.0480   54.2080   28.0340 C.2   500  HEM500      0.0000
     21  C4B       25.4050   53.9910   29.2850 C.2   500  HEM500      0.0000
     22  CMB       26.8800   56.4630   26.8940 C.3   500  HEM500      0.0000
     23  CAB       26.3830   53.1910   27.0970 C.3   500  HEM500      0.0000
     24  CBB       27.5430   53.0730   26.1860 C.3   500  HEM500      0.0000
     25  NC        24.2070   53.2710   31.9850 N.ar  500  HEM500      0.0000
     26  C1C       24.7090   52.3880   31.1380 C.ar  500  HEM500      0.0000
     27  C2C       24.5130   51.0930   31.5800 C.ar  500  HEM500      0.0000
     28  C3C       23.8230   51.2050   32.8130 C.ar  500  HEM500      0.0000
     29  C4C       23.6670   52.5970   33.0070 C.ar  500  HEM500      0.0000
     30  CMC       24.9700   49.7980   30.8440 C.3   500  HEM500      0.0000
     31  CAC       23.3420   50.2820   33.7260 C.3   500  HEM500      0.0000
     32  CBC       23.8700   49.0480   34.1790 C.3   500  HEM500      0.0000
     33  ND        23.4100   55.5300   33.5940 N.2   500  HEM500      0.0000
     34  C1D       22.9280   54.5640   34.3190 C.2   500  HEM500      0.0000
     35  C2D       22.2120   55.0880   35.4090 C.2   500  HEM500      0.0000
     36  C3D       22.2830   56.4470   35.3140 C.2   500  HEM500      0.0000
     37  C4D       23.0490   56.6720   34.1530 C.2   500  HEM500      0.0000
     38  CMD       21.4810   54.2970   36.5110 C.3   500  HEM500      0.0000
     39  CAD       21.6700   57.5340   36.2600 C.3   500  HEM500      0.0000
     40  CBD       22.6660   57.9310   37.4050 C.3   500  HEM500      0.0000
     41  CGD       22.2360   59.0150   38.4270 C.2   500  HEM500      0.0000
     42  O1D       21.4950   59.9340   38.0980 O.co2 500  HEM500      0.0000
     43  O2D       22.6650   58.9560   39.5960 O.co2 500  HEM500      0.0000
@<TRIPOS>BOND
     1    24    23    1
     2    22    19    1
     3    23    20    1
     4    19    20    2
     5    19    18    1
     6    20    21    1
     7    18     3    1
     8    18    17    2
     9    21     4    2
    10    21    17    1
    11     3    10    2
    12    11     9    1
    13     4    26    1
    14    17     1    1
    15    10     9   ar
    16    10     6   ar
    17     9     8   ar
    18    30    27    1
    19    26    27   ar
    20    26    25   ar
    21    27    28   ar
    22     6     1    1
    23     6     7   ar
    24     1    25    1
    25     1    33    1
    26     8     7   ar
    27     8    12    1
    28    25    29   ar
    29     7     2    2
    30    12    13    1
    31    28    29   ar
    32    28    31    1
    33    29     5    1
    34    13    14    1
    35    33    37    2
    36    33    34    1
    37     2    37    1
    38    31    32    1
    39     5    34    2
    40    37    36    1
    41    14    15   ar
    42    14    16   ar
    43    34    35    1
    44    36    35    2
    45    36    39    1
    46    35    38    1
    47    39    40    1
    48    40    41    1
    49    42    41   ar
    50    41    43   ar
