@<TRIPOS>MOLECULE
2nnh_REA_A_1.pdb
 22 22 0 0 0
SMALL
GASTEIGER

@<TRIPOS>ATOM
      1  C1        18.5520   58.2950   28.7980 C.3   501  REA501      0.0149
      2  C2        20.0660   58.3350   28.2260 C.3   501  REA501      0.0041
      3  C3        21.2200   57.7410   29.1560 C.3   501  REA501      0.0046
      4  C4        21.1020   58.1940   30.6440 C.3   501  REA501      0.0214
      5  C5        19.6730   58.1430   31.2910 C.2   501  REA501     -0.0515
      6  C6        18.4160   58.1880   30.4730 C.2   501  REA501     -0.0483
      7  C7        17.0550   58.1530   30.9920 C.3   501  REA501      0.0467
      8  C8        16.3070   58.9730   31.7890 C.2   501  REA501     -0.0299
      9  C9        15.1870   58.7320   32.6340 C.2   501  REA501     -0.0435
     10  C10       14.6580   59.7860   33.4310 C.3   501  REA501      0.0477
     11  C11       15.1740   61.0870   33.4530 C.2   501  REA501     -0.0221
     12  C12       14.6200   62.0680   34.2230 C.2   501  REA501     -0.0083
     13  C13       15.0600   63.4070   34.3050 C.2   501  REA501     -0.0156
     14  C14       14.2940   64.1950   35.1510 C.2   501  REA501      0.0819
     15  C15       14.4350   65.6940   35.4850 C.2   501  REA501      0.3876
     16  C16       17.9030   56.9400   28.1910 C.3   501  REA501      0.0040
     17  C17       17.7870   59.4240   28.1250 C.3   501  REA501      0.0040
     18  C18       19.7510   58.0530   32.8060 C.3   501  REA501      0.0257
     19  C19       14.4700   57.3750   32.7550 C.3   501  REA501      0.0264
     20  C20       16.2870   63.9920   33.5060 C.3   501  REA501      0.0312
     21  O1        13.5160   66.4520   35.1630 O.co2 501  REA501     -0.2406
     22  O2        15.4730   66.1280   36.0470 O.co2 501  REA501     -0.2406
@<TRIPOS>BOND
     1    17     1    1
     2    16     1    1
     3     2     1    1
     4     2     3    1
     5     1     6    1
     6     3     4    1
     7     6     7    1
     8     6     5    2
     9     4     5    1
    10     7     8    1
    11     5    18    1
    12     8     9    2
    13     9    19    1
    14     9    10    1
    15    10    11    1
    16    11    12    2
    17    20    13    1
    18    12    13    1
    19    13    14    2
    20    14    15    1
    21    21    15   ar
    22    15    22   ar
