@<TRIPOS>MOLECULE
2nni_HEM_A_1.pdb
 43 50 0 0 0
SMALL
GASTEIGER

@<TRIPOS>ATOM
      1  CHA       52.5500   21.5390  -26.5520 C.2   500  HEM500      0.0000
      2  CHB       48.4850   23.8370  -27.0680 C.2   500  HEM500      0.0000
      3  CHC       48.4560   22.7680  -31.6210 C.2   500  HEM500      0.0000
      4  CHD       52.6810   20.8190  -31.1920 C.2   500  HEM500      0.0000
      5  C1A       51.2980   22.0420  -26.1790 C.2   500  HEM500      0.0000
      6  C2A       50.8770   22.3870  -24.8830 C.2   500  HEM500      0.0000
      7  C3A       49.6650   23.0540  -25.0490 C.2   500  HEM500      0.0000
      8  C4A       49.4280   23.0760  -26.4290 C.2   500  HEM500      0.0000
      9  CMA       48.7200   23.6750  -23.9450 C.3   500  HEM500      0.0000
     10  CAA       51.6430   22.0660  -23.5970 C.3   500  HEM500      0.0000
     11  CBA       52.6200   23.1170  -23.1750 C.3   500  HEM500      0.0000
     12  CGA       53.3430   22.7830  -21.9010 C.2   500  HEM500      0.0000
     13  O1A       52.9540   23.2700  -20.8470 O.co2 500  HEM500      0.0000
     14  O2A       54.2990   22.0330  -21.8990 O.co2 500  HEM500      0.0000
     15  C1B       47.9320   23.6690  -28.3240 C.ar  500  HEM500      0.0000
     16  C2B       46.7700   24.2930  -28.8400 C.ar  500  HEM500      0.0000
     17  C3B       46.7680   23.9600  -30.2150 C.ar  500  HEM500      0.0000
     18  C4B       47.9340   23.1650  -30.3950 C.ar  500  HEM500      0.0000
     19  CMB       45.7980   25.1210  -28.0320 C.3   500  HEM500      0.0000
     20  CAB       45.8490   24.3070  -31.2470 C.3   500  HEM500      0.0000
     21  CBB       44.3790   24.4780  -31.2290 C.3   500  HEM500      0.0000
     22  C1C       49.7430   22.4670  -32.0120 C.2   500  HEM500      0.0000
     23  C2C       50.1300   22.2180  -33.3210 C.2   500  HEM500      0.0000
     24  C3C       51.3780   21.5830  -33.2430 C.2   500  HEM500      0.0000
     25  C4C       51.6500   21.5010  -31.8430 C.2   500  HEM500      0.0000
     26  CMC       49.3250   22.5770  -34.6180 C.3   500  HEM500      0.0000
     27  CAC       52.2210   21.1120  -34.2110 C.3   500  HEM500      0.0000
     28  CBC       53.4660   21.6220  -34.6460 C.3   500  HEM500      0.0000
     29  C1D       53.0180   20.7770  -29.8820 C.ar  500  HEM500      0.0000
     30  C2D       54.1220   20.0740  -29.3530 C.ar  500  HEM500      0.0000
     31  C3D       54.0820   20.2210  -27.9930 C.ar  500  HEM500      0.0000
     32  C4D       52.9360   21.0220  -27.7670 C.ar  500  HEM500      0.0000
     33  CMD       55.1880   19.2770  -30.1390 C.3   500  HEM500      0.0000
     34  CAD       55.0710   19.6400  -26.9190 C.3   500  HEM500      0.0000
     35  CBD       56.2610   20.6110  -26.6110 C.3   500  HEM500      0.0000
     36  CGD       57.3050   20.1660  -25.5600 C.2   500  HEM500      0.0000
     37  O1D       56.9910   19.3950  -24.6780 O.co2 500  HEM500      0.0000
     38  O2D       58.4720   20.6070  -25.6210 O.co2 500  HEM500      0.0000
     39  NA        50.3870   22.4780  -27.0920 N.2   500  HEM500      0.0000
     40  NB        48.5890   23.0160  -29.2690 N.ar  500  HEM500      0.0000
     41  NC        50.6400   22.0450  -31.1510 N.2   500  HEM500      0.0000
     42  ND        52.3360   21.3260  -28.9220 N.ar  500  HEM500      0.0000
     43 FE         50.4910   22.2240  -29.1160 Fe    500  HEM500      0.0000
@<TRIPOS>BOND
     1    28    27    1
     2    26    23    1
     3    27    24    1
     4    23    24    2
     5    23    22    1
     6    24    25    1
     7    22     3    2
     8    22    41    1
     9    25     4    1
    10    25    41    2
    11     3    18    1
    12    20    21    1
    13    20    17    1
    14     4    29    2
    15    41    43    1
    16    18    17   ar
    17    18    40   ar
    18    17    16   ar
    19    33    30    1
    20    29    30   ar
    21    29    42   ar
    22    30    31   ar
    23    40    43    1
    24    40    15   ar
    25    43    42    1
    26    43    39    1
    27    42    32   ar
    28    16    15   ar
    29    16    19    1
    30    15     2    1
    31    31    32   ar
    32    31    34    1
    33    32     1    2
    34    39     8    1
    35    39     5    2
    36     2     8    2
    37    34    35    1
    38    35    36    1
    39     1     5    1
    40     8     7    1
    41     5     6    1
    42    38    36   ar
    43    36    37   ar
    44     7     6    2
    45     7     9    1
    46     6    10    1
    47    10    11    1
    48    11    12    1
    49    12    14   ar
    50    12    13   ar
