@<TRIPOS>MOLECULE
2nni_MTK_A_1.pdb
 41 45 0 0 0
SMALL
GASTEIGER

@<TRIPOS>ATOM
      1  CAQ       52.8340    8.6830  -29.2800 C.3   501  MTK501      0.0850
      2  CAS       52.8520    7.8490  -30.4320 C.2   501  MTK501     -0.0161
      3  CBK       51.6270    7.4220  -31.0230 C.ar  501  MTK501      0.0258
      4  CAR       51.6040    6.5890  -32.1750 C.ar  501  MTK501      0.0031
      5  CAO       50.3480    6.1830  -32.7310 C.ar  501  MTK501      0.0116
      6  CBE       49.1250    6.6040  -32.1400 C.ar  501  MTK501      0.0602
      7 CLAF       47.6200    6.1200  -32.8120 Cl    501  MTK501     -0.0822
      8  CAU       49.1430    7.4370  -30.9900 C.ar  501  MTK501      0.0434
      9  CBL       50.3880    7.8520  -30.4260 C.ar  501  MTK501      0.1315
     10  NBB       50.4130    8.6550  -29.3220 N.2   501  MTK501     -0.4059
     11  CBG       51.5720    9.0820  -28.7350 C.2   501  MTK501      0.1134
     12  CAH       51.4500    9.9040  -27.6120 C.2   501  MTK501      0.0279
     13  CAG       52.5470   10.3990  -26.8910 C.2   501  MTK501      0.0023
     14  CBF       52.4630   11.2490  -25.7820 C.ar  501  MTK501     -0.0002
     15  CAT       51.2330   11.7350  -25.2730 C.ar  501  MTK501     -0.0034
     16  CAL       53.6720   11.6370  -25.1530 C.ar  501  MTK501     -0.0000
     17  CAK       53.6560   12.4920  -24.0260 C.ar  501  MTK501     -0.0003
     18  CAN       52.4300   12.9800  -23.5190 C.ar  501  MTK501     -0.0034
     19  CBI       51.2230   12.6080  -24.1490 C.ar  501  MTK501     -0.0125
     20  CBM       49.9400   13.2760  -23.6730 C.3   501  MTK501      0.0701
     21  SBC       48.6890   12.0520  -23.2360 S.3   501  MTK501     -0.1366
     22  CAZ       49.0920   12.0940  -21.4620 C.3   501  MTK501      0.0583
     23  CBO       48.2540   11.1750  -20.5800 C.3   501  MTK501      0.0208
     24  CAX       46.7430   11.3500  -20.8360 C.3   501  MTK501      0.0014
     25  CAY       47.4510    9.9730  -20.9600 C.3   501  MTK501      0.0014
     26  CBA       48.6880   11.2680  -19.1150 C.3   501  MTK501      0.1149
     27  CBD       50.1100   10.7250  -18.9380 C.2   501  MTK501      0.3649
     28  OAC       50.9590   11.3950  -18.3260 O.co2 501  MTK501     -0.2457
     29  OAD       50.4130    9.6240  -19.4180 O.co2 501  MTK501     -0.2457
     30  CAW       49.4540   14.1620  -24.7960 C.3   501  MTK501      0.0199
     31  CAV       48.7760   15.4280  -24.3210 C.3   501  MTK501      0.0273
     32  CBH       49.0360   16.5040  -25.3860 C.ar  501  MTK501     -0.0238
     33  CAM       50.2150   17.2520  -25.1380 C.ar  501  MTK501     -0.0045
     34  CAI       50.6300   18.2800  -25.9900 C.ar  501  MTK501     -0.0003
     35  CAJ       49.8630   18.5930  -27.1270 C.ar  501  MTK501     -0.0003
     36  CAP       48.6800   17.8670  -27.4090 C.ar  501  MTK501     -0.0022
     37  CBJ       48.2240   16.8100  -26.5680 C.ar  501  MTK501      0.0011
     38  CBN       46.8680   16.0680  -27.0020 C.3   501  MTK501      0.1452
     39  CAA       47.0420   14.5640  -27.2970 C.3   501  MTK501      0.0375
     40  CAB       45.8100   16.2490  -25.9120 C.3   501  MTK501      0.0375
     41  OAE       46.3540   16.6480  -28.2090 O.3   501  MTK501     -0.2212
@<TRIPOS>BOND
     1     7     6    1
     2     5     4   ar
     3     5     6   ar
     4     4     3   ar
     5     6     8   ar
     6     3     2    2
     7     3     9   ar
     8     8     9   ar
     9     2     1    1
    10     9    10    2
    11    10    11    2
    12     1    11    1
    13    11    12    1
    14    41    38    1
    15    12    13    2
    16    36    35   ar
    17    36    37   ar
    18    39    38    1
    19    35    34   ar
    20    38    37    1
    21    38    40    1
    22    13    14    1
    23    37    32   ar
    24    34    33   ar
    25    14    15   ar
    26    14    16   ar
    27    32    33   ar
    28    32    31    1
    29    15    19   ar
    30    16    17   ar
    31    30    31    1
    32    30    20    1
    33    19    20    1
    34    19    18   ar
    35    17    18   ar
    36    20    21    1
    37    21    22    1
    38    22    23    1
    39    25    24    1
    40    25    23    1
    41    24    23    1
    42    23    26    1
    43    29    27   ar
    44    26    27    1
    45    27    28   ar
