@<TRIPOS>MOLECULE
2nnj_HEM_A_1.pdb
 43 50 0 0 0
SMALL
GASTEIGER

@<TRIPOS>ATOM
      1  CHA       52.7650   21.1500  -26.1920 C.2   500  HEM500      0.0000
      2  CHB       48.6480   23.4620  -26.6280 C.2   500  HEM500      0.0000
      3  CHC       48.6960   22.5150  -31.2500 C.2   500  HEM500      0.0000
      4  CHD       52.9850   20.6210  -30.8760 C.2   500  HEM500      0.0000
      5  C1A       51.6190   21.8640  -25.8270 C.2   500  HEM500      0.0000
      6  C2A       51.2040   22.1660  -24.5390 C.2   500  HEM500      0.0000
      7  C3A       50.0210   22.8810  -24.6810 C.2   500  HEM500      0.0000
      8  C4A       49.7900   22.9730  -26.0490 C.2   500  HEM500      0.0000
      9  CMA       49.0970   23.4850  -23.5540 C.3   500  HEM500      0.0000
     10  CAA       51.9560   21.7650  -23.2590 C.3   500  HEM500      0.0000
     11  CBA       52.9620   22.7750  -22.8160 C.3   500  HEM500      0.0000
     12  CGA       53.6840   22.4180  -21.5500 C.2   500  HEM500      0.0000
     13  O1A       53.4680   23.0760  -20.5480 O.co2 500  HEM500      0.0000
     14  O2A       54.4740   21.5020  -21.5040 O.co2 500  HEM500      0.0000
     15  C1B       48.2400   23.4930  -27.9540 C.ar  500  HEM500      0.0000
     16  C2B       47.0060   23.9910  -28.4410 C.ar  500  HEM500      0.0000
     17  C3B       46.9680   23.5870  -29.7890 C.ar  500  HEM500      0.0000
     18  C4B       48.1840   22.8800  -30.0040 C.ar  500  HEM500      0.0000
     19  CMB       46.0040   24.7850  -27.6250 C.3   500  HEM500      0.0000
     20  CAB       45.9670   23.8160  -30.7630 C.3   500  HEM500      0.0000
     21  CBB       45.1640   25.0240  -31.0090 C.3   500  HEM500      0.0000
     22  C1C       49.9830   22.2050  -31.6550 C.2   500  HEM500      0.0000
     23  C2C       50.3480   21.9090  -32.9670 C.2   500  HEM500      0.0000
     24  C3C       51.5540   21.1880  -32.8920 C.2   500  HEM500      0.0000
     25  C4C       51.8380   21.1040  -31.4990 C.2   500  HEM500      0.0000
     26  CMC       49.5660   22.2990  -34.2730 C.3   500  HEM500      0.0000
     27  CAC       52.3520   20.6400  -33.8760 C.3   500  HEM500      0.0000
     28  CBC       53.6040   21.0620  -34.3900 C.3   500  HEM500      0.0000
     29  C1D       53.3130   20.5810  -29.5590 C.ar  500  HEM500      0.0000
     30  C2D       54.3670   19.8270  -29.0290 C.ar  500  HEM500      0.0000
     31  C3D       54.3250   19.9720  -27.6750 C.ar  500  HEM500      0.0000
     32  C4D       53.2320   20.8120  -27.4420 C.ar  500  HEM500      0.0000
     33  CMD       55.3960   18.9890  -29.8100 C.3   500  HEM500      0.0000
     34  CAD       55.2720   19.3590  -26.6010 C.3   500  HEM500      0.0000
     35  CBD       56.4650   20.3270  -26.3230 C.3   500  HEM500      0.0000
     36  CGD       57.5300   19.9270  -25.2800 C.2   500  HEM500      0.0000
     37  O1D       57.3150   19.0400  -24.4820 O.co2 500  HEM500      0.0000
     38  O2D       58.6160   20.5370  -25.2610 O.co2 500  HEM500      0.0000
     39  NA        50.7360   22.3710  -26.7370 N.2   500  HEM500      0.0000
     40  NB        48.9070   22.8480  -28.9010 N.ar  500  HEM500      0.0000
     41  NC        50.8670   21.7300  -30.7920 N.2   500  HEM500      0.0000
     42  ND        52.6480   21.1620  -28.5890 N.ar  500  HEM500      0.0000
     43 FE         50.8360   22.1220  -28.7690 Fe    500  HEM500      0.0000
@<TRIPOS>BOND
     1    28    27    1
     2    26    23    1
     3    27    24    1
     4    23    24    2
     5    23    22    1
     6    24    25    1
     7    22     3    2
     8    22    41    1
     9    25     4    1
    10    25    41    2
    11     3    18    1
    12    21    20    1
    13     4    29    2
    14    41    43    1
    15    20    17    1
    16    18    17   ar
    17    18    40   ar
    18    33    30    1
    19    17    16   ar
    20    29    30   ar
    21    29    42   ar
    22    30    31   ar
    23    40    43    1
    24    40    15   ar
    25    43    42    1
    26    43    39    1
    27    42    32   ar
    28    16    15   ar
    29    16    19    1
    30    15     2    1
    31    31    32   ar
    32    31    34    1
    33    32     1    2
    34    39     8    1
    35    39     5    2
    36     2     8    2
    37    34    35    1
    38    35    36    1
    39     1     5    1
    40     8     7    1
    41     5     6    1
    42    36    38   ar
    43    36    37   ar
    44     7     6    2
    45     7     9    1
    46     6    10    1
    47    10    11    1
    48    11    12    1
    49    12    14   ar
    50    12    13   ar
