@<TRIPOS>MOLECULE
2nnj_225_A_1.pdb
 25 26 0 0 0
SMALL
GASTEIGER

@<TRIPOS>ATOM
      1  C15       45.6600   15.6390  -27.9550 C.3   501  225501      0.0513
      2  C14       46.1320   14.2850  -27.4180 C.3   501  225501      0.2086
      3  O2        47.1810   14.4720  -26.4500 O.3   501  225501     -0.4482
      4  C13       47.6950   13.3810  -25.8080 C.2   501  225501      0.3232
      5  O1        47.2490   12.2510  -26.0160 O.2   501  225501     -0.2497
      6  C2        48.8130   13.6000  -24.7710 C.3   501  225501      0.1517
      7  C1        49.8470   12.6860  -24.5130 C.2   501  225501      0.0969
      8  C12       50.3100   11.6020  -25.4950 C.3   501  225501      0.0620
      9  N1        50.5450   12.7760  -23.3620 N.2   501  225501     -0.4180
     10  C5        50.3630   13.6750  -22.3730 C.2   501  225501      0.0969
     11  C18       51.3950   13.6640  -21.2390 C.3   501  225501      0.0620
     12  C4        49.3370   14.6250  -22.4860 C.3   501  225501      0.1517
     13  C16       48.5910   15.2270  -21.2800 C.2   501  225501      0.3234
     14  O3        48.6270   14.6650  -20.1840 O.2   501  225501     -0.2497
     15  O4        47.8580   16.3650  -21.4570 O.3   501  225501     -0.4441
     16  C17       47.1710   16.9170  -20.3250 C.3   501  225501      0.2556
     17  C3        48.8170   14.8910  -23.9180 C.3   501  225501      0.0571
     18  C6        49.2860   16.1960  -24.6080 C.ar  501  225501     -0.0092
     19  C7        50.6260   16.2990  -25.0130 C.ar  501  225501     -0.0033
     20  C8        51.1280   17.4250  -25.6650 C.ar  501  225501      0.0006
     21  C9        50.2590   18.4870  -25.9190 C.ar  501  225501      0.0122
     22  C10       48.9220   18.4210  -25.5210 C.ar  501  225501      0.0679
     23 CL1        47.9780   19.8410  -25.8180 Cl    501  225501     -0.0814
     24  C11       48.4260   17.2800  -24.8710 C.ar  501  225501      0.0643
     25 CL2        46.7480   17.2510  -24.4330 Cl    501  225501     -0.0817
@<TRIPOS>BOND
     1     1     2    1
     2     2     3    1
     3     3     4    1
     4     5     4    2
     5    21    20   ar
     6    21    22   ar
     7    23    22    1
     8     4     6    1
     9    20    19   ar
    10    22    24   ar
    11     8     7    1
    12    19    18   ar
    13    24    18   ar
    14    24    25    1
    15     6     7    1
    16     6    17    1
    17    18    17    1
    18     7     9    2
    19    17    12    1
    20     9    10    2
    21    12    10    1
    22    12    13    1
    23    10    11    1
    24    15    13    1
    25    15    16    1
    26    13    14    2
