@<TRIPOS>MOLECULE
2nnk_ROC_A_1.pdb
 49 53 0 0 0
SMALL
GASTEIGER

@<TRIPOS>ATOM
      1  C         21.2350   26.5690   18.5810 C.2   401  ROC401      0.2910
      2  O         20.7520   27.7130   18.5390 O.2   401  ROC401     -0.2659
      3  N1        23.0660   25.0510   19.1090 N.2   401  ROC401     -0.4013
      4  C2        22.3650   26.1700   19.4590 C.2   401  ROC401      0.1679
      5  C3        22.7380   26.8830   20.5950 C.3   401  ROC401      0.0899
      6  C4        23.7990   26.4250   21.3900 C.2   401  ROC401     -0.0160
      7  C5        25.5870   24.8350   21.7410 C.ar  401  ROC401      0.0022
      8  C6        26.3160   23.7440   21.3650 C.ar  401  ROC401      0.0002
      9  C7        25.9150   23.0790   20.2240 C.ar  401  ROC401      0.0026
     10  C8        24.8420   23.5020   19.4800 C.ar  401  ROC401      0.0320
     11  C4A       24.5230   25.3050   20.9890 C.ar  401  ROC401      0.0257
     12  C8A       24.1230   24.6100   19.8580 C.ar  401  ROC401      0.1309
     13  N         20.7680   25.6410   17.7360 N.am  401  ROC401     -0.1916
     14  CA        19.6000   25.8650   16.8840 C.3   401  ROC401      0.1823
     15  C1        18.6340   24.6930   17.0990 C.2   401  ROC401      0.2618
     16  O1        18.8200   23.6130   16.5490 O.2   401  ROC401     -0.2715
     17  CB        20.0530   25.9160   15.4530 C.3   401  ROC401      0.1195
     18  CG        20.9810   27.0640   15.2760 C.2   401  ROC401      0.2630
     19  OD1       22.1990   26.9220   15.1310 O.2   401  ROC401     -0.2716
     20  ND2       20.4550   28.2320   15.2580 N.am  401  ROC401     -0.0877
     21  C9        15.2740   24.5680   17.8620 C.3   401  ROC401      0.1879
     22  O2        14.9060   25.6440   18.7270 O.3   401  ROC401     -0.2198
     23  CA1       16.6230   23.9700   18.2590 C.3   401  ROC401      0.1313
     24  N2        17.6060   24.9810   17.9200 N.am  401  ROC401     -0.2027
     25  CB1       16.6840   23.6100   19.7430 C.3   401  ROC401      0.0506
     26  CG1       18.1080   23.4300   20.2500 C.ar  401  ROC401     -0.0204
     27  CD1       18.8030   22.2210   20.2010 C.ar  401  ROC401     -0.0042
     28  CD2       18.7530   24.4880   20.8280 C.ar  401  ROC401     -0.0042
     29  CE1       20.1080   22.1350   20.6080 C.ar  401  ROC401     -0.0003
     30  CE2       20.0490   24.3880   21.2570 C.ar  401  ROC401     -0.0003
     31  CZ        20.7130   23.2070   21.2230 C.ar  401  ROC401     -0.0000
     32  N11       14.2430   22.7720   16.5400 N.3   401  ROC401     -0.2643
     33  CM        14.1900   23.5300   17.7680 C.3   401  ROC401      0.1075
     34  C21       13.6250   21.4220   16.6740 C.3   401  ROC401      0.1365
     35  CC        14.3350   20.5970   17.7830 C.2   401  ROC401      0.2558
     36  O3        15.5800   20.5990   17.8190 O.2   401  ROC401     -0.2719
     37  C31       13.8440   20.6440   15.3820 C.3   401  ROC401      0.0254
     38  C3A       13.2420   21.3920   14.1810 C.3   401  ROC401      0.0032
     39  C41       13.5470   20.7180   12.8440 C.3   401  ROC401      0.0001
     40  C51       14.9950   20.8020   12.4310 C.3   401  ROC401      0.0000
     41  C61       15.4650   22.2280   12.3140 C.3   401  ROC401      0.0000
     42  C71       15.2600   22.8590   13.6820 C.3   401  ROC401      0.0014
     43  C7A       13.8290   22.8080   14.1250 C.3   401  ROC401      0.0161
     44  C81       13.6130   23.5110   15.4540 C.3   401  ROC401      0.0725
     45  N3        13.5260   19.9540   18.6370 N.am  401  ROC401     -0.2077
     46  CD        13.9170   19.0820   19.7280 C.3   401  ROC401      0.0788
     47  C11       12.6610   18.4930   20.3080 C.3   401  ROC401      0.0217
     48  C22       14.6470   19.8590   20.7790 C.3   401  ROC401      0.0217
     49  C32       14.7350   17.9450   19.1770 C.3   401  ROC401      0.0217
@<TRIPOS>BOND
     1    41    40    1
     2    41    42    1
     3    40    39    1
     4    39    38    1
     5    42    43    1
     6    43    38    1
     7    43    44    1
     8    38    37    1
     9    19    18    2
    10    20    18   am
    11    18    17    1
    12    37    34    1
    13    17    14    1
    14    44    32    1
    15    32    34    1
    16    32    33    1
    17    16    15    2
    18    34    35    1
    19    14    15    1
    20    14    13    1
    21    15    24   am
    22    13     1   am
    23    33    21    1
    24    35    36    2
    25    35    45   am
    26    21    23    1
    27    21    22    1
    28    24    23    1
    29    23    25    1
    30     2     1    2
    31     1     4    1
    32    45    46    1
    33     3     4    2
    34     3    12    2
    35    49    46    1
    36     4     5    1
    37    10    12   ar
    38    10     9   ar
    39    46    47    1
    40    46    48    1
    41    25    26    1
    42    12    11   ar
    43    27    26   ar
    44    27    29   ar
    45     9     8   ar
    46    26    28   ar
    47     5     6    1
    48    29    31   ar
    49    28    30   ar
    50    11     6    2
    51    11     7   ar
    52    31    30   ar
    53     8     7   ar
