@<TRIPOS>MOLECULE
2nnl_NAP_D_1.pdb
 48 52 0 0 0
SMALL
GASTEIGER

@<TRIPOS>ATOM
      1  PA        77.2190   65.6970   28.5390 P.3   1330  NAP1330     0.2189
      2  O1A       75.7510   65.8220   28.4860 O.3   1330  NAP1330    -0.4371
      3  O2A       77.9510   66.8230   27.9290 O.2   1330  NAP1330    -0.5170
      4  O5B       77.6350   64.2810   27.9620 O.3   1330  NAP1330    -0.3112
      5  C5B       76.7470   63.2010   28.0540 C.3   1330  NAP1330     0.1813
      6  C4B       76.8220   62.4550   26.7400 C.3   1330  NAP1330     0.1820
      7  O4B       76.0190   61.3070   26.8490 O.3   1330  NAP1330    -0.3136
      8  C3B       76.2290   63.2790   25.6140 C.3   1330  NAP1330     0.2157
      9  O3B       77.2550   63.7910   24.8080 O.3   1330  NAP1330    -0.2175
     10  C2B       75.4400   62.3030   24.7840 C.3   1330  NAP1330     0.2314
     11  O2B       76.1300   62.1360   23.5650 O.3   1330  NAP1330    -0.2630
     12  C1B       75.4920   61.0050   25.5770 C.3   1330  NAP1330     0.3158
     13  N9A       74.1590   60.4060   25.7050 N.pl3 1330  NAP1330    -0.1439
     14  C8A       73.0250   60.9890   26.2120 C.3   1330  NAP1330     0.3377
     15  N7A       72.0260   60.0910   26.1530 N.2   1330  NAP1330    -0.2095
     16  C5A       72.5170   58.9650   25.6150 C.2   1330  NAP1330     0.2526
     17  C6A       71.9190   57.7630   25.3310 C.2   1330  NAP1330     0.4393
     18  N6A       70.6270   57.6260   25.6160 N.pl3 1330  NAP1330     0.2180
     19  N1A       72.6740   56.7490   24.7680 N.2   1330  NAP1330     0.0021
     20  C2A       74.0120   56.9370   24.4840 C.3   1330  NAP1330     0.5254
     21  N3A       74.5960   58.1480   24.7820 N.2   1330  NAP1330    -0.0055
     22  C4A       73.8580   59.1380   25.3300 C.2   1330  NAP1330     0.3518
     23  O3        77.5770   65.4910   30.0870 O.3   1330  NAP1330    -0.2703
     24  PN        78.9820   65.4790   30.8280 P.3   1330  NAP1330     0.2189
     25  O1N       79.0130   66.7150   31.6470 O.3   1330  NAP1330    -0.4371
     26  O2N       80.0370   65.1990   29.8420 O.2   1330  NAP1330    -0.5170
     27  O5D       78.8940   64.1840   31.7450 O.3   1330  NAP1330    -0.3112
     28  C5D       79.4480   62.9520   31.3590 C.3   1330  NAP1330     0.1813
     29  C4D       79.3840   61.9790   32.5340 C.3   1330  NAP1330     0.1799
     30  O4D       79.9190   62.5810   33.6990 O.3   1330  NAP1330    -0.3327
     31  C3D       77.9660   61.5390   32.8890 C.3   1330  NAP1330     0.2158
     32  O3D       77.9910   60.1420   33.1380 O.3   1330  NAP1330    -0.2175
     33  C2D       77.6450   62.2900   34.1580 C.3   1330  NAP1330     0.2309
     34  O2D       76.7710   61.5590   34.9770 O.3   1330  NAP1330    -0.2158
     35  C1D       79.0290   62.4250   34.7760 C.3   1330  NAP1330     0.2263
     36  N1N       79.2460   63.5670   35.6630 N.pl3 1330  NAP1330    -0.2787
     37  C2N       79.3420   64.8370   35.1620 C.3   1330  NAP1330     0.1244
     38  C3N       79.5860   65.8970   36.0280 C.2   1330  NAP1330     0.0544
     39  C7N       79.8110   67.2790   35.5110 C.2   1330  NAP1330     0.2818
     40  O7N       79.7910   68.3380   36.4270 O.2   1330  NAP1330    -0.2670
     41  N7N       80.0300   67.4600   34.2130 N.am  1330  NAP1330    -0.0839
     42  C4N       79.7470   65.6680   37.3880 C.2   1330  NAP1330     0.0033
     43  C5N       79.6680   64.3700   37.8770 C.2   1330  NAP1330     0.0157
     44  C6N       79.4270   63.3220   37.0030 C.2   1330  NAP1330     0.0633
     45  P2B       75.3750   62.1460   22.1270 P.3   1330  NAP1330     0.5328
     46  O1X       74.2460   63.1520   22.2320 O.3   1330  NAP1330    -0.1145
     47  O2X       76.3530   62.4670   21.0130 O.2   1330  NAP1330    -0.2224
     48  O3X       74.8970   60.7410   21.8310 O.3   1330  NAP1330    -0.1145
@<TRIPOS>BOND
     1    47    45    2
     2    48    45    1
     3    45    46    1
     4    45    11    1
     5    11    10    1
     6    20    19    1
     7    20    21    1
     8    19    17    2
     9    21    22    2
    10    10    12    1
    11    10     8    1
    12     9     8    1
    13    22    16    1
    14    22    13    1
    15    17    16    1
    16    17    18    1
    17    12    13    1
    18    12     7    1
    19     8     6    1
    20    16    15    2
    21    13    14    1
    22    15    14    1
    23     6     7    1
    24     6     5    1
    25     3     1    2
    26     4     5    1
    27     4     1    1
    28     2     1    1
    29     1    23    1
    30    26    24    2
    31    23    24    1
    32    24    25    1
    33    24    27    1
    34    28    27    1
    35    28    29    1
    36    29    31    1
    37    29    30    1
    38    31    32    1
    39    31    33    1
    40    30    35    1
    41    33    35    1
    42    33    34    1
    43    41    39   am
    44    35    36    1
    45    37    36    1
    46    37    38    1
    47    39    38    1
    48    39    40    2
    49    36    44    1
    50    38    42    2
    51    44    43    2
    52    42    43    1
