@<TRIPOS>MOLECULE
2nnl_ERD_D_1.pdb
 21 23 0 0 0
SMALL
GASTEIGER

@<TRIPOS>ATOM
      1  O13       76.8870   65.2040   38.0380 O.2   1331  ERD1331    -0.2910
      2  C9        76.8160   66.2990   38.5620 C.2   1331  ERD1331     0.1831
      3  C10       77.4060   66.5440   39.9190 C.3   1331  ERD1331     0.1174
      4  C11       76.3190   67.2880   40.6850 C.3   1331  ERD1331     0.1959
      5  C14       76.7400   67.5290   42.0820 C.ar  1331  ERD1331     0.0210
      6  C15       77.8580   68.2740   42.4630 C.ar  1331  ERD1331     0.0027
      7  C16       78.1270   68.4210   43.8330 C.ar  1331  ERD1331     0.0452
      8  C17       77.2810   67.8200   44.7790 C.ar  1331  ERD1331     0.2342
      9  O24       77.5190   67.9470   46.1050 O.3   1331  ERD1331    -0.2831
     10  C18       76.1790   67.0970   44.3750 C.ar  1331  ERD1331     0.2341
     11  O23       75.3320   66.4860   45.2580 O.3   1331  ERD1331    -0.2832
     12  C19       75.9210   66.9560   43.0280 C.ar  1331  ERD1331     0.0446
     13  O12       75.8850   68.4900   40.0240 O.3   1331  ERD1331    -0.4740
     14  C4        75.6720   68.5050   38.6680 C.ar  1331  ERD1331     0.1479
     15  C3        76.1270   67.4460   37.8900 C.ar  1331  ERD1331     0.1078
     16  C5        75.0270   69.5860   38.0750 C.ar  1331  ERD1331     0.0792
     17  C6        74.8400   69.5820   36.6940 C.ar  1331  ERD1331     0.2020
     18  O29       74.2150   70.6430   36.1240 O.3   1331  ERD1331    -0.2864
     19  C1        75.2930   68.5120   35.9110 C.ar  1331  ERD1331     0.0843
     20  C2        75.9480   67.4410   36.5220 C.ar  1331  ERD1331     0.2046
     21  O30       76.4030   66.3690   35.8110 O.3   1331  ERD1331    -0.2863
@<TRIPOS>BOND
     1    21    20    1
     2    19    20   ar
     3    19    17   ar
     4    18    17    1
     5    20    15   ar
     6    17    16   ar
     7    15     2    1
     8    15    14   ar
     9     1     2    2
    10    16    14   ar
    11     2     3    1
    12    14    13    1
    13     3     4    1
    14    13     4    1
    15     4     5    1
    16     5     6   ar
    17     5    12   ar
    18     6     7   ar
    19    12    10   ar
    20     7     8   ar
    21    10     8   ar
    22    10    11    1
    23     8     9    1
