@<TRIPOS>MOLECULE
2nno_M28_A_1.pdb
 15 15 0 0 0
SMALL
GASTEIGER

@<TRIPOS>ATOM
      1  C1        -5.2250    2.2620   15.7630 C.ar  301  M28301      0.1250
      2  C2        -6.0360    3.3290   15.3740 C.ar  301  M28301      0.0197
      3  C3        -5.5100    4.3470   14.6030 C.ar  301  M28301     -0.0029
      4  C4        -4.1730    4.3810   14.2540 C.ar  301  M28301     -0.0215
      5  C5        -3.3800    3.3140   14.6600 C.ar  301  M28301     -0.0029
      6  C6        -3.8870    2.2390   15.3770 C.ar  301  M28301      0.0197
      7  S         -5.9090    0.9430   16.7400 S.O2  301  M28301      0.0935
      8  O1        -7.3410    1.0560   16.6070 O.2   301  M28301     -0.1503
      9  O2        -5.3450    1.1320   18.0680 O.2   301  M28301     -0.1503
     10  N3        -5.4050   -0.4380   16.1190 N.3   301  M28301      0.0392
     11  C7        -3.6750    5.5010   13.4070 C.3   301  M28301      0.0382
     12  C8        -2.3920    6.1030   13.8980 C.3   301  M28301      0.1187
     13  C9        -1.7880    7.2010   13.0550 C.2   301  M28301      0.3652
     14  O4        -0.5620    7.2180   12.8070 O.co2 301  M28301     -0.2456
     15  O5        -2.5090    8.1280   12.6510 O.co2 301  M28301     -0.2456
@<TRIPOS>BOND
     1    15    13   ar
     2    14    13   ar
     3    13    12    1
     4    11    12    1
     5    11     4    1
     6     4     3   ar
     7     4     5   ar
     8     3     2   ar
     9     5     6   ar
    10     2     1   ar
    11     6     1   ar
    12     1     7    1
    13    10     7    1
    14     8     7    2
    15     7     9    2
