@<TRIPOS>MOLECULE
2nnp_ROC_A_1.pdb
 49 53 0 0 0
SMALL
GASTEIGER

@<TRIPOS>ATOM
      1  C         19.6520   35.8120   18.0950 C.2   401  ROC401      0.2949
      2  O         19.2130   35.3340   19.1760 O.2   401  ROC401     -0.2655
      3  N1        20.7250   37.6540   16.9300 N.2   401  ROC401     -0.4009
      4  C2        20.5790   36.9510   18.0970 C.2   401  ROC401      0.1854
      5  C3        21.2810   37.3230   19.2450 C.2   401  ROC401      0.0330
      6  C4        22.1180   38.4300   19.2200 C.2   401  ROC401     -0.0123
      7  C5        23.1350   40.2280   17.9540 C.2   401  ROC401     -0.0150
      8  C6        23.1890   40.9060   16.7690 C.2   401  ROC401     -0.0038
      9  C7        22.5000   40.5200   15.6420 C.2   401  ROC401      0.0020
     10  C8        21.6180   39.4490   15.7010 C.2   401  ROC401      0.0282
     11  C4A       22.3380   39.0670   17.9960 C.3   401  ROC401      0.0963
     12  C8A       21.6120   38.6860   16.8650 C.2   401  ROC401      0.1169
     13  N         19.2770   35.3430   16.8750 N.am  401  ROC401     -0.1913
     14  CA        18.4250   34.1510   16.7170 C.3   401  ROC401      0.1823
     15  C1        19.1610   33.2060   15.7870 C.2   401  ROC401      0.2618
     16  O1        19.1310   33.3780   14.5640 O.2   401  ROC401     -0.2715
     17  CB        17.0750   34.4030   16.1670 C.3   401  ROC401      0.1195
     18  CG        16.3920   35.3830   17.0430 C.2   401  ROC401      0.2630
     19  OD1       16.1310   36.5780   16.9070 O.2   401  ROC401     -0.2716
     20  ND2       15.9670   34.9310   18.1090 N.am  401  ROC401     -0.0877
     21  C9        20.0820   29.8420   15.9690 C.3   401  ROC401      0.1879
     22  O2        20.2620   29.4040   17.3020 O.3   401  ROC401     -0.2198
     23  CA1       20.5930   31.2410   15.6580 C.3   401  ROC401      0.1313
     24  N2        19.8350   32.1880   16.4250 N.am  401  ROC401     -0.2027
     25  CB1       22.1030   31.2830   15.9690 C.3   401  ROC401      0.0506
     26  CG1       22.6140   32.7060   16.0370 C.ar  401  ROC401     -0.0204
     27  CD1       23.0940   33.3330   14.8950 C.ar  401  ROC401     -0.0042
     28  CD2       22.6810   33.3020   17.2540 C.ar  401  ROC401     -0.0042
     29  CE1       23.5410   34.6510   14.9970 C.ar  401  ROC401     -0.0003
     30  CE2       23.0320   34.6400   17.3190 C.ar  401  ROC401     -0.0003
     31  CZ        23.4640   35.3070   16.1770 C.ar  401  ROC401     -0.0000
     32  N11       19.6790   28.8880   13.8150 N.3   401  ROC401     -0.2643
     33  CM        20.4330   28.7430   15.0020 C.3   401  ROC401      0.1075
     34  C21       20.4260   28.2850   12.6950 C.3   401  ROC401      0.1365
     35  CC        21.7720   28.9420   12.4620 C.2   401  ROC401      0.2558
     36  O3        21.8210   30.1690   12.4790 O.2   401  ROC401     -0.2719
     37  C31       19.6140   28.4870   11.4260 C.3   401  ROC401      0.0254
     38  C3A       18.2880   27.7230   11.5340 C.3   401  ROC401      0.0032
     39  C41       17.3780   27.9210   10.3320 C.3   401  ROC401      0.0001
     40  C51       17.0190   29.3830   10.1110 C.3   401  ROC401      0.0000
     41  C61       16.1590   29.7490   11.2960 C.3   401  ROC401      0.0000
     42  C71       17.0600   29.6330   12.5160 C.3   401  ROC401      0.0014
     43  C7A       17.5370   28.2340   12.7700 C.3   401  ROC401      0.0161
     44  C81       18.3920   28.2070   13.9830 C.3   401  ROC401      0.0725
     45  N3        22.7670   28.0770   12.2290 N.am  401  ROC401     -0.2077
     46  CD        24.1380   28.4400   11.9330 C.3   401  ROC401      0.0788
     47  C11       24.9070   27.1140   11.7270 C.3   401  ROC401      0.0217
     48  C22       24.7830   29.1180   13.1130 C.3   401  ROC401      0.0217
     49  C32       24.2390   29.3070   10.7090 C.3   401  ROC401      0.0217
@<TRIPOS>BOND
     1    40    39    1
     2    40    41    1
     3    39    38    1
     4    49    46    1
     5    41    42    1
     6    37    38    1
     7    37    34    1
     8    38    43    1
     9    47    46    1
    10    46    45    1
    11    46    48    1
    12    45    35   am
    13    35    36    2
    14    35    34    1
    15    42    43    1
    16    34    32    1
    17    43    44    1
    18    32    44    1
    19    32    33    1
    20    16    15    2
    21    27    29   ar
    22    27    26   ar
    23    29    31   ar
    24    33    21    1
    25     9    10    2
    26     9     8    1
    27    23    25    1
    28    23    21    1
    29    23    24    1
    30    10    12    1
    31    15    24   am
    32    15    14    1
    33    25    26    1
    34    21    22    1
    35    26    28   ar
    36    17    14    1
    37    17    18    1
    38    31    30   ar
    39    14    13    1
    40     8     7    2
    41    12     3    2
    42    12    11    1
    43    13     1   am
    44    19    18    2
    45     3     4    2
    46    18    20   am
    47    28    30   ar
    48     7    11    1
    49    11     6    1
    50     1     4    1
    51     1     2    2
    52     4     5    1
    53     6     5    2
