@<TRIPOS>MOLECULE
2nnq_T4B_A_1.pdb
 36 40 0 0 0
SMALL
GASTEIGER

@<TRIPOS>ATOM
      1  C1         2.3600   10.6210   15.5130 C.ar  293  T4B293      0.0191
      2  C2         6.0970   10.0740   16.3860 C.ar  293  T4B293      0.0045
      3  C3         6.4370    8.6900   16.2580 C.ar  293  T4B293      0.0370
      4  C7         4.9160   11.7070   14.8380 C.ar  293  T4B293      0.0015
      5  C8         3.7310   12.2490   14.2720 C.ar  293  T4B293      0.0001
      6  C9         6.9200    5.7870   16.8350 C.3   293  T4B293      0.3186
      7  C10        6.7200    5.2070   15.4380 C.2   293  T4B293      0.4084
      8  C11        7.5930    8.1560   16.9270 C.ar  293  T4B293      0.1394
      9  C12        8.4080    9.0190   17.7190 C.ar  293  T4B293      0.0369
     10  C13        8.0780   10.4000   17.8420 C.ar  293  T4B293      0.0031
     11  C14        6.9260   10.9280   17.1780 C.ar  293  T4B293      0.0002
     12  C15        3.3590    6.9490   14.4400 C.3   293  T4B293      0.0067
     13  C16        2.5280    5.5810   18.2210 C.ar  293  T4B293      0.0026
     14  C19        3.0490    6.9750   17.9580 C.ar  293  T4B293      0.0329
     15  C20        2.8930    7.7040   16.8070 C.ar  293  T4B293      0.0619
     16  C21        2.2770    7.1780   15.5020 C.3   293  T4B293      0.0459
     17  C22        2.9070    3.2440   18.9290 C.ar  293  T4B293      0.0000
     18  C24        4.1060    6.6740   22.5750 C.ar  293  T4B293      0.0000
     19  C27        4.3410    7.5550   20.2760 C.ar  293  T4B293      0.0194
     20  C30        1.1270    5.2900   18.0640 C.ar  293  T4B293      0.0001
     21  C          2.4560   11.7100   14.6080 C.ar  293  T4B293      0.0015
     22  C4         5.6860    7.9410   20.5700 C.ar  293  T4B293      0.0016
     23  C5         3.5450   10.0610   16.0900 C.ar  293  T4B293      0.0824
     24  C6         4.8400   10.6120   15.7530 C.ar  293  T4B293      0.0178
     25  O          7.2750    5.7190   14.4680 O.co2 293  T4B293     -0.2415
     26  O1         5.9360    4.1630   15.2630 O.co2 293  T4B293     -0.2415
     27  O2         7.9380    6.8180   16.8020 O.3   293  T4B293     -0.4637
     28  C17        3.4130    4.5430   18.6550 C.ar  293  T4B293      0.0001
     29  N          3.4580    8.9580   16.9990 N.ar  293  T4B293     -0.2337
     30  N1         3.9960    9.0000   18.3230 N.ar  293  T4B293     -0.1654
     31  C18        3.7940    7.8620   18.9220 C.ar  293  T4B293      0.1023
     32  C23        3.5500    6.9180   21.2880 C.ar  293  T4B293      0.0016
     33  C25        5.4470    7.0620   22.8580 C.ar  293  T4B293      0.0000
     34  C26        6.2380    7.6950   21.8610 C.ar  293  T4B293      0.0000
     35  C28        1.5210    2.9690   18.7680 C.ar  293  T4B293      0.0000
     36  C29        0.6320    3.9900   18.3350 C.ar  293  T4B293      0.0000
@<TRIPOS>BOND
     1     5    21   ar
     2     5     4   ar
     3    12    16    1
     4    25     7   ar
     5    21     1   ar
     6     4    24   ar
     7    26     7   ar
     8     7     6    1
     9    16    15    1
    10     1    23   ar
    11    24    23   ar
    12    24     2    1
    13    23    29    1
    14     3     2   ar
    15     3     8   ar
    16     2    11   ar
    17    27     6    1
    18    27     8    1
    19    15    29   ar
    20    15    14   ar
    21     8     9   ar
    22    29    30   ar
    23    11    10   ar
    24     9    10   ar
    25    14    13    1
    26    14    31   ar
    27    20    13   ar
    28    20    36   ar
    29    13    28   ar
    30    30    31   ar
    31    36    35   ar
    32    28    17   ar
    33    35    17   ar
    34    31    19    1
    35    19    22   ar
    36    19    32   ar
    37    22    34   ar
    38    32    18   ar
    39    34    33   ar
    40    18    33   ar
