@<TRIPOS>MOLECULE
2nns_M25_A_1.pdb
 16 16 0 0 0
SMALL
GASTEIGER

@<TRIPOS>ATOM
      1  C1        -5.2600    2.3770   15.8070 C.ar  301  M25301      0.1250
      2  C2        -3.9210    2.3780   15.4430 C.ar  301  M25301      0.0197
      3  C3        -3.4410    3.4560   14.6950 C.ar  301  M25301     -0.0028
      4  C4        -4.2500    4.5320   14.3150 C.ar  301  M25301     -0.0203
      5  C5        -5.5810    4.4890   14.6740 C.ar  301  M25301     -0.0028
      6  C6        -6.1250    3.4340   15.4180 C.ar  301  M25301      0.0197
      7  S         -5.9350    1.0310   16.7740 S.O2  301  M25301      0.0935
      8  O1        -7.3830    1.1150   16.6540 O.2   301  M25301     -0.1503
      9  O2        -5.3640    1.2050   18.1200 O.2   301  M25301     -0.1503
     10  N1        -5.4740   -0.3460   16.1150 N.3   301  M25301      0.0392
     11  C7        -3.7190    5.6270   13.4330 C.3   301  M25301      0.0498
     12  C8        -2.7680    6.5660   14.2060 C.3   301  M25301      0.1198
     13  N2        -2.3670    7.6970   13.3740 N.am  301  M25301     -0.2051
     14  C9        -1.5950    8.6890   13.8210 C.2   301  M25301      0.2419
     15  C10       -1.3000    9.7870   12.8460 C.3   301  M25301      0.0964
     16  O3        -1.1370    8.6790   14.9770 O.2   301  M25301     -0.2733
@<TRIPOS>BOND
     1    15    14    1
     2    13    14   am
     3    13    12    1
     4    11    12    1
     5    11     4    1
     6    14    16    2
     7     4     5   ar
     8     4     3   ar
     9     5     6   ar
    10     3     2   ar
    11     6     1   ar
    12     2     1   ar
    13     1     7    1
    14    10     7    1
    15     8     7    2
    16     7     9    2
