@<TRIPOS>MOLECULE
2nnv_M29_A_1.pdb
 17 17 0 0 0
SMALL
GASTEIGER

@<TRIPOS>ATOM
      1  C1        -5.2710    2.0670   15.7360 C.ar  301  M29301      0.1250
      2  C2        -6.0940    3.1360   15.3350 C.ar  301  M29301      0.0197
      3  C3        -5.5850    4.1650   14.5640 C.ar  301  M29301     -0.0029
      4  C4        -4.2540    4.1700   14.1930 C.ar  301  M29301     -0.0215
      5  C5        -3.4240    3.1340   14.5770 C.ar  301  M29301     -0.0029
      6  C6        -3.9400    2.0620   15.3330 C.ar  301  M29301      0.0197
      7  S         -5.9400    0.7540   16.7160 S.O2  301  M29301      0.0935
      8  O1        -7.3820    0.8790   16.5920 O.2   301  M29301     -0.1503
      9  O2        -5.3730    0.9660   18.0400 O.2   301  M29301     -0.1503
     10  N         -5.4500   -0.6540   16.1030 N.3   301  M29301      0.0392
     11  C7        -3.7100    5.3030   13.3840 C.3   301  M29301      0.0380
     12  C8        -2.7570    6.1460   14.1930 C.3   301  M29301      0.1142
     13  C9        -2.1760    7.3640   13.5430 C.2   301  M29301      0.3173
     14  O3        -1.3150    8.0500   14.3360 O.3   301  M29301     -0.4485
     15  O4        -2.4870    7.6810   12.4410 O.2   301  M29301     -0.2501
     16  C10       -0.8950    9.3320   13.8310 C.3   301  M29301      0.2086
     17  C11       -0.1230    9.9800   14.9710 C.3   301  M29301      0.0513
@<TRIPOS>BOND
     1    15    13    2
     2    11     4    1
     3    11    12    1
     4    13    12    1
     5    13    14    1
     6    16    14    1
     7    16    17    1
     8     4     3   ar
     9     4     5   ar
    10     3     2   ar
    11     5     6   ar
    12     6     1   ar
    13     2     1   ar
    14     1     7    1
    15    10     7    1
    16     8     7    2
    17     7     9    2
