@<TRIPOS>MOLECULE
2no0_GEO_A_1.pdb
 18 19 0 0 0
SMALL
GASTEIGER

@<TRIPOS>ATOM
      1  O5'       47.2880   60.9290   98.8170 O.3   302  GEO302     -0.2176
      2  C5'       47.8590   61.5090   97.6510 C.3   302  GEO302      0.2143
      3  C4'       48.7740   62.7000   97.9910 C.3   302  GEO302      0.1859
      4  O4'       47.9330   63.8100   98.3420 O.3   302  GEO302     -0.3296
      5  C1'       48.4000   64.4040   99.5630 C.3   302  GEO302      0.2718
      6  N1        47.2850   64.9180  100.3500 N.am  302  GEO302     -0.1754
      7  C6        46.1480   64.3150  100.4020 C.2   302  GEO302      0.0837
      8  C5        45.0970   64.9500  100.8370 C.2   302  GEO302      0.0687
      9  C4        45.1800   66.1100  101.4210 C.2   302  GEO302      0.2346
     10  N3        46.3680   66.7080  101.5190 N.2   302  GEO302     -0.3024
     11  C2        47.4400   66.0990  100.9830 C.1   302  GEO302      0.2757
     12  O2        48.6070   66.6720  101.0730 O.2   302  GEO302     -0.1925
     13  N4        44.0930   66.7350  101.9500 N.pl3 302  GEO302     -0.0921
     14  C2'       49.1280   63.2600  100.2860 C.3   302  GEO302      0.3366
     15  F1        48.2960   62.4460  100.9510 F     302  GEO302     -0.1969
     16  F2        50.0200   63.7410  101.1190 F     302  GEO302     -0.1969
     17  C3'       49.7550   62.4940   99.1360 C.3   302  GEO302      0.2463
     18  O3'       51.0240   63.0490   98.7430 O.3   302  GEO302     -0.2144
@<TRIPOS>BOND
     1     2     3    1
     2     2     1    1
     3     3     4    1
     4     3    17    1
     5     4     5    1
     6    18    17    1
     7    17    14    1
     8     5    14    1
     9     5     6    1
    10    14    15    1
    11    14    16    1
    12     6     7    1
    13     6    11   am
    14     7     8    2
    15     8     9    1
    16    11    12    2
    17    11    10    2
    18     9    10    2
    19     9    13    1
