@<TRIPOS>MOLECULE
2no0_ADP_A_1.pdb
 27 29 0 0 0
SMALL
GASTEIGER

@<TRIPOS>ATOM
      1  PB        47.9920   54.8820   99.6170 P.3   301  ADP301      0.5373
      2  O1B       48.7450   56.1920   99.4120 O.3   301  ADP301     -0.1143
      3  O2B       46.8050   54.7160   98.7400 O.2   301  ADP301     -0.2221
      4  O3B       47.6540   54.6360  101.0480 O.3   301  ADP301     -0.1143
      5  PA        49.1840   52.7590   97.9910 P.3   301  ADP301      0.2231
      6  O1A       48.0300   51.8030   98.0740 O.3   301  ADP301     -0.4370
      7  O2A       49.3650   53.5520   96.7340 O.2   301  ADP301     -0.5169
      8  O3A       49.0340   53.7080   99.2590 O.3   301  ADP301     -0.2261
      9  O5'       50.5050   51.9200   98.3330 O.3   301  ADP301     -0.3111
     10  C5'       51.7770   52.5600   98.4510 C.3   301  ADP301      0.1813
     11  C4'       52.8720   51.6300   97.8980 C.3   301  ADP301      0.1821
     12  O4'       53.0330   50.5310   98.8250 O.3   301  ADP301     -0.3135
     13  C3'       52.5640   51.0040   96.5310 C.3   301  ADP301      0.2184
     14  O3'       53.8020   50.8980   95.8190 O.3   301  ADP301     -0.2174
     15  C2'       52.0090   49.6170   96.8680 C.3   301  ADP301      0.2570
     16  O2'       52.3820   48.5840   95.9640 O.3   301  ADP301     -0.2130
     17  C1'       52.7360   49.2780   98.1430 C.3   301  ADP301      0.3186
     18  N9        51.9910   48.5350   99.1700 N.pl3 301  ADP301     -0.1439
     19  C8        50.8080   48.8700   99.7100 C.3   301  ADP301      0.3377
     20  N7        50.4680   48.0020  100.7050 N.2   301  ADP301     -0.2095
     21  C5        51.4520   47.0960  100.7710 C.2   301  ADP301      0.2526
     22  C6        51.6720   45.9180  101.6260 C.2   301  ADP301      0.4393
     23  N6        50.8290   45.5970  102.5340 N.pl3 301  ADP301      0.2180
     24  N1        52.7970   45.2380  101.4050 N.2   301  ADP301      0.0021
     25  C2        53.7950   45.5760  100.3950 C.3   301  ADP301      0.5254
     26  N3        53.5350   46.7510   99.5830 N.2   301  ADP301     -0.0055
     27  C4        52.3800   47.4610   99.8200 C.2   301  ADP301      0.3518
@<TRIPOS>BOND
     1    14    13    1
     2    16    15    1
     3    13    15    1
     4    13    11    1
     5     7     5    2
     6    15    17    1
     7    11    10    1
     8    11    12    1
     9     5     6    1
    10     5     9    1
    11     5     8    1
    12    17    12    1
    13    17    18    1
    14     9    10    1
    15     3     1    2
    16    18    19    1
    17    18    27    1
    18     8     1    1
    19     2     1    1
    20    26    27    2
    21    26    25    1
    22     1     4    1
    23    19    20    1
    24    27    21    1
    25    25    24    1
    26    20    21    2
    27    21    22    1
    28    24    22    2
    29    22    23    1
