@<TRIPOS>MOLECULE
2no1_DCZ_A_1.pdb
 16 17 0 0 0
SMALL
GASTEIGER

@<TRIPOS>ATOM
      1  N1        47.7120   65.2670  100.0170 N.am  302  DCZ302     -0.1802
      2  C2        47.8160   66.4300  100.6620 C.1   302  DCZ302      0.2756
      3  N3        46.7250   66.9830  101.1920 N.2   302  DCZ302     -0.3024
      4  C4        45.5610   66.3790  101.0760 C.2   302  DCZ302      0.2346
      5  C5        45.4960   65.2630  100.4280 C.2   302  DCZ302      0.0687
      6  C6        46.5480   64.7100   99.9210 C.2   302  DCZ302      0.0835
      7  O2        48.9610   67.0260  100.8270 O.2   302  DCZ302     -0.1925
      8  N4        44.5170   67.0190  101.5920 N.pl3 302  DCZ302     -0.0921
      9  C1'       48.9300   64.7250   99.3940 C.3   302  DCZ302      0.2090
     10  C2'       49.6130   63.5340  100.0710 C.3   302  DCZ302      0.0874
     11  C3'       50.0900   62.7250   98.8680 C.3   302  DCZ302      0.1858
     12  C4'       49.1280   63.0650   97.7240 C.3   302  DCZ302      0.1802
     13  O4'       48.5640   64.3400   98.0430 O.3   302  DCZ302     -0.3338
     14  O3'       51.3720   63.2110   98.4430 O.3   302  DCZ302     -0.2203
     15  C5'       48.0380   62.0220   97.4530 C.3   302  DCZ302      0.2141
     16  O5'       47.4660   61.4880   98.6500 O.3   302  DCZ302     -0.2176
@<TRIPOS>BOND
     1    15    12    1
     2    15    16    1
     3    12    13    1
     4    12    11    1
     5    13     9    1
     6    14    11    1
     7    11    10    1
     8     9     1    1
     9     9    10    1
    10     6     1    1
    11     6     5    2
    12     1     2   am
    13     5     4    1
    14     2     7    2
    15     2     3    2
    16     4     3    2
    17     4     8    1
