@<TRIPOS>MOLECULE
2no1_ADP_A_1.pdb
 27 29 0 0 0
SMALL
GASTEIGER

@<TRIPOS>ATOM
      1  PB        48.3570   55.1060   99.3390 P.3   301  ADP301      0.5373
      2  O1B       49.1070   56.3890   99.1500 O.3   301  ADP301     -0.1143
      3  O2B       47.2050   54.8900   98.3990 O.2   301  ADP301     -0.2221
      4  O3B       48.0220   54.9230  100.8140 O.3   301  ADP301     -0.1143
      5  PA        49.5770   52.9970   97.6820 P.3   301  ADP301      0.2231
      6  O1A       48.4310   52.0550   97.7130 O.3   301  ADP301     -0.4370
      7  O2A       49.8560   53.7650   96.4200 O.2   301  ADP301     -0.5169
      8  O3A       49.4540   53.9670   98.9750 O.3   301  ADP301     -0.2261
      9  O5'       50.8950   52.1890   98.1110 O.3   301  ADP301     -0.3111
     10  C5'       52.1700   52.8240   98.0870 C.3   301  ADP301      0.1813
     11  C4'       53.2410   51.8470   97.5710 C.3   301  ADP301      0.1821
     12  O4'       53.4140   50.7630   98.4870 O.3   301  ADP301     -0.3135
     13  C3'       52.8910   51.2070   96.2180 C.3   301  ADP301      0.2184
     14  O3'       54.1100   51.1070   95.4910 O.3   301  ADP301     -0.2174
     15  C2'       52.3470   49.8250   96.5610 C.3   301  ADP301      0.2570
     16  O2'       52.8370   48.7930   95.7510 O.3   301  ADP301     -0.2130
     17  C1'       53.0290   49.5100   97.8710 C.3   301  ADP301      0.3186
     18  N9        52.2320   48.8070   98.8960 N.pl3 301  ADP301     -0.1439
     19  C8        51.0540   49.1380   99.4680 C.3   301  ADP301      0.3377
     20  N7        50.7370   48.2410  100.4390 N.2   301  ADP301     -0.2095
     21  C5        51.7480   47.3360  100.4860 C.2   301  ADP301      0.2526
     22  C6        52.0720   46.1310  101.2950 C.2   301  ADP301      0.4393
     23  N6        51.3170   45.7190  102.2230 N.pl3 301  ADP301      0.2180
     24  N1        53.2240   45.4860  101.0440 N.2   301  ADP301      0.0021
     25  C2        54.1910   45.8920  100.0260 C.3   301  ADP301      0.5254
     26  N3        53.8020   47.0820   99.2940 N.2   301  ADP301     -0.0055
     27  C4        52.6430   47.7380   99.5480 C.2   301  ADP301      0.3518
@<TRIPOS>BOND
     1    14    13    1
     2    16    15    1
     3    13    15    1
     4    13    11    1
     5     7     5    2
     6    15    17    1
     7    11    10    1
     8    11    12    1
     9     5     6    1
    10     5     9    1
    11     5     8    1
    12    17    12    1
    13    17    18    1
    14    10     9    1
    15     3     1    2
    16    18    19    1
    17    18    27    1
    18     8     1    1
    19     2     1    1
    20    26    27    2
    21    26    25    1
    22     1     4    1
    23    19    20    1
    24    27    21    1
    25    25    24    1
    26    20    21    2
    27    21    22    1
    28    24    22    2
    29    22    23    1
