@<TRIPOS>MOLECULE
2no3_859_A_1.pdb
 24 26 0 0 0
SMALL
GASTEIGER

@<TRIPOS>ATOM
      1  C1        17.7710  107.5350   51.0610 C.1   901  859901      0.1709
      2  N2        18.8810  107.0790   50.4700 N.2   901  859901     -0.3189
      3  C3        18.8750  106.6660   49.1930 C.2   901  859901      0.2178
      4  C4        17.6950  106.6990   48.4520 C.2   901  859901      0.0720
      5  C5        16.5550  107.1920   49.1190 C.2   901  859901      0.1158
      6  N6        16.5960  107.6020   50.4200 N.2   901  859901     -0.1683
      7  N7        20.0360  106.1830   48.6480 N.pl3 901  859901     -0.1826
      8  C8        21.3420  106.0370   49.1580 C.ar  901  859901      0.0776
      9  C9        22.3420  105.4330   48.3300 C.ar  901  859901      0.0719
     10  C10       23.6630  105.2640   48.8230 C.ar  901  859901      0.0059
     11  C11       24.0200  105.6940   50.1180 C.ar  901  859901      0.0002
     12  C12       23.0610  106.2830   50.9430 C.ar  901  859901      0.0013
     13  C13       21.7580  106.4510   50.4680 C.ar  901  859901      0.0167
     14  N14       17.8210  107.9340   52.3720 N.pl3 901  859901     -0.1356
     15  C15       18.9080  108.0340   53.2260 C.ar  901  859901      0.0858
     16  C16       18.9030  109.0960   54.1600 C.ar  901  859901      0.0176
     17  C17       19.9660  109.2770   55.0740 C.ar  901  859901      0.0046
     18  C18       21.0750  108.3880   55.0720 C.ar  901  859901      0.0421
     19  C19       21.1100  107.3220   54.1530 C.ar  901  859901      0.1971
     20  C20       20.0380  107.1510   53.2480 C.ar  901  859901      0.0594
     21  O21       22.1910  106.4510   54.1380 O.3   901  859901     -0.2865
     22  C22       22.0170  104.9470   46.9660 C.2   901  859901      0.2854
     23  N23       23.0100  104.3640   46.2730 N.am  901  859901     -0.0837
     24  O24       20.9050  105.0460   46.4600 O.2   901  859901     -0.2666
@<TRIPOS>BOND
     1    23    22   am
     2    24    22    2
     3    22     9    1
     4     9    10   ar
     5     9     8   ar
     6     4     5    2
     7     4     3    1
     8     7     8    1
     9     7     3    1
    10    10    11   ar
    11     5     6    1
    12     8    13   ar
    13     3     2    2
    14    11    12   ar
    15     6     1    2
    16    13    12   ar
    17     2     1    2
    18     1    14    1
    19    14    15    1
    20    15    20   ar
    21    15    16   ar
    22    20    19   ar
    23    21    19    1
    24    19    18   ar
    25    16    17   ar
    26    18    17   ar
