@<TRIPOS>MOLECULE
2no6_ETV_A_1.pdb
 16 17 0 0 0
SMALL
GASTEIGER

@<TRIPOS>ATOM
      1  O4        48.8120   68.1880   99.8490 O.2   302  ETV302     -0.1925
      2  C9        47.7400   67.5920   99.8270 C.1   302  ETV302      0.2757
      3  N5        46.5380   68.2340  100.1010 N.2   302  ETV302     -0.3000
      4  C10       45.3870   67.5970  100.0580 C.2   302  ETV302      0.2617
      5  N6        44.2630   68.2890  100.3710 N.pl3 302  ETV302     -0.0896
      6  C11       45.4180   66.1940   99.6700 C.2   302  ETV302      0.2033
      7  F2        44.2470   65.5100   99.5950 F     302  ETV302     -0.1985
      8  C12       46.5790   65.5530   99.3860 C.2   302  ETV302      0.1131
      9  N4        47.7540   66.2580   99.4440 N.am  302  ETV302     -0.1772
     10  C13       49.0740   65.6340   99.1430 C.3   302  ETV302      0.2183
     11  O5        48.8980   64.2430   99.0430 O.3   302  ETV302     -0.3247
     12  C15       49.1090   63.7100   97.7150 C.3   302  ETV302      0.1975
     13  C16       48.1770   62.6060   97.3170 C.3   302  ETV302      0.2227
     14  O6        48.1690   61.5260   98.2170 O.3   302  ETV302     -0.2167
     15  S2        48.9380   65.1240   96.5960 S.3   302  ETV302     -0.1048
     16  C14       49.7330   66.1400   97.8500 C.3   302  ETV302      0.1118
@<TRIPOS>BOND
     1    15    12    1
     2    15    16    1
     3    13    12    1
     4    13    14    1
     5    12    11    1
     6    16    10    1
     7    11    10    1
     8    10     9    1
     9     8     9    1
    10     8     6    2
    11     9     2   am
    12     7     6    1
    13     6     4    1
    14     2     1    2
    15     2     3    2
    16     4     3    2
    17     4     5    1
