@<TRIPOS>MOLECULE
2no6_ADP_A_1.pdb
 27 29 0 0 0
SMALL
GASTEIGER

@<TRIPOS>ATOM
      1  PB        48.0560   55.8110   98.0360 P.3   301  ADP301      0.5373
      2  O1B       48.8460   57.0700   97.8910 O.3   301  ADP301     -0.1143
      3  O2B       46.9160   55.6130   97.0830 O.2   301  ADP301     -0.2221
      4  O3B       47.6970   55.5640   99.4490 O.3   301  ADP301     -0.1143
      5  PA        49.2010   53.5490   96.5310 P.3   301  ADP301      0.2231
      6  O1A       48.0820   52.5610   96.6350 O.3   301  ADP301     -0.4370
      7  O2A       49.3560   54.2250   95.2180 O.2   301  ADP301     -0.5169
      8  O3A       49.1580   54.6440   97.7020 O.3   301  ADP301     -0.2261
      9  O5'       50.5330   52.7390   96.9030 O.3   301  ADP301     -0.3111
     10  C5'       51.7700   53.4140   96.7490 C.3   301  ADP301      0.1813
     11  C4'       52.8080   52.3720   96.2590 C.3   301  ADP301      0.1821
     12  O4'       52.9030   51.3170   97.2330 O.3   301  ADP301     -0.3135
     13  C3'       52.4600   51.7270   94.9210 C.3   301  ADP301      0.2184
     14  O3'       53.6830   51.5860   94.1590 O.3   301  ADP301     -0.2174
     15  C2'       51.8660   50.3740   95.3120 C.3   301  ADP301      0.2570
     16  O2'       52.0990   49.3700   94.3600 O.3   301  ADP301     -0.2130
     17  C1'       52.6250   50.0410   96.5840 C.3   301  ADP301      0.3186
     18  N9        51.8800   49.3320   97.6320 N.pl3 301  ADP301     -0.1439
     19  C8        50.7070   49.6730   98.2050 C.3   301  ADP301      0.3377
     20  N7        50.3840   48.7940   99.1960 N.2   301  ADP301     -0.2095
     21  C5        51.4170   47.9060   99.2680 C.2   301  ADP301      0.2526
     22  C6        51.7090   46.7120  100.1120 C.2   301  ADP301      0.4393
     23  N6        50.9230   46.3490  101.0490 N.pl3 301  ADP301      0.2180
     24  N1        52.8500   46.0460   99.8740 N.2   301  ADP301      0.0021
     25  C2        53.7970   46.4370   98.8340 C.3   301  ADP301      0.5254
     26  N3        53.4400   47.6010   98.0250 N.2   301  ADP301     -0.0055
     27  C4        52.2920   48.2680   98.2840 C.2   301  ADP301      0.3518
@<TRIPOS>BOND
     1    14    13    1
     2    16    15    1
     3    13    15    1
     4    13    11    1
     5     7     5    2
     6    15    17    1
     7    11    10    1
     8    11    12    1
     9     5     6    1
    10     5     9    1
    11     5     8    1
    12    17    12    1
    13    17    18    1
    14    10     9    1
    15     3     1    2
    16    18    19    1
    17    18    27    1
    18     8     1    1
    19     2     1    1
    20    26    27    2
    21    26    25    1
    22     1     4    1
    23    19    20    1
    24    27    21    1
    25    25    24    1
    26    20    21    2
    27    21    22    1
    28    24    22    2
    29    22    23    1
