@<TRIPOS>MOLECULE
2no7_ADP_A_1.pdb
 27 29 0 0 0
SMALL
GASTEIGER

@<TRIPOS>ATOM
      1  PB        48.2620   55.2850   98.7510 P.3   301  ADP301      0.5373
      2  O1B       49.0850   56.4840   98.4580 O.3   301  ADP301     -0.1143
      3  O2B       47.0430   55.0900   97.8290 O.2   301  ADP301     -0.2221
      4  O3B       48.0100   55.1010  100.2190 O.3   301  ADP301     -0.1143
      5  PA        49.4580   53.1640   97.1250 P.3   301  ADP301      0.2231
      6  O1A       48.2340   52.2690   97.1900 O.3   301  ADP301     -0.4370
      7  O2A       49.6630   53.9210   95.8340 O.2   301  ADP301     -0.5169
      8  O3A       49.3160   54.1030   98.4190 O.3   301  ADP301     -0.2261
      9  O5'       50.7390   52.2650   97.5070 O.3   301  ADP301     -0.3111
     10  C5'       51.9930   52.9450   97.5560 C.3   301  ADP301      0.1813
     11  C4'       53.0920   52.0300   97.0200 C.3   301  ADP301      0.1821
     12  O4'       53.1940   50.9830   97.9650 O.3   301  ADP301     -0.3135
     13  C3'       52.7000   51.3700   95.7090 C.3   301  ADP301      0.2184
     14  O3'       53.8960   51.3220   94.9450 O.3   301  ADP301     -0.2174
     15  C2'       52.2150   49.9640   96.0450 C.3   301  ADP301      0.2570
     16  O2'       52.7310   48.9900   95.1630 O.3   301  ADP301     -0.2130
     17  C1'       52.9730   49.7070   97.3120 C.3   301  ADP301      0.3186
     18  N9        52.2370   48.9510   98.3200 N.pl3 301  ADP301     -0.1439
     19  C8        51.0480   49.2780   98.8760 C.3   301  ADP301      0.3377
     20  N7        50.7560   48.3580   99.8510 N.2   301  ADP301     -0.2095
     21  C5        51.7730   47.4920   99.9100 C.2   301  ADP301      0.2526
     22  C6        52.0840   46.3220  100.7550 C.2   301  ADP301      0.4393
     23  N6        51.2700   45.9420  101.6560 N.pl3 301  ADP301      0.2180
     24  N1        53.2440   45.6620  100.5240 N.2   301  ADP301      0.0021
     25  C2        54.2180   46.0690   99.5090 C.3   301  ADP301      0.5254
     26  N3        53.8640   47.2520   98.7430 N.2   301  ADP301     -0.0055
     27  C4        52.6720   47.9000   98.9660 C.2   301  ADP301      0.3518
@<TRIPOS>BOND
     1    14    13    1
     2    16    15    1
     3    13    15    1
     4    13    11    1
     5     7     5    2
     6    15    17    1
     7    11    10    1
     8    11    12    1
     9     5     6    1
    10     5     9    1
    11     5     8    1
    12    17    12    1
    13    17    18    1
    14     9    10    1
    15     3     1    2
    16    18    19    1
    17    18    27    1
    18     8     1    1
    19     2     1    1
    20    26    27    2
    21    26    25    1
    22     1     4    1
    23    19    20    1
    24    27    21    1
    25    25    24    1
    26    20    21    2
    27    21    22    1
    28    24    22    2
    29    22    23    1
