@<TRIPOS>MOLECULE
2no7_LDC_A_1.pdb
 16 17 0 0 0
SMALL
GASTEIGER

@<TRIPOS>ATOM
      1  O1        48.9100   67.2020  100.3250 O.2   401  LDC401     -0.1925
      2  C2        47.8480   66.5720  100.2480 C.1   401  LDC401      0.2756
      3  N3        46.6970   67.3100  100.6460 N.2   401  LDC401     -0.3024
      4  C3        45.5240   66.8190  100.6040 C.2   401  LDC401      0.2346
      5  N4        44.4540   67.5480  100.9460 N.pl3 401  LDC401     -0.0921
      6  C4        45.4210   65.4170  100.1060 C.2   401  LDC401      0.0687
      7  C5        46.5650   64.7270   99.7630 C.2   401  LDC401      0.0835
      8  N2        47.7580   65.3360   99.8270 N.am  401  LDC401     -0.1802
      9  C8        49.0080   64.6690   99.4270 C.3   401  LDC401      0.2090
     10  C9        49.4540   65.0670   97.9900 C.3   401  LDC401      0.0874
     11  C10       50.0160   63.7430   97.3990 C.3   401  LDC401      0.1858
     12  O3        51.4240   63.7680   97.5550 O.3   401  LDC401     -0.2203
     13  C11       49.2920   62.6120   98.1670 C.3   401  LDC401      0.1802
     14  O4        48.8500   63.2520   99.3910 O.3   401  LDC401     -0.3338
     15  C12       48.1400   61.9870   97.3550 C.3   401  LDC401      0.2141
     16  O5        47.3810   61.0100   98.1070 O.3   401  LDC401     -0.2176
@<TRIPOS>BOND
     1    15    16    1
     2    15    13    1
     3    11    12    1
     4    11    10    1
     5    11    13    1
     6    10     9    1
     7    13    14    1
     8    14     9    1
     9     9     8    1
    10     7     8    1
    11     7     6    2
    12     8     2   am
    13     6     4    1
    14     2     1    2
    15     2     3    2
    16     4     3    2
    17     4     5    1
