@<TRIPOS>MOLECULE
2no9_ADP_A_1.pdb
 27 29 0 0 0
SMALL
GASTEIGER

@<TRIPOS>ATOM
      1  PB        48.1730   55.7560   98.2850 P.3   301  ADP301      0.5373
      2  O1B       49.0060   56.9780   98.0380 O.3   301  ADP301     -0.1143
      3  O2B       46.9860   55.4450   97.4650 O.2   301  ADP301     -0.2221
      4  O3B       47.8890   55.6470   99.7710 O.3   301  ADP301     -0.1143
      5  PA        49.3100   53.5550   96.7360 P.3   301  ADP301      0.2231
      6  O1A       48.0920   52.6990   96.9140 O.3   301  ADP301     -0.4370
      7  O2A       49.5780   54.2030   95.4250 O.2   301  ADP301     -0.5169
      8  O3A       49.2360   54.5570   98.0200 O.3   301  ADP301     -0.2261
      9  O5'       50.6000   52.6980   97.0920 O.3   301  ADP301     -0.3111
     10  C5'       51.9010   53.2640   97.0430 C.3   301  ADP301      0.1813
     11  C4'       52.9320   52.2990   96.4440 C.3   301  ADP301      0.1821
     12  O4'       53.1300   51.2020   97.3240 O.3   301  ADP301     -0.3135
     13  C3'       52.5500   51.6810   95.1080 C.3   301  ADP301      0.2184
     14  O3'       53.8040   51.5200   94.4680 O.3   301  ADP301     -0.2174
     15  C2'       51.9930   50.3280   95.4860 C.3   301  ADP301      0.2570
     16  O2'       52.2880   49.3170   94.5670 O.3   301  ADP301     -0.2130
     17  C1'       52.7930   49.9690   96.7110 C.3   301  ADP301      0.3186
     18  N9        52.0620   49.2900   97.7980 N.pl3 301  ADP301     -0.1439
     19  C8        50.8880   49.6080   98.3690 C.3   301  ADP301      0.3377
     20  N7        50.5820   48.7690   99.4020 N.2   301  ADP301     -0.2095
     21  C5        51.6180   47.9160   99.4920 C.2   301  ADP301      0.2526
     22  C6        51.9300   46.7820  100.3680 C.2   301  ADP301      0.4393
     23  N6        51.1130   46.4670  101.3050 N.pl3 301  ADP301      0.2180
     24  N1        53.1050   46.1380  100.1430 N.2   301  ADP301      0.0021
     25  C2        54.0700   46.4880   99.1110 C.3   301  ADP301      0.5254
     26  N3        53.6670   47.6250   98.2680 N.2   301  ADP301     -0.0055
     27  C4        52.5080   48.2660   98.5030 C.2   301  ADP301      0.3518
@<TRIPOS>BOND
     1    14    13    1
     2    16    15    1
     3    13    15    1
     4    13    11    1
     5     7     5    2
     6    15    17    1
     7    11    10    1
     8    11    12    1
     9    17    12    1
    10    17    18    1
    11     5     6    1
    12     5     9    1
    13     5     8    1
    14    10     9    1
    15     3     1    2
    16    18    19    1
    17    18    27    1
    18     8     1    1
    19     2     1    1
    20    26    27    2
    21    26    25    1
    22     1     4    1
    23    19    20    1
    24    27    21    1
    25    25    24    1
    26    20    21    2
    27    21    22    1
    28    24    22    2
    29    22    23    1
