@<TRIPOS>MOLECULE
2no9_LTT_A_1.pdb
 15 16 0 0 0
SMALL
GASTEIGER

@<TRIPOS>ATOM
      1  O1        48.8760   67.7620  100.1340 O.2   302  LTT302     -0.1925
      2  C1        47.7520   67.2730  100.0720 C.1   302  LTT302      0.2756
      3  N2        46.6570   67.9770  100.3720 N.2   302  LTT302     -0.3024
      4  C3        45.4390   67.4090  100.2840 C.2   302  LTT302      0.2346
      5  N3        44.3380   68.1710  100.5730 N.pl3 302  LTT302     -0.0921
      6  C5        45.3480   66.0740   99.8870 C.2   302  LTT302      0.0687
      7  C7        46.5040   65.3300   99.5950 C.2   302  LTT302      0.0836
      8  N1        47.6940   65.9420   99.6800 N.am  302  LTT302     -0.1779
      9  C4        49.0110   65.3320   99.4180 C.3   302  LTT302      0.2385
     10  O3        48.8500   63.9610   99.0890 O.3   302  LTT302     -0.3082
     11  C2        49.2660   63.7450   97.7540 C.3   302  LTT302      0.2710
     12  C8        48.3500   62.7190   97.1380 C.3   302  LTT302      0.2431
     13  O4        48.2630   61.6880   98.1130 O.3   302  LTT302     -0.2148
     14  O2        49.0800   65.0100   97.1740 O.3   302  LTT302     -0.3239
     15  C6        49.5390   65.9600   98.1450 C.3   302  LTT302      0.1966
@<TRIPOS>BOND
     1    12    11    1
     2    12    13    1
     3    14    11    1
     4    14    15    1
     5    11    10    1
     6    15     9    1
     7    10     9    1
     8     9     8    1
     9     7     8    1
    10     7     6    2
    11     8     2   am
    12     6     4    1
    13     2     1    2
    14     2     3    2
    15     4     3    2
    16     4     5    1
