@<TRIPOS>MOLECULE
2noa_ADP_A_1.pdb
 27 29 0 0 0
SMALL
GASTEIGER

@<TRIPOS>ATOM
      1  PB        47.8790   55.6330   98.0210 P.3   301  ADP301      0.5373
      2  O1B       48.6230   56.8930   97.7880 O.3   301  ADP301     -0.1143
      3  O2B       46.6680   55.5240   97.1410 O.2   301  ADP301     -0.2221
      4  O3B       47.5960   55.4720   99.4980 O.3   301  ADP301     -0.1143
      5  PA        48.9800   53.4460   96.4140 P.3   301  ADP301      0.2231
      6  O1A       47.8280   52.4970   96.5330 O.3   301  ADP301     -0.4370
      7  O2A       49.2220   54.2090   95.1520 O.2   301  ADP301     -0.5169
      8  O3A       48.9690   54.4480   97.6960 O.3   301  ADP301     -0.2261
      9  O5'       50.3000   52.6240   96.7340 O.3   301  ADP301     -0.3111
     10  C5'       51.5910   53.2660   96.7290 C.3   301  ADP301      0.1813
     11  C4'       52.6770   52.2940   96.1860 C.3   301  ADP301      0.1821
     12  O4'       52.7800   51.2530   97.1330 O.3   301  ADP301     -0.3135
     13  C3'       52.3810   51.6520   94.8200 C.3   301  ADP301      0.2184
     14  O3'       53.6260   51.4900   94.1020 O.3   301  ADP301     -0.2174
     15  C2'       51.7690   50.3190   95.2030 C.3   301  ADP301      0.2570
     16  O2'       51.9470   49.3210   94.2300 O.3   301  ADP301     -0.2130
     17  C1'       52.4960   49.9610   96.4890 C.3   301  ADP301      0.3186
     18  N9        51.7750   49.2540   97.5610 N.pl3 301  ADP301     -0.1439
     19  C8        50.6260   49.6150   98.1960 C.3   301  ADP301      0.3377
     20  N7        50.3520   48.7360   99.2080 N.2   301  ADP301     -0.2095
     21  C5        51.3230   47.8130   99.2200 C.2   301  ADP301      0.2526
     22  C6        51.6130   46.6220  100.0670 C.2   301  ADP301      0.4393
     23  N6        50.8350   46.2870  101.0300 N.pl3 301  ADP301      0.2180
     24  N1        52.7300   45.9230   99.7540 N.2   301  ADP301      0.0021
     25  C2        53.6400   46.2770   98.7030 C.3   301  ADP301      0.5254
     26  N3        53.3040   47.4650   97.9120 N.2   301  ADP301     -0.0055
     27  C4        52.1870   48.1740   98.2150 C.2   301  ADP301      0.3518
@<TRIPOS>BOND
     1    14    13    1
     2    16    15    1
     3    13    15    1
     4    13    11    1
     5     7     5    2
     6    15    17    1
     7    11    10    1
     8    11    12    1
     9     5     6    1
    10     5     9    1
    11     5     8    1
    12    17    12    1
    13    17    18    1
    14    10     9    1
    15     3     1    2
    16    18    19    1
    17    18    27    1
    18     8     1    1
    19     2     1    1
    20    26    27    2
    21    26    25    1
    22     1     4    1
    23    19    20    1
    24    27    21    1
    25    25    24    1
    26    20    21    2
    27    21    22    1
    28    24    22    2
    29    22    23    1
