@<TRIPOS>MOLECULE
2noa_3TC_A_1.pdb
 15 16 0 0 0
SMALL
GASTEIGER

@<TRIPOS>ATOM
      1  O1        48.4810   67.8830   99.8770 O.2   302  3TC302     -0.1925
      2  C1        47.4010   67.3540   99.7870 C.1   302  3TC302      0.2756
      3  N2        46.2880   68.0460  100.0980 N.2   302  3TC302     -0.3024
      4  C3        45.1040   67.4350   99.9890 C.2   302  3TC302      0.2346
      5  N3        44.0180   68.1670  100.3080 N.pl3 302  3TC302     -0.0921
      6  C5        44.9890   66.1050   99.4960 C.2   302  3TC302      0.0687
      7  C7        46.1690   65.4230   99.1610 C.2   302  3TC302      0.0835
      8  N1        47.3480   66.0480   99.2990 N.am  302  3TC302     -0.1795
      9  C4        48.6470   65.4300   98.9660 C.3   302  3TC302      0.2182
     10  C6        49.1780   66.0350   97.6490 C.3   302  3TC302      0.1118
     11  O2        48.3860   64.0570   98.7770 O.3   302  3TC302     -0.3247
     12  C2        48.8510   63.5350   97.5250 C.3   302  3TC302      0.1975
     13  S1        48.6330   64.9100   96.4300 S.3   302  3TC302     -0.1048
     14  C8        48.0440   62.3370   97.1130 C.3   302  3TC302      0.2227
     15  O3        48.1670   61.4150   98.1920 O.3   302  3TC302     -0.2167
@<TRIPOS>BOND
     1    13    12    1
     2    13    10    1
     3    14    12    1
     4    14    15    1
     5    12    11    1
     6    10     9    1
     7    11     9    1
     8     9     8    1
     9     7     8    1
    10     7     6    2
    11     8     2   am
    12     6     4    1
    13     2     1    2
    14     2     3    2
    15     4     3    2
    16     4     5    1
