@<TRIPOS>MOLECULE
2nod_H4B_A_1.pdb
 17 18 0 0 0
SMALL
GASTEIGER

@<TRIPOS>ATOM
      1  N1       113.3080  111.5120   32.0150 N.2   902  H4B902     -0.2672
      2  C2       114.5070  112.0450   32.2600 C.1   902  H4B902      0.2609
      3  N2       115.2180  112.5180   31.2470 N.pl3 902  H4B902     -0.0220
      4  N3       115.0030  112.1250   33.5000 N.2   902  H4B902     -0.2466
      5  C4       114.2960  111.6740   34.5350 C.1   902  H4B902      0.2569
      6  O4       114.7140  111.6920   35.6920 O.2   902  H4B902     -0.2052
      7  C4A      113.0070  111.1540   34.3370 C.2   902  H4B902      0.2989
      8  C8A      112.5280  111.0970   33.0100 C.1   902  H4B902      0.1401
      9  N5       112.2640  110.7430   35.3530 N.2   902  H4B902     -0.3830
     10  N8       111.3030  110.6210   32.7500 N.2   902  H4B902     -0.1992
     11  C6       110.9760  110.1470   35.0900 C.2   902  H4B902      0.1466
     12  C7       110.4090  110.3600   33.7740 C.3   902  H4B902      0.1940
     13  C9       110.2710  109.6830   36.3510 C.3   902  H4B902      0.2313
     14  O9       109.8840  110.8170   37.1270 O.3   902  H4B902     -0.2130
     15  C10      109.0720  108.7870   36.1140 C.3   902  H4B902      0.1888
     16  C11      108.5050  108.3130   37.4470 C.3   902  H4B902      0.0387
     17  O10      109.4810  107.6680   35.3200 O.3   902  H4B902     -0.2200
@<TRIPOS>BOND
     1     3     2    1
     2     1     2    2
     3     1     8    2
     4     2     4    2
     5    10     8    2
     6    10    12    1
     7     8     7    1
     8     4     5    2
     9    12    11    1
    10     7     5    1
    11     7     9    2
    12     5     6    2
    13    11     9    2
    14    11    13    1
    15    17    15    1
    16    15    13    1
    17    15    16    1
    18    13    14    1
