@<TRIPOS>MOLECULE
2nod_HEM_A_1.pdb
 43 50 0 0 0
SMALL
GASTEIGER

@<TRIPOS>ATOM
      1  CHA      121.2040  110.3790   30.3100 C.2   901  HEM901      0.0000
      2  CHB      122.3240  114.1790   27.6820 C.2   901  HEM901      0.0000
      3  CHC      126.5300  112.3150   26.8360 C.2   901  HEM901      0.0000
      4  CHD      125.2690  108.2770   28.9810 C.2   901  HEM901      0.0000
      5  C1A      121.1700  111.6400   29.7570 C.ar  901  HEM901      0.0000
      6  C2A      120.1350  112.6320   29.9830 C.ar  901  HEM901      0.0000
      7  C3A      120.4240  113.6660   29.1940 C.ar  901  HEM901      0.0000
      8  C4A      121.6530  113.3340   28.5290 C.ar  901  HEM901      0.0000
      9  CMA      119.5800  114.8960   28.9420 C.3   901  HEM901      0.0000
     10  CAA      119.0250  112.5550   30.9920 C.3   901  HEM901      0.0000
     11  CBA      119.6230  112.9460   32.3240 C.3   901  HEM901      0.0000
     12  CGA      118.6440  112.8160   33.4740 C.2   901  HEM901      0.0000
     13  O1A      119.0780  112.3790   34.5580 O.co2 901  HEM901      0.0000
     14  O2A      117.4460  113.1470   33.3040 O.co2 901  HEM901      0.0000
     15  C1B      123.5390  113.9380   27.1350 C.2   901  HEM901      0.0000
     16  C2B      124.2170  114.9080   26.3420 C.2   901  HEM901      0.0000
     17  C3B      125.4660  114.4320   26.1060 C.2   901  HEM901      0.0000
     18  C4B      125.4640  113.1290   26.7810 C.2   901  HEM901      0.0000
     19  CMB      123.5860  116.1850   25.7880 C.3   901  HEM901      0.0000
     20  CAB      126.4640  115.1430   25.4100 C.3   901  HEM901      0.0000
     21  CBB      127.6340  114.6800   24.8390 C.3   901  HEM901      0.0000
     22  C1C      126.5630  111.1000   27.4180 C.ar  901  HEM901      0.0000
     23  C2C      127.7640  110.2820   27.4170 C.ar  901  HEM901      0.0000
     24  C3C      127.4250  109.0780   27.9820 C.ar  901  HEM901      0.0000
     25  C4C      126.0090  109.2400   28.3230 C.ar  901  HEM901      0.0000
     26  CMC      129.1180  110.8040   26.9290 C.3   901  HEM901      0.0000
     27  CAC      128.1910  107.9350   28.2380 C.3   901  HEM901      0.0000
     28  CBC      129.4310  107.5760   27.7050 C.3   901  HEM901      0.0000
     29  C1D      123.9760  108.4350   29.4500 C.2   901  HEM901      0.0000
     30  C2D      123.2900  107.4770   30.3100 C.2   901  HEM901      0.0000
     31  C3D      122.2070  108.1060   30.7060 C.2   901  HEM901      0.0000
     32  C4D      122.1720  109.4170   30.1000 C.2   901  HEM901      0.0000
     33  CMD      123.6520  106.0590   30.6560 C.3   901  HEM901      0.0000
     34  CAD      121.2340  107.5520   31.6650 C.3   901  HEM901      0.0000
     35  CBD      121.5200  108.0980   33.0410 C.3   901  HEM901      0.0000
     36  CGD      120.6050  107.5170   34.0940 C.2   901  HEM901      0.0000
     37  O1D      120.4810  108.1210   35.1810 O.co2 901  HEM901      0.0000
     38  O2D      120.0120  106.4470   33.8400 O.co2 901  HEM901      0.0000
     39  NA       122.0900  112.1040   28.8890 N.ar  901  HEM901      0.0000
     40  NB       124.2800  112.8480   27.3750 N.2   901  HEM901      0.0000
     41  NC       125.5130  110.4840   27.9870 N.ar  901  HEM901      0.0000
     42  ND       123.2540  109.5960   29.3230 N.2   901  HEM901      0.0000
     43 FE        123.5700  111.0590   28.0090 Fe    901  HEM901      0.0000
@<TRIPOS>BOND
     1    21    20    1
     2    20    17    1
     3    19    16    1
     4    17    16    2
     5    17    18    1
     6    16    15    1
     7    18     3    2
     8    18    40    1
     9     3    22    1
    10    26    23    1
    11    15    40    2
    12    15     2    1
    13    40    43    1
    14    23    22   ar
    15    23    24   ar
    16    22    41   ar
    17     2     8    2
    18    28    27    1
    19    24    27    1
    20    24    25   ar
    21    41    43    1
    22    41    25   ar
    23    43    39    1
    24    43    42    1
    25    25     4    1
    26     8    39   ar
    27     8     7   ar
    28    39     5   ar
    29     9     7    1
    30     4    29    2
    31     7     6   ar
    32    42    29    1
    33    42    32    2
    34    29    30    1
    35     5     6   ar
    36     5     1    2
    37     6    10    1
    38    32     1    1
    39    32    31    1
    40    30    33    1
    41    30    31    2
    42    31    34    1
    43    10    11    1
    44    34    35    1
    45    11    12    1
    46    35    36    1
    47    14    12   ar
    48    12    13   ar
    49    38    36   ar
    50    36    37   ar
