@<TRIPOS>MOLECULE
2nom_DUT_A_1.pdb
 28 29 0 0 0
SMALL
GASTEIGER

@<TRIPOS>ATOM
      1  N1       -21.4400   -2.0180   -3.2860 N.am  501  DUT501     -0.1790
      2  C2       -22.6240   -2.4710   -2.6510 C.1   501  DUT501      0.2844
      3  N3       -23.5240   -1.5440   -2.2560 N.2   501  DUT501     -0.2452
      4  C4       -23.3010   -0.2260   -2.4370 C.1   501  DUT501      0.2182
      5  C5       -22.1340    0.2310   -3.0360 C.2   501  DUT501      0.1242
      6  C6       -21.2100   -0.6980   -3.4570 C.2   501  DUT501      0.0928
      7  O2       -22.8660   -3.7030   -2.4620 O.2   501  DUT501     -0.1918
      8  O4       -24.1610    0.5850   -2.0520 O.2   501  DUT501     -0.2085
      9  C1'      -20.4370   -2.9870   -3.7340 C.3   501  DUT501      0.2090
     10  C2'      -20.8800   -3.5020   -5.0920 C.3   501  DUT501      0.0874
     11  C3'      -20.1600   -2.5480   -6.0210 C.3   501  DUT501      0.1857
     12  C4'      -18.8440   -2.2650   -5.2860 C.3   501  DUT501      0.1773
     13  O4'      -19.1860   -2.2960   -3.8970 O.3   501  DUT501     -0.3339
     14  O3'      -20.0450   -3.0990   -7.3340 O.3   501  DUT501     -0.2203
     15  C5'      -18.1440   -0.9380   -5.5470 C.3   501  DUT501      0.1812
     16  O5'      -19.0280    0.1090   -5.9430 O.3   501  DUT501     -0.3112
     17  PA       -18.7420    1.6660   -5.5990 P.3   501  DUT501      0.2189
     18  O1A      -17.9730    1.7660   -4.3240 O.3   501  DUT501     -0.4371
     19  O2A      -20.0530    2.4470   -5.6760 O.2   501  DUT501     -0.5170
     20  O3A      -17.9990    2.2320   -6.8920 O.3   501  DUT501     -0.2700
     21  PB       -16.8320    1.5900   -7.7510 P.3   501  DUT501      0.2277
     22  O1B      -15.6950    1.2450   -6.7860 O.3   501  DUT501     -0.4368
     23  O2B      -17.4360    0.4830   -8.5770 O.2   501  DUT501     -0.5168
     24  O3B      -16.4790    2.8030   -8.7630 O.3   501  DUT501     -0.2258
     25  PG       -15.5760    4.1010   -8.3700 P.3   501  DUT501      0.5373
     26  O1G      -16.5800    5.1360   -7.8950 O.3   501  DUT501     -0.1143
     27  O2G      -14.9130    4.5000   -9.6580 O.2   501  DUT501     -0.2221
     28  O3G      -14.6470    3.5900   -7.3150 O.3   501  DUT501     -0.1143
@<TRIPOS>BOND
     1    27    25    2
     2    24    25    1
     3    24    21    1
     4    23    21    2
     5    25    26    1
     6    25    28    1
     7    21    20    1
     8    21    22    1
     9    14    11    1
    10    20    17    1
    11    11    12    1
    12    11    10    1
    13    16    17    1
    14    16    15    1
    15    19    17    2
    16    17    18    1
    17    15    12    1
    18    12    13    1
    19    10     9    1
    20    13     9    1
    21     9     1    1
    22     6     1    1
    23     6     5    2
    24     1     2   am
    25     5     4    1
    26     2     7    2
    27     2     3    2
    28     4     3    2
    29     4     8    2
