@<TRIPOS>MOLECULE
2nos_HEM_A_1.pdb
 43 50 0 0 0
SMALL
GASTEIGER

@<TRIPOS>ATOM
      1 FE         67.7140   -9.7530   55.9860 Fe    901  HEM901      0.0000
      2  CHA       70.9810   -9.9500   55.1930 C.2   901  HEM901      0.0000
      3  CHB       68.0770   -6.4120   56.4490 C.2   901  HEM901      0.0000
      4  CHC       64.4190   -9.4680   56.3430 C.2   901  HEM901      0.0000
      5  CHD       67.4740  -13.1230   55.9850 C.2   901  HEM901      0.0000
      6  NA        69.2160   -8.4610   55.8970 N.2   901  HEM901      0.0000
      7  C1A       70.5200   -8.6980   55.5230 C.2   901  HEM901      0.0000
      8  C2A       71.3160   -7.4730   55.5300 C.2   901  HEM901      0.0000
      9  C3A       70.4660   -6.4930   55.8990 C.2   901  HEM901      0.0000
     10  C4A       69.1960   -7.1110   56.1330 C.2   901  HEM901      0.0000
     11  CMA       70.7770   -5.0120   56.0390 C.3   901  HEM901      0.0000
     12  CAA       72.8080   -7.3050   55.2520 C.3   901  HEM901      0.0000
     13  CBA       73.1860   -6.9290   53.8240 C.3   901  HEM901      0.0000
     14  CGA       72.7720   -7.9820   52.8050 C.2   901  HEM901      0.0000
     15  O1A       73.2170   -9.1440   52.9290 O.co2 901  HEM901      0.0000
     16  O2A       72.0000   -7.6500   51.8780 O.co2 901  HEM901      0.0000
     17  NB        66.5140   -8.2680   56.3660 N.ar  901  HEM901      0.0000
     18  C1B       66.8240   -6.9450   56.5210 C.ar  901  HEM901      0.0000
     19  C2B       65.6550   -6.1360   56.6510 C.ar  901  HEM901      0.0000
     20  C3B       64.6030   -6.9600   56.6180 C.ar  901  HEM901      0.0000
     21  C4B       65.1470   -8.3020   56.4520 C.ar  901  HEM901      0.0000
     22  CMB       65.6250   -4.6160   56.7740 C.3   901  HEM901      0.0000
     23  CAB       63.2940   -6.5170   56.6770 C.2   901  HEM901      0.0000
     24  CBB       62.3180   -7.1240   57.4220 C.2   901  HEM901      0.0000
     25  NC        66.2550  -11.0310   56.0990 N.2   901  HEM901      0.0000
     26  C1C       64.9190  -10.7380   56.1610 C.2   901  HEM901      0.0000
     27  C2C       64.1130  -11.9270   56.0580 C.2   901  HEM901      0.0000
     28  C3C       64.9790  -12.9880   56.0070 C.2   901  HEM901      0.0000
     29  C4C       66.3040  -12.4040   56.0520 C.2   901  HEM901      0.0000
     30  CMC       62.5960  -11.9280   56.0340 C.3   901  HEM901      0.0000
     31  CAC       64.7390  -14.3610   55.9540 C.3   901  HEM901      0.0000
     32  CBC       63.5970  -15.0490   56.3270 C.3   901  HEM901      0.0000
     33  ND        68.9500  -11.2130   55.6790 N.ar  901  HEM901      0.0000
     34  C1D       68.7120  -12.5630   55.7860 C.ar  901  HEM901      0.0000
     35  C2D       69.8740  -13.3160   55.4410 C.ar  901  HEM901      0.0000
     36  C3D       70.8300  -12.4300   55.1070 C.ar  901  HEM901      0.0000
     37  C4D       70.2600  -11.1230   55.2680 C.ar  901  HEM901      0.0000
     38  CMD       70.0320  -14.8250   55.4910 C.3   901  HEM901      0.0000
     39  CAD       72.2580  -12.7870   54.7120 C.3   901  HEM901      0.0000
     40  CBD       73.3990  -12.2090   55.5470 C.3   901  HEM901      0.0000
     41  CGD       73.4410  -12.7300   56.9780 C.2   901  HEM901      0.0000
     42  O1D       72.3810  -13.0720   57.5310 O.co2 901  HEM901      0.0000
     43  O2D       74.5380  -12.7890   57.5690 O.co2 901  HEM901      0.0000
@<TRIPOS>BOND
     1    16    14   ar
     2    14    15   ar
     3    14    13    1
     4    13    12    1
     5    39    36    1
     6    39    40    1
     7    36    37   ar
     8    36    35   ar
     9     2    37    2
    10     2     7    1
    11    12     8    1
    12    37    33   ar
    13    35    38    1
    14    35    34   ar
    15     7     8    1
    16     7     6    2
    17     8     9    2
    18    40    41    1
    19    33    34   ar
    20    33     1    1
    21    34     5    2
    22     6     1    1
    23     6    10    1
    24     9    11    1
    25     9    10    1
    26    31    28    1
    27    31    32    1
    28     5    29    1
    29     1    25    1
    30     1    17    1
    31    28    29    1
    32    28    27    2
    33    30    27    1
    34    29    25    2
    35    27    26    1
    36    25    26    1
    37    10     3    2
    38    26     4    2
    39     4    21    1
    40    17    21   ar
    41    17    18   ar
    42     3    18    1
    43    21    20   ar
    44    18    19   ar
    45    20    19   ar
    46    20    23    1
    47    19    22    1
    48    23    24    2
    49    41    42   ar
    50    41    43   ar
