@<TRIPOS>MOLECULE
2nox_HEM_A_1.pdb
 43 50 0 0 0
SMALL
GASTEIGER

@<TRIPOS>ATOM
      1  CHA       74.3000  106.1740   80.2990 C.2   500  HEM500      0.0000
      2  CHB       69.7010  107.6220   80.8570 C.2   500  HEM500      0.0000
      3  CHC       71.0920  111.7790   82.9660 C.2   500  HEM500      0.0000
      4  CHD       75.7520  110.4520   82.1400 C.2   500  HEM500      0.0000
      5  C1A       72.9320  106.2130   80.2910 C.ar  500  HEM500      0.0000
      6  C2A       72.0590  105.1550   79.8100 C.ar  500  HEM500      0.0000
      7  C3A       70.7950  105.5560   79.9550 C.ar  500  HEM500      0.0000
      8  C4A       70.8200  106.8830   80.5440 C.ar  500  HEM500      0.0000
      9  CMA       69.5450  104.7140   79.6010 C.3   500  HEM500      0.0000
     10  CAA       72.5070  103.7830   79.2560 C.3   500  HEM500      0.0000
     11  CBA       73.1670  103.9010   77.9070 C.3   500  HEM500      0.0000
     12  CGA       72.0510  104.0110   76.9310 C.2   500  HEM500      0.0000
     13  O1A       71.3350  102.9950   76.7080 O.co2 500  HEM500      0.0000
     14  O2A       71.9000  105.1240   76.3830 O.co2 500  HEM500      0.0000
     15  C1B       69.6610  108.8770   81.4240 C.2   500  HEM500      0.0000
     16  C2B       68.4800  109.7110   81.5850 C.2   500  HEM500      0.0000
     17  C3B       68.8460  110.8520   82.1620 C.2   500  HEM500      0.0000
     18  C4B       70.2820  110.7950   82.3950 C.2   500  HEM500      0.0000
     19  CMB       67.0510  109.3250   81.1670 C.3   500  HEM500      0.0000
     20  CAB       67.9130  112.0370   82.5100 C.2   500  HEM500      0.0000
     21  CBB       67.0130  111.9540   83.4870 C.2   500  HEM500      0.0000
     22  C1C       72.4850  111.7800   82.8860 C.ar  500  HEM500      0.0000
     23  C2C       73.3400  112.8670   83.2970 C.ar  500  HEM500      0.0000
     24  C3C       74.6200  112.5210   83.0630 C.ar  500  HEM500      0.0000
     25  C4C       74.6260  111.1870   82.4930 C.ar  500  HEM500      0.0000
     26  CMC       72.7910  114.1880   83.8840 C.3   500  HEM500      0.0000
     27  CAC       75.8860  113.3800   83.3480 C.2   500  HEM500      0.0000
     28  CBC       76.9180  113.4170   82.4810 C.2   500  HEM500      0.0000
     29  C1D       75.8010  109.1610   81.6340 C.2   500  HEM500      0.0000
     30  C2D       77.0020  108.4070   81.3770 C.2   500  HEM500      0.0000
     31  C3D       76.5510  107.0790   80.7810 C.2   500  HEM500      0.0000
     32  C4D       75.1210  107.1660   80.7460 C.2   500  HEM500      0.0000
     33  CMD       78.4350  108.8830   81.6050 C.3   500  HEM500      0.0000
     34  CAD       77.4020  105.8860   80.3330 C.3   500  HEM500      0.0000
     35  CBD       77.5920  105.1800   81.6550 C.3   500  HEM500      0.0000
     36  CGD       78.1790  103.8020   81.4330 C.2   500  HEM500      0.0000
     37  O1D       78.5840  103.1550   82.4500 O.co2 500  HEM500      0.0000
     38  O2D       78.2640  103.3850   80.2430 O.co2 500  HEM500      0.0000
     39  NA        72.1550  107.2550   80.7430 N.ar  500  HEM500      0.0000
     40  NB        70.7210  109.5680   81.9360 N.2   500  HEM500      0.0000
     41  NC        73.3090  110.7540   82.4060 N.ar  500  HEM500      0.0000
     42  ND        74.7270  108.3950   81.2250 N.2   500  HEM500      0.0000
     43 FE         72.7550  108.8410   81.7390 Fe    500  HEM500      0.0000
@<TRIPOS>BOND
     1    14    12   ar
     2    13    12   ar
     3    12    11    1
     4    11    10    1
     5    10     6    1
     6     9     7    1
     7     6     7   ar
     8     6     5   ar
     9     7     8   ar
    10    38    36   ar
    11     5     1    2
    12     5    39   ar
    13     1    32    1
    14    34    31    1
    15    34    35    1
    16     8    39   ar
    17     8     2    2
    18    39    43    1
    19    32    31    1
    20    32    42    2
    21    31    30    2
    22     2    15    1
    23    19    16    1
    24    42    29    1
    25    42    43    1
    26    30    33    1
    27    30    29    1
    28    15    16    1
    29    15    40    2
    30    36    35    1
    31    36    37   ar
    32    16    17    2
    33    29     4    2
    34    43    40    1
    35    43    41    1
    36    40    18    1
    37     4    25    1
    38    17    18    1
    39    17    20    1
    40    18     3    2
    41    41    25   ar
    42    41    22   ar
    43    28    27    2
    44    25    24   ar
    45    20    21    2
    46    22     3    1
    47    22    23   ar
    48    24    23   ar
    49    24    27    1
    50    23    26    1
