@<TRIPOS>MOLECULE
2np1_HEM_A_1.pdb
 43 50 0 0 0
SMALL
GASTEIGER

@<TRIPOS>ATOM
      1 FE         25.4290   25.2330   62.3260 Fe    350  HEM350      0.0000
      2  CHA       24.3650   24.9150   59.1860 C.2   350  HEM350      0.0000
      3  CHB       28.6890   26.0630   61.2200 C.2   350  HEM350      0.0000
      4  CHC       26.5060   25.2900   65.5080 C.2   350  HEM350      0.0000
      5  CHD       22.1090   24.9960   63.4400 C.2   350  HEM350      0.0000
      6  NA        26.3930   25.3560   60.6540 N.ar  350  HEM350      0.0000
      7  C1A       25.7830   25.1300   59.4110 C.ar  350  HEM350      0.0000
      8  C2A       26.7850   25.2110   58.3230 C.ar  350  HEM350      0.0000
      9  C3A       27.9780   25.5430   58.8750 C.ar  350  HEM350      0.0000
     10  C4A       27.7180   25.6950   60.3180 C.ar  350  HEM350      0.0000
     11  CMA       29.2840   25.6520   58.1090 C.3   350  HEM350      0.0000
     12  CAA       26.5680   24.8950   56.8350 C.3   350  HEM350      0.0000
     13  CBA       26.4860   23.3880   56.5370 C.3   350  HEM350      0.0000
     14  CGA       26.5880   23.0440   55.0420 C.2   350  HEM350      0.0000
     15  O1A       25.6040   23.3500   54.3430 O.co2 350  HEM350      0.0000
     16  O2A       27.6200   22.4740   54.5720 O.co2 350  HEM350      0.0000
     17  NB        27.1850   25.6420   63.2440 N.2   350  HEM350      0.0000
     18  C1B       28.4320   25.9710   62.6400 C.2   350  HEM350      0.0000
     19  C2B       29.4670   26.1150   63.6340 C.2   350  HEM350      0.0000
     20  C3B       28.8410   25.8390   64.8140 C.2   350  HEM350      0.0000
     21  C4B       27.4290   25.6040   64.5650 C.2   350  HEM350      0.0000
     22  CMB       30.8190   26.6020   63.2420 C.3   350  HEM350      0.0000
     23  CAB       29.3390   25.6910   66.0880 C.2   350  HEM350      0.0000
     24  CBB       30.5410   26.1760   66.3980 C.2   350  HEM350      0.0000
     25  NC        24.5570   25.0900   64.0580 N.ar  350  HEM350      0.0000
     26  C1C       25.1820   25.1000   65.3380 C.ar  350  HEM350      0.0000
     27  C2C       24.1930   25.0100   66.4700 C.ar  350  HEM350      0.0000
     28  C3C       22.9300   25.0990   65.9090 C.ar  350  HEM350      0.0000
     29  C4C       23.1430   25.0910   64.3890 C.ar  350  HEM350      0.0000
     30  CMC       24.4120   24.7480   67.9850 C.3   350  HEM350      0.0000
     31  CAC       21.7070   25.3190   66.6070 C.3   350  HEM350      0.0000
     32  CBC       21.3580   26.6580   66.5120 C.3   350  HEM350      0.0000
     33  ND        23.6060   24.9600   61.4820 N.2   350  HEM350      0.0000
     34  C1D       22.3630   24.8900   62.0700 C.2   350  HEM350      0.0000
     35  C2D       21.3410   24.7240   61.0450 C.2   350  HEM350      0.0000
     36  C3D       21.9790   24.7320   59.8350 C.2   350  HEM350      0.0000
     37  C4D       23.3660   24.8530   60.1210 C.2   350  HEM350      0.0000
     38  CMD       19.8610   24.7400   61.3980 C.3   350  HEM350      0.0000
     39  CAD       21.3740   24.8670   58.4270 C.3   350  HEM350      0.0000
     40  CBD       21.2700   26.2350   57.6410 C.3   350  HEM350      0.0000
     41  CGD       20.1370   27.1980   58.1510 C.2   350  HEM350      0.0000
     42  O1D       18.9190   26.8380   58.0790 O.co2 350  HEM350      0.0000
     43  O2D       20.4720   28.3250   58.6210 O.co2 350  HEM350      0.0000
@<TRIPOS>BOND
     1    15    14   ar
     2    16    14   ar
     3    14    13    1
     4    13    12    1
     5    12     8    1
     6    40    41    1
     7    40    39    1
     8    42    41   ar
     9    11     9    1
    10    41    43   ar
    11     8     9   ar
    12     8     7   ar
    13    39    36    1
    14     9    10   ar
    15     2     7    2
    16     2    37    1
    17     7     6   ar
    18    36    37    1
    19    36    35    2
    20    37    33    2
    21    10     6   ar
    22    10     3    2
    23     6     1    1
    24    35    38    1
    25    35    34    1
    26     3    18    1
    27    33    34    1
    28    33     1    1
    29    34     5    2
    30     1    17    1
    31     1    25    1
    32    18    17    2
    33    18    19    1
    34    22    19    1
    35    17    21    1
    36     5    29    1
    37    19    20    2
    38    25    29   ar
    39    25    26   ar
    40    29    28   ar
    41    21    20    1
    42    21     4    2
    43    20    23    1
    44    26     4    1
    45    26    27   ar
    46    28    27   ar
    47    28    31    1
    48    23    24    2
    49    27    30    1
    50    32    31    1
