@<TRIPOS>MOLECULE
2np5_NDS_A_1.pdb
 12 11 0 0 0
SMALL
GASTEIGER

@<TRIPOS>ATOM
      1  O3         9.6550   18.9770  -17.9060 O.3   601  NDS601     -0.3075
      2  S1         9.9270   17.9710  -16.8390 S.3   601  NDS601     -0.1961
      3  O1         9.2030   18.4310  -15.6370 O.3   601  NDS601     -0.3075
      4  O2         9.4470   16.6180  -17.2340 O.3   601  NDS601     -0.3075
      5  C4        11.5870   17.9320  -16.5890 C.3   601  NDS601      0.1031
      6  C3        12.1690   19.2950  -16.1970 C.3   601  NDS601     -0.0007
      7  C2        13.6530   19.1490  -15.8520 C.3   601  NDS601     -0.0715
      8  N1        14.2520   20.1910  -14.9610 N.4   601  NDS601      0.3871
      9  C1        13.4980   20.4430  -13.7040 C.3   601  NDS601     -0.0959
     10  C7        15.5840   19.6500  -14.6220 C.3   601  NDS601     -0.0959
     11  C5        14.4320   21.4800  -15.6820 C.3   601  NDS601     -0.0733
     12  C6        15.6520   22.2480  -15.1680 C.3   601  NDS601     -0.0244
@<TRIPOS>BOND
     1     1     2    1
     2     4     2    1
     3     2     5    1
     4     2     3    1
     5     5     6    1
     6     6     7    1
     7     7     8    1
     8    11    12    1
     9    11     8    1
    10     8    10    1
    11     8     9    1
