@<TRIPOS>MOLECULE
2np6_NEA_A_1.pdb
 22 24 0 0 0
SMALL
GASTEIGER

@<TRIPOS>ATOM
      1  N         14.8860   -5.8320   37.0420 N.3   601  NEA601     -0.1304
      2  CB        14.9790   -7.0820   37.8520 C.3   601  NEA601      0.1209
      3  CG        14.2670   -6.9690   39.1990 C.3   601  NEA601      0.0781
      4  SD        14.6500   -5.5020   40.2040 S.3   601  NEA601     -0.1360
      5  C5'       16.0820   -6.3150   40.9390 C.3   601  NEA601      0.0899
      6  C4'       17.3860   -5.6800   40.4680 C.3   601  NEA601      0.1630
      7  O4'       17.2920   -4.2850   40.6340 O.3   601  NEA601     -0.3153
      8  C3'       18.5890   -6.1380   41.2820 C.3   601  NEA601      0.2168
      9  O3'       19.6060   -6.6130   40.4190 O.3   601  NEA601     -0.2175
     10  C2'       19.0130   -4.8900   42.0490 C.3   601  NEA601      0.2569
     11  O2'       20.4080   -4.8390   42.2590 O.3   601  NEA601     -0.2130
     12  C1'       18.5070   -3.7750   41.1480 C.3   601  NEA601      0.3185
     13  N9        18.2490   -2.4520   41.7690 N.pl3 601  NEA601     -0.1439
     14  C8        17.5060   -2.1730   42.8850 C.3   601  NEA601      0.3377
     15  N7        17.4950   -0.8350   43.0880 N.2   601  NEA601     -0.2095
     16  C5        18.2100   -0.2450   42.1080 C.2   601  NEA601      0.2526
     17  C6        18.5280    1.0850   41.8250 C.2   601  NEA601      0.4393
     18  N6        18.1060    2.0940   42.5860 N.pl3 601  NEA601      0.2180
     19  N1        19.3090    1.3620   40.7180 N.2   601  NEA601      0.0021
     20  C2        19.7630    0.3520   39.8960 C.3   601  NEA601      0.5254
     21  N3        19.4490   -0.9520   40.1830 N.2   601  NEA601     -0.0055
     22  C4        18.6850   -1.2530   41.2680 C.2   601  NEA601      0.3518
@<TRIPOS>BOND
     1     1     2    1
     2     2     3    1
     3     3     4    1
     4    20    21    1
     5    20    19    1
     6    21    22    2
     7     4     5    1
     8     9     8    1
     9     6     7    1
    10     6     5    1
    11     6     8    1
    12     7    12    1
    13    19    17    2
    14    12    13    1
    15    12    10    1
    16    22    13    1
    17    22    16    1
    18     8    10    1
    19    13    14    1
    20    17    16    1
    21    17    18    1
    22    10    11    1
    23    16    15    2
    24    14    15    1
