@<TRIPOS>MOLECULE
2np7_NEA_A_1.pdb
 22 24 0 0 0
SMALL
GASTEIGER

@<TRIPOS>ATOM
      1  N        -47.2060    5.1280   11.3240 N.3   601  NEA601     -0.1304
      2  CB       -46.9670    6.1770   12.3530 C.3   601  NEA601      0.1209
      3  CG       -46.1000    5.7010   13.5300 C.3   601  NEA601      0.0781
      4  SD       -46.5420    4.0720   14.1780 S.3   601  NEA601     -0.1360
      5  C5'      -47.9380    4.6420   15.2080 C.3   601  NEA601      0.0899
      6  C4'      -49.3160    4.1250   14.7580 C.3   601  NEA601      0.1630
      7  O4'      -49.3030    2.7190   14.5680 O.3   601  NEA601     -0.3153
      8  C3'      -50.4370    4.3810   15.7680 C.3   601  NEA601      0.2168
      9  O3'      -51.4950    4.9540   15.0290 O.3   601  NEA601     -0.2175
     10  C2'      -50.7760    3.0060   16.3340 C.3   601  NEA601      0.2569
     11  O2'      -52.1320    2.8160   16.6580 O.3   601  NEA601     -0.2130
     12  C1'      -50.4010    2.0760   15.2050 C.3   601  NEA601      0.3185
     13  N9       -50.0240    0.7000   15.5880 N.pl3 601  NEA601     -0.1439
     14  C8       -49.2450    0.2890   16.6460 C.3   601  NEA601      0.3377
     15  N7       -49.1330   -1.0650   16.5780 N.2   601  NEA601     -0.2095
     16  C5       -49.8350   -1.5300   15.5200 C.2   601  NEA601      0.2526
     17  C6       -50.0590   -2.8140   14.9920 C.2   601  NEA601      0.4393
     18  N6       -49.5380   -3.9050   15.5560 N.pl3 601  NEA601      0.2180
     19  N1       -50.8320   -2.9560   13.8660 N.2   601  NEA601      0.0021
     20  C2       -51.3860   -1.8630   13.2430 C.3   601  NEA601      0.5254
     21  N3       -51.1520   -0.6080   13.7700 N.2   601  NEA601     -0.0055
     22  C4       -50.3900   -0.4290   14.8830 C.2   601  NEA601      0.3518
@<TRIPOS>BOND
     1     1     2    1
     2     2     3    1
     3    20    21    1
     4    20    19    1
     5     3     4    1
     6    21    22    2
     7    19    17    2
     8     4     5    1
     9     7     6    1
    10     7    12    1
    11     6     5    1
    12     6     8    1
    13    22    16    1
    14    22    13    1
    15    17    16    1
    16    17    18    1
    17     9     8    1
    18    12    13    1
    19    12    10    1
    20    16    15    2
    21    13    14    1
    22     8    10    1
    23    10    11    1
    24    15    14    1
