@<TRIPOS>MOLECULE
2np8_CC3_A_1.pdb
 30 33 0 0 0
SMALL
GASTEIGER

@<TRIPOS>ATOM
      1  O27       -0.9040   34.5510   -1.7140 O.2   394  CC3394     -0.2730
      2  C26       -0.8280   35.3640   -2.6320 C.2   394  CC3394      0.2451
      3  C28        0.0680   36.5680   -2.4840 C.3   394  CC3394      0.0786
      4  C30       -0.7350   37.8680   -2.5400 C.3   394  CC3394      0.0096
      5  C29       -0.2580   37.3210   -1.1990 C.3   394  CC3394      0.0096
      6  N25       -1.4820   35.2480   -3.7990 N.am  394  CC3394     -0.1792
      7  C21       -2.2700   34.2020   -4.1850 C.ar  394  CC3394      0.0747
      8  C20       -2.4740   34.0020   -5.5470 C.ar  394  CC3394      0.0339
      9  C22       -2.9030   33.3450   -3.2800 C.ar  394  CC3394      0.0167
     10  C23       -3.7110   32.3040   -3.7290 C.ar  394  CC3394      0.0027
     11  C24       -3.9020   32.1200   -5.1000 C.ar  394  CC3394      0.0174
     12  C19       -3.2850   32.9700   -6.0170 C.ar  394  CC3394      0.0839
     13  N18       -3.4200   32.8550   -7.3630 N.pl3 394  CC3394     -0.1357
     14  C16       -4.0990   31.9260   -8.0810 C.1   394  CC3394      0.1709
     15  N15       -4.0400   32.0200   -9.4300 N.2   394  CC3394     -0.1683
     16  C14       -4.6800   31.1470  -10.2170 C.2   394  CC3394      0.1158
     17  C13       -5.4290   30.1220   -9.6510 C.2   394  CC3394      0.0720
     18  N17       -4.8220   30.9330   -7.5060 N.2   394  CC3394     -0.3189
     19  C12       -5.4950   30.0260   -8.2620 C.2   394  CC3394      0.2178
     20  N11       -6.2360   29.0230   -7.7240 N.pl3 394  CC3394     -0.1828
     21  C1        -6.5000   28.8060   -6.4070 C.ar  394  CC3394      0.0731
     22  C6        -7.2420   27.6750   -6.0750 C.ar  394  CC3394      0.0204
     23  C5        -7.5480   27.3850   -4.7440 C.ar  394  CC3394      0.0727
     24  C7        -8.3450   26.1460   -4.4140 C.3   394  CC3394      0.4186
     25  F10       -9.1930   25.8600   -5.3980 F     394  CC3394     -0.1659
     26  F9        -7.4890   25.1440   -4.2830 F     394  CC3394     -0.1659
     27  F8        -9.0250   26.3110   -3.2820 F     394  CC3394     -0.1659
     28  C4        -7.1010   28.2380   -3.7280 C.ar  394  CC3394      0.0039
     29  C3        -6.3590   29.3710   -4.0500 C.ar  394  CC3394      0.0013
     30  C2        -6.0650   29.6490   -5.3820 C.ar  394  CC3394      0.0166
@<TRIPOS>BOND
     1    16    17    2
     2    16    15    1
     3    17    19    1
     4    15    14    2
     5    19    20    1
     6    19    18    2
     7    14    18    2
     8    14    13    1
     9    20    21    1
    10    13    12    1
    11    21    22   ar
    12    21    30   ar
    13    22    23   ar
    14    12     8   ar
    15    12    11   ar
    16     8     7   ar
    17    25    24    1
    18    30    29   ar
    19    11    10   ar
    20    23    24    1
    21    23    28   ar
    22    24    26    1
    23    24    27    1
    24     7     6    1
    25     7     9   ar
    26    29    28   ar
    27     6     2   am
    28    10     9   ar
    29     2     3    1
    30     2     1    2
    31     4     3    1
    32     4     5    1
    33     3     5    1
