@<TRIPOS>MOLECULE
2npa_MMB_A_1.pdb
 32 34 0 0 0
SMALL
GASTEIGER

@<TRIPOS>ATOM
      1  C1        32.9610    1.9510    1.1370 C.3   1201  MMB1201     0.0434
      2  C2        34.1480    1.8870    0.1380 C.3   1201  MMB1201     0.1467
      3  C4        35.5550    2.4580    0.5490 C.2   1201  MMB1201     0.0859
      4  C6        33.6600    2.5910   -1.1260 C.2   1201  MMB1201     0.3700
      5  O2        33.2360    1.8670   -2.0170 O.co2 1201  MMB1201    -0.2452
      6  O3        33.6920    3.8220   -1.2140 O.co2 1201  MMB1201    -0.2452
      7  C7        33.1120    1.2440    2.4470 C.ar  1201  MMB1201    -0.0211
      8  C8        33.6030    1.9130    3.5910 C.ar  1201  MMB1201    -0.0011
      9  C9        33.7300    1.2340    4.8160 C.ar  1201  MMB1201     0.0366
     10  C10       33.3710   -0.1310    4.9460 C.ar  1201  MMB1201     0.1391
     11  C11       32.8750   -0.8060    3.7910 C.ar  1201  MMB1201     0.0366
     12  C12       32.7500   -0.1190    2.5580 C.ar  1201  MMB1201    -0.0011
     13  O4        33.5340   -0.6590    6.2500 O.3   1201  MMB1201    -0.4681
     14  C13       34.0510   -1.9330    6.5460 C.3   1201  MMB1201     0.2629
     15  C14       35.5380   -1.8980    6.7730 C.2   1201  MMB1201     0.1736
     16  C15       36.3640   -0.9110    7.2320 C.3   1201  MMB1201     0.2197
     17  O5        37.6240   -1.3400    7.2570 O.2   1201  MMB1201    -0.4484
     18  C3        37.6340   -2.6200    6.8190 C.2   1201  MMB1201     0.2772
     19  N1        36.4160   -3.0250    6.5070 N.2   1201  MMB1201    -0.3692
     20  C16       39.8270   -5.6420    6.1110 C.ar  1201  MMB1201     0.0002
     21  C17       38.6700   -4.8240    6.2230 C.ar  1201  MMB1201     0.0058
     22  C18       38.7920   -3.4930    6.6880 C.ar  1201  MMB1201     0.0660
     23  C19       40.0770   -2.9920    7.0390 C.ar  1201  MMB1201     0.0058
     24  C20       41.2180   -3.8090    6.9240 C.ar  1201  MMB1201     0.0002
     25  C21       41.0970   -5.1290    6.4610 C.ar  1201  MMB1201     0.0000
     26  C26       37.2700    3.6300    3.4960 C.3   1201  MMB1201     0.2384
     27  C28       39.1420    3.7170    5.2780 C.3   1201  MMB1201     0.0041
     28  C29       38.7290    3.9780    3.8180 C.3   1201  MMB1201     0.0503
     29  C32       36.6980    2.3610   -0.4710 C.3   1201  MMB1201     0.0513
     30  N4        35.8250    3.0380    1.7610 N.2   1201  MMB1201    -0.0913
     31  O1        37.0900    3.5540    2.1120 O.2   1201  MMB1201    -0.3779
     32  C5        36.1150    0.4990    7.6870 C.3   1201  MMB1201     0.0550
@<TRIPOS>BOND
     1     5     4   ar
     2     6     4   ar
     3     4     2    1
     4    29     3    1
     5     2     3    1
     6     2     1    1
     7     3    30    2
     8     1     7    1
     9    30    31    1
    10    31    26    1
    11     7    12   ar
    12     7     8   ar
    13    12    11   ar
    14    26    28    1
    15     8     9   ar
    16    11    10   ar
    17    28    27    1
    18     9    10   ar
    19    10    13    1
    20    20    21   ar
    21    20    25   ar
    22    21    22   ar
    23    13    14    1
    24    25    24   ar
    25    19    15    2
    26    19    18    2
    27    14    15    1
    28    22    18    1
    29    22    23   ar
    30    15    16    1
    31    18    17    1
    32    24    23   ar
    33    16    17    1
    34    16    32    1
