@<TRIPOS>MOLECULE
2npf_GDP_A_1.pdb
 28 30 0 0 0
SMALL
GASTEIGER

@<TRIPOS>ATOM
      1  PB        40.2720   -1.9410   57.7440 P.3   902  GDP902      0.5373
      2  O1B       39.3020   -0.7750   57.8680 O.3   902  GDP902     -0.1143
      3  O2B       39.6020   -3.2320   58.0710 O.3   902  GDP902     -0.1143
      4  O3B       40.9410   -1.9560   56.3970 O.2   902  GDP902     -0.2221
      5  O3A       41.3960   -1.6580   58.8190 O.3   902  GDP902     -0.2261
      6  PA        42.9290   -1.1910   58.6920 P.3   902  GDP902      0.2231
      7  O1A       43.7060   -2.2720   58.0150 O.2   902  GDP902     -0.5169
      8  O2A       42.9970    0.1420   58.0450 O.3   902  GDP902     -0.4370
      9  O5'       43.2630   -1.1590   60.2120 O.3   902  GDP902     -0.3111
     10  C5'       42.5230   -0.3580   61.1680 C.3   902  GDP902      0.1813
     11  C4'       43.4040    0.0370   62.3470 C.3   902  GDP902      0.1799
     12  O4'       43.8660   -1.1760   62.9780 O.3   902  GDP902     -0.3326
     13  C3'       44.6910    0.7940   61.9600 C.3   902  GDP902      0.2158
     14  O3'       45.0000    1.7430   62.9730 O.3   902  GDP902     -0.2175
     15  C2'       45.7250   -0.2940   61.8550 C.3   902  GDP902      0.2310
     16  O2'       47.0700    0.1500   61.9500 O.3   902  GDP902     -0.2158
     17  C1'       45.3010   -1.2270   62.9760 C.3   902  GDP902      0.2293
     18  N9        45.6720   -2.6200   62.7400 N.pl3 902  GDP902     -0.2354
     19  C8        45.4980   -3.3870   61.5860 C.3   902  GDP902      0.2246
     20  N7        45.9370   -4.6150   61.7100 N.2   902  GDP902     -0.2322
     21  C5        46.4320   -4.6690   63.0130 C.2   902  GDP902      0.2182
     22  C6        47.0210   -5.7270   63.7500 C.1   902  GDP902      0.2372
     23  O6        47.2320   -6.8650   63.3290 O.2   902  GDP902     -0.2069
     24  N1        47.3980   -5.3940   65.0640 N.2   902  GDP902     -0.2485
     25  C2        47.2020   -4.1250   65.6380 C.1   902  GDP902      0.2531
     26  N2        47.6120   -3.9620   66.8940 N.pl3 902  GDP902     -0.0226
     27  N3        46.6340   -3.1120   64.9480 N.2   902  GDP902     -0.3074
     28  C4        46.2610   -3.4400   63.6560 C.2   902  GDP902      0.2300
@<TRIPOS>BOND
     1     4     1    2
     2     1     2    1
     3     1     3    1
     4     1     5    1
     5     7     6    2
     6     8     6    1
     7     6     5    1
     8     6     9    1
     9     9    10    1
    10    10    11    1
    11    19    20    1
    12    19    18    1
    13    20    21    2
    14    15    16    1
    15    15    13    1
    16    15    17    1
    17    13    11    1
    18    13    14    1
    19    11    12    1
    20    18    17    1
    21    18    28    1
    22    17    12    1
    23    21    28    1
    24    21    22    1
    25    23    22    2
    26    28    27    2
    27    22    24    2
    28    27    25    2
    29    24    25    2
    30    25    26    1
