@<TRIPOS>MOLECULE
2npf_MOU_A_1.pdb
 49 54 0 0 0
SMALL
GASTEIGER

@<TRIPOS>ATOM
      1  C          3.2860   12.1440   39.1470 C.3   901  MOU901      0.2927
      2  O          3.3150   10.7500   39.2030 O.3   901  MOU901     -0.4235
      3  C1         4.5840   10.3140   39.1910 C.2   901  MOU901      0.3463
      4  C2         5.5360   11.4650   39.3670 C.3   901  MOU901      0.2168
      5  O3         4.6270   12.6060   39.2790 O.3   901  MOU901     -0.3121
      6  C4         2.1340   18.2250   43.4770 C.3   901  MOU901      0.0107
      7  C5         2.1350   16.9520   44.1280 C.3   901  MOU901      0.0006
      8  C6         0.7290   16.3680   43.7770 C.3   901  MOU901      0.0033
      9  C7        -0.2920   17.0610   44.7690 C.3   901  MOU901      0.0080
     10  C8        -0.5770   18.3760   43.8980 C.3   901  MOU901      0.0681
     11  C9         0.6710   18.2310   42.7570 C.3   901  MOU901      0.1025
     12  C10        0.5340   16.7960   42.2680 C.3   901  MOU901      0.0376
     13  C11       -0.4820   19.6350   44.7980 C.2   901  MOU901      0.2071
     14  O12        0.2660   19.8050   45.7690 O.2   901  MOU901     -0.2883
     15  C13       -0.8840   16.4500   41.5430 C.3   901  MOU901      0.0030
     16  C14       -1.9280   18.3550   43.0780 C.3   901  MOU901      0.0075
     17  C15       -2.1460   16.9340   42.3860 C.3   901  MOU901      0.0005
     18  C16       -3.4940   17.1490   41.6630 C.3   901  MOU901      0.0000
     19  C17       -4.2700   18.0040   42.6910 C.3   901  MOU901      0.0000
     20  C18       -3.2710   18.4590   43.7690 C.3   901  MOU901      0.0004
     21  C19       -3.3930   17.9210   40.3250 C.3   901  MOU901      0.0000
     22  C20        3.2170   19.2840   43.4440 C.3   901  MOU901      0.0005
     23  C21        3.8560   19.5220   44.8310 C.3   901  MOU901      0.0000
     24  C22        4.3160   18.9050   42.4210 C.3   901  MOU901      0.0000
     25  C23        0.6200   19.4420   41.6770 C.2   901  MOU901      0.3643
     26  O24        0.7290   20.6260   42.1510 O.co2 901  MOU901     -0.2457
     27  O25        0.4780   19.1530   40.4390 O.co2 901  MOU901     -0.2457
     28  C26        1.4790   16.1890   41.1780 C.3   901  MOU901      0.1453
     29  O27        1.4940   14.7560   41.2510 O.3   901  MOU901     -0.3285
     30  C28        2.3550   14.2060   40.2100 C.3   901  MOU901      0.2731
     31  O29        1.9040   14.6180   38.8460 O.3   901  MOU901     -0.3282
     32  C30        2.6940   14.1370   37.7660 C.3   901  MOU901      0.1511
     33  C31        2.6950   12.6140   37.7930 C.3   901  MOU901      0.2086
     34  C32        2.3910   12.6780   40.2930 C.3   901  MOU901      0.2735
     35  O33        1.0630   12.2150   40.1720 O.3   901  MOU901     -0.2110
     36  C34        2.1230   14.6560   36.4680 C.3   901  MOU901      0.0350
     37  O35        3.5100   12.1230   36.7070 O.3   901  MOU901     -0.3449
     38  C36        2.9430   11.0670   35.9260 C.3   901  MOU901      0.1744
     39  O37        4.8590    9.1510   39.0250 O.2   901  MOU901     -0.2473
     40  C38        6.1270   11.3740   40.7460 C.3   901  MOU901      0.0413
     41  C39        7.0910   12.4160   41.2150 C.3   901  MOU901      0.0031
     42  C40        7.3580   12.0150   42.6460 C.3   901  MOU901      0.0001
     43  C41        8.2320   12.9240   43.4030 C.3   901  MOU901      0.0000
     44  C42        8.3440   12.3860   44.8020 C.3   901  MOU901      0.0006
     45  C43        9.1910   13.3040   45.6570 C.3   901  MOU901      0.0118
     46  C44       10.2270   12.5820   46.5350 C.3   901  MOU901      0.1141
     47  C45       11.5840   13.2870   46.7180 C.2   901  MOU901      0.3649
     48  O46       12.3700   12.6310   47.4600 O.co2 901  MOU901     -0.2457
     49  O47       11.7980   14.4230   46.1370 O.co2 901  MOU901     -0.2457
@<TRIPOS>BOND
     1    38    37    1
     2    36    32    1
     3    37    33    1
     4    32    33    1
     5    32    31    1
     6    33     1    1
     7    31    30    1
     8    39     3    2
     9     1     2    1
    10     1     5    1
    11     1    34    1
    12     3     2    1
    13     3     4    1
    14     5     4    1
    15     4    40    1
    16    35    34    1
    17    30    34    1
    18    30    29    1
    19    21    18    1
    20    27    25   ar
    21    40    41    1
    22    28    29    1
    23    28    12    1
    24    41    42    1
    25    15    12    1
    26    15    17    1
    27    18    17    1
    28    18    19    1
    29    25    26   ar
    30    25    11    1
    31    12    11    1
    32    12     8    1
    33    17    16    1
    34    24    22    1
    35    42    43    1
    36    19    20    1
    37    11     6    1
    38    11    10    1
    39    16    20    1
    40    16    10    1
    41    43    44    1
    42    22     6    1
    43    22    23    1
    44     6     7    1
    45     8     7    1
    46     8     9    1
    47    10     9    1
    48    10    13    1
    49    13    14    2
    50    44    45    1
    51    45    46    1
    52    49    47   ar
    53    46    47    1
    54    47    48   ar
