@<TRIPOS>MOLECULE
2nph_III_S_1.pdb
 33 33 0 0 0
SMALL
GASTEIGER

@<TRIPOS>ATOM
      1  N        -11.3150   12.6220   38.7920 N.3     1  ALA1       -0.1231
      2  CA       -12.4690   12.2210   37.9280 C.3     1  ALA1        0.1694
      3  C        -12.0380   11.8810   36.4940 C.2     1  ALA1        0.2592
      4  O        -11.4040   10.8480   36.2600 O.2     1  ALA1       -0.2718
      5  CB       -13.5230   13.3300   37.9170 C.3     1  ALA1        0.0304
      6  N        -12.3760   12.7480   35.5420 N.am    2  GLU2       -0.1966
      7  CA       -12.0390   12.5150   34.1370 C.3     2  GLU2        0.1733
      8  C        -11.7380   13.8100   33.3650 C.2     2  GLU2        0.2617
      9  O        -12.5630   14.7320   33.2950 O.2     2  GLU2       -0.2715
     10  CB       -13.1840   11.7420   33.4760 C.3     2  GLU2        0.0429
     11  CG       -13.5210   10.4410   34.2010 C.3     2  GLU2        0.1163
     12  CD       -15.0080   10.1560   34.2690 C.2     2  GLU2        0.3649
     13  OE1      -15.5980    9.7950   33.2290 O.co2   2  GLU2       -0.2457
     14  OE2      -15.5920   10.2960   35.3680 O.co2   2  GLU2       -0.2457
     15  N        -10.5400   13.8620   32.7970 N.am    3  THR3       -0.1937
     16  CA       -10.0790   15.0240   32.0490 C.3     3  THR3        0.2028
     17  C        -10.2270   14.7960   30.5530 C.2     3  THR3        0.2643
     18  O         -9.2490   14.6030   29.8210 O.2     3  THR3       -0.2714
     19  CB        -8.6220   15.3090   32.3940 C.3     3  THR3        0.1808
     20  OG1       -8.4960   15.3510   33.8170 O.3     3  THR3       -0.2208
     21  CG2       -8.1740   16.6370   31.8180 C.3     3  THR3        0.0379
     22  N        -11.4770   14.8180   30.1110 N.am    4  PHE4       -0.1937
     23  CA       -11.8180   14.5950   28.7150 C.3     4  PHE4        0.2021
     24  C        -11.6340   15.8300   27.8720 C.2     4  PHE4        0.3845
     25  O        -11.6440   16.9490   28.4320 O.co2   4  PHE4       -0.2437
     26  CB       -13.2660   14.1690   28.6190 C.3     4  PHE4        0.0596
     27  CG       -13.5550   12.8920   29.3070 C.ar    4  PHE4       -0.0199
     28  CD1      -14.5850   12.8060   30.2250 C.ar    4  PHE4       -0.0042
     29  CD2      -12.8210   11.7530   29.0120 C.ar    4  PHE4       -0.0042
     30  CE1      -14.9030   11.5860   30.8170 C.ar    4  PHE4       -0.0003
     31  CE2      -13.1350   10.5390   29.6040 C.ar    4  PHE4       -0.0003
     32  CZ       -14.1670   10.4550   30.5050 C.ar    4  PHE4       -0.0000
     33  OXT      -11.5150   15.6500   26.6450 O.co2   4  PHE4       -0.2437
@<TRIPOS>BOND
     1    33    24   ar
     2    24    25   ar
     3    24    23    1
     4    26    23    1
     5    26    27    1
     6    23    22    1
     7    29    27   ar
     8    29    31   ar
     9    27    28   ar
    10    31    32   ar
    11    18    17    2
    12    22    17   am
    13    28    30   ar
    14    32    30   ar
    15    17    16    1
    16    21    19    1
    17    16    19    1
    18    16    15    1
    19    19    20    1
    20    15     8   am
    21    13    12   ar
    22     9     8    2
    23     8     7    1
    24    10     7    1
    25    10    11    1
    26     7     6    1
    27    11    12    1
    28    12    14   ar
    29     6     3   am
    30     4     3    2
    31     3     2    1
    32     5     2    1
    33     2     1    1
