@<TRIPOS>MOLECULE
2npi_ATP_A_1.pdb
 31 33 0 0 0
SMALL
GASTEIGER

@<TRIPOS>ATOM
      1  PG        23.7590   24.3720   42.2470 P.3   600  ATP600      0.5373
      2  O1G       24.4250   23.8360   40.9990 O.2   600  ATP600     -0.2221
      3  O2G       24.2650   23.7690   43.5380 O.3   600  ATP600     -0.1143
      4  O3G       22.2570   24.5090   42.1690 O.3   600  ATP600     -0.1143
      5  PB        25.7960   26.2850   42.1980 P.3   600  ATP600      0.2277
      6  O1B       26.6260   25.1690   42.7860 O.3   600  ATP600     -0.4368
      7  O2B       25.9240   27.6830   42.7310 O.2   600  ATP600     -0.5168
      8  O3B       24.2420   25.9010   42.2980 O.3   600  ATP600     -0.2258
      9  PA        27.5540   26.1800   40.0580 P.3   600  ATP600      0.2189
     10  O1A       27.8350   24.7020   39.9190 O.2   600  ATP600     -0.5170
     11  O2A       28.4800   27.0330   40.8950 O.3   600  ATP600     -0.4371
     12  O3A       26.0550   26.3300   40.6170 O.3   600  ATP600     -0.2700
     13  O5'       27.4280   26.8510   38.6020 O.3   600  ATP600     -0.3112
     14  C5'       26.5740   26.2800   37.6120 C.3   600  ATP600      0.1813
     15  C4'       27.3300   26.1670   36.2940 C.3   600  ATP600      0.1821
     16  O4'       27.8000   27.4560   35.8970 O.3   600  ATP600     -0.3135
     17  C3'       28.5480   25.2620   36.4140 C.3   600  ATP600      0.2184
     18  O3'       28.4980   24.2460   35.4060 O.3   600  ATP600     -0.2174
     19  C2'       29.7450   26.1710   36.2110 C.3   600  ATP600      0.2570
     20  O2'       30.7610   25.5540   35.4200 O.3   600  ATP600     -0.2130
     21  C1'       29.1610   27.3590   35.4770 C.3   600  ATP600      0.3186
     22  N9        29.8950   28.6130   35.7650 N.pl3 600  ATP600     -0.1439
     23  C8        30.1820   29.1290   36.9720 C.3   600  ATP600      0.3377
     24  N7        30.8600   30.2990   36.8550 N.2   600  ATP600     -0.2095
     25  C5        31.0090   30.5460   35.5440 C.2   600  ATP600      0.2526
     26  C6        31.6240   31.6120   34.7160 C.2   600  ATP600      0.4393
     27  N6        32.2390   32.6720   35.2900 N.pl3 600  ATP600      0.2180
     28  N1        31.5550   31.4850   33.3660 N.2   600  ATP600      0.0021
     29  C2        30.9520   30.4300   32.7750 C.3   600  ATP600      0.5254
     30  N3        30.3710   29.4310   33.4690 N.2   600  ATP600     -0.0055
     31  C4        30.3690   29.4320   34.8290 C.2   600  ATP600      0.3518
@<TRIPOS>BOND
     1    29    28    1
     2    29    30    1
     3    28    26    2
     4    30    31    2
     5    26    27    1
     6    26    25    1
     7    31    25    1
     8    31    22    1
     9    18    17    1
    10    20    19    1
    11    21    22    1
    12    21    16    1
    13    21    19    1
    14    25    24    2
    15    22    23    1
    16    16    15    1
    17    19    17    1
    18    15    17    1
    19    15    14    1
    20    24    23    1
    21    14    13    1
    22    13     9    1
    23    10     9    2
    24     9    12    1
    25     9    11    1
    26    12     5    1
    27     2     1    2
    28     4     1    1
    29     5     8    1
    30     5     7    2
    31     5     6    1
    32     1     8    1
    33     1     3    1
