@<TRIPOS>MOLECULE
2npm_III_X_1.pdb
 43 43 0 0 0
SMALL
GASTEIGER

@<TRIPOS>ATOM
      1  N         13.3790   43.4220   42.1050 N.3   1002  ARG1002    -0.1231
      2  CA        13.7980   42.4100   43.0760 C.3   1002  ARG1002     0.1694
      3  C         12.6150   41.5950   43.6350 C.2   1002  ARG1002     0.2592
      4  O         12.8210   40.7000   44.4770 O.2   1002  ARG1002    -0.2718
      5  CB        14.6160   43.0280   44.2300 C.3   1002  ARG1002     0.0304
      6  N         11.3930   41.9080   43.1780 N.am  1003  ALA1003    -0.1966
      7  CA        10.2030   41.1140   43.5290 C.3   1003  ALA1003     0.1728
      8  C         10.2210   39.7400   42.8300 C.2   1003  ALA1003     0.2616
      9  O         10.6470   39.6250   41.6760 O.2   1003  ALA1003    -0.2715
     10  CB         8.9160   41.8800   43.2030 C.3   1003  ALA1003     0.0334
     11  N          9.7390   38.7140   43.5280 N.am  1004  ILE1004    -0.1963
     12  CA         9.7990   37.3290   43.0490 C.3   1004  ILE1004     0.1727
     13  C          8.5180   36.9620   42.2810 C.2   1004  ILE1004     0.2617
     14  O          7.4170   37.1870   42.7720 O.2   1004  ILE1004    -0.2715
     15  CB         9.9950   36.3400   44.2350 C.3   1004  ILE1004     0.0290
     16  CG1       11.0880   36.8290   45.1980 C.3   1004  ILE1004     0.0022
     17  CG2       10.3770   34.9300   43.7420 C.3   1004  ILE1004     0.0023
     18  CD1       10.5330   37.5560   46.5220 C.3   1004  ILE1004     0.0001
     19  N          8.6500   36.4230   41.0700 N.am  1005  SER1005    -0.1937
     20  CA         7.4870   35.9190   40.3430 C.3   1005  SER1005     0.2027
     21  CB         7.6680   36.1520   38.8590 C.3   1005  SER1005     0.1847
     22  OG         8.8610   35.5240   38.4780 O.3   1005  SER1005    -0.2679
     23  C          7.4440   34.4210   40.6340 C.2   1005  SER1005     0.2642
     24  O          8.3270   33.9190   41.2950 O.2   1005  SER1005    -0.2714
     25  P          9.3340   35.6930   37.0170 P.3   1005  SER1005     0.5327
     26  O1P        8.2260   35.1410   36.1240 O.2   1005  SER1005    -0.2224
     27  O2P        9.6690   37.1570   36.7850 O.3   1005  SER1005    -0.1145
     28  O3P       10.6150   34.8520   36.7280 O.3   1005  SER1005    -0.1145
     29  N          6.4370   33.7160   40.1240 N.am  1006  LEU1006    -0.1963
     30  CA         6.2620   32.3030   40.3970 C.3   1006  LEU1006     0.1713
     31  C          7.4680   31.4990   39.9460 C.2   1006  LEU1006     0.2458
     32  O          7.8690   31.5840   38.7850 O.2   1006  LEU1006    -0.2730
     33  CB         5.0100   31.7370   39.6960 C.3   1006  LEU1006     0.0310
     34  CG         4.5760   30.3080   40.1090 C.3   1006  LEU1006     0.0022
     35  CD1        4.1310   30.2890   41.5910 C.3   1006  LEU1006     0.0001
     36  CD2        3.4940   29.7040   39.1840 C.3   1006  LEU1006     0.0001
     37  N          8.0540   30.7230   40.8490 N.am  1007  PRO1007    -0.2727
     38  CA         9.1020   29.8210   40.3610 C.3   1007  PRO1007     0.1402
     39  C          8.5960   28.9520   39.2070 C.2   1007  PRO1007     0.2269
     40  O          9.4260   28.3880   38.4700 O.2   1007  PRO1007    -0.2865
     41  CB         9.4190   28.9280   41.5820 C.3   1007  PRO1007     0.0296
     42  CG         9.0730   29.7640   42.7670 C.3   1007  PRO1007     0.0237
     43  CD         7.8710   30.6480   42.3070 C.3   1007  PRO1007     0.0939
@<TRIPOS>BOND
     1    26    25    2
     2    28    25    1
     3    27    25    1
     4    25    22    1
     5    40    39    2
     6    22    21    1
     7    32    31    2
     8    21    20    1
     9    36    34    1
    10    39    38    1
    11    33    34    1
    12    33    30    1
    13    31    30    1
    14    31    37   am
    15    34    35    1
    16    29    30    1
    17    29    23   am
    18    20    23    1
    19    20    19    1
    20    38    37    1
    21    38    41    1
    22    23    24    2
    23    37    43    1
    24    19    13   am
    25    41    42    1
    26     9     8    2
    27     1     2    1
    28    13    14    2
    29    13    12    1
    30    43    42    1
    31     8    11   am
    32     8     7    1
    33    12    11    1
    34    12    15    1
    35     2     3    1
    36     2     5    1
    37     6     7    1
    38     6     3   am
    39    10     7    1
    40     3     4    2
    41    17    15    1
    42    15    16    1
    43    16    18    1
