@<TRIPOS>MOLECULE
2npn_SAM_A_1.pdb
 27 29 0 0 0
SMALL
GASTEIGER

@<TRIPOS>ATOM
      1  N         60.8410   34.0390   31.3940 N.3   4633  SAM4633    -0.1208
      2  CA        60.9690   33.0570   32.5130 C.3   4633  SAM4633     0.1952
      3  C         60.8100   33.7290   33.8640 C.2   4633  SAM4633     0.3819
      4  O         60.8780   33.0260   34.9080 O.co2 4633  SAM4633    -0.2441
      5  OXT       60.5710   34.9520   33.9130 O.co2 4633  SAM4633    -0.2441
      6  CB        62.3110   32.3080   32.4220 C.3   4633  SAM4633     0.0414
      7  CG        62.4280   31.3850   31.2080 C.3   4633  SAM4633     0.0503
      8  SD        63.9470   30.3750   31.1170 S.3   4633  SAM4633    -0.1761
      9  CE        63.6090   29.6400   29.4910 C.3   4633  SAM4633     0.0590
     10  C5'       63.6490   28.8310   32.0470 C.3   4633  SAM4633     0.0806
     11  C4'       64.3010   28.7970   33.4400 C.3   4633  SAM4633     0.1622
     12  O4'       63.5060   29.5080   34.3300 O.3   4633  SAM4633    -0.3153
     13  C3'       64.4210   27.4090   34.0710 C.3   4633  SAM4633     0.2168
     14  O3'       65.5550   26.7100   33.6230 O.3   4633  SAM4633    -0.2175
     15  C2'       64.4630   27.6990   35.5470 C.3   4633  SAM4633     0.2569
     16  O2'       65.7330   28.2240   35.8930 O.3   4633  SAM4633    -0.2130
     17  C1'       63.4380   28.8130   35.5780 C.3   4633  SAM4633     0.3185
     18  N9        62.0630   28.3290   35.8330 N.pl3 4633  SAM4633    -0.1439
     19  C8        60.9640   28.5800   35.0270 C.3   4633  SAM4633     0.3377
     20  N7        59.8590   28.0760   35.5830 N.2   4633  SAM4633    -0.2095
     21  C5        60.2260   27.5350   36.7830 C.2   4633  SAM4633     0.2526
     22  C6        59.5040   26.9390   37.8070 C.2   4633  SAM4633     0.4393
     23  N6        58.1590   26.7660   37.7360 N.pl3 4633  SAM4633     0.2180
     24  N1        60.1820   26.4940   38.9360 N.2   4633  SAM4633     0.0021
     25  C2        61.5400   26.7180   39.0580 C.3   4633  SAM4633     0.5254
     26  N3        62.2560   27.3120   38.0550 N.2   4633  SAM4633    -0.0055
     27  C4        61.6170   27.7420   36.9390 C.2   4633  SAM4633     0.3518
@<TRIPOS>BOND
     1     9     8    1
     2     8     7    1
     3     8    10    1
     4     7     6    1
     5     1     2    1
     6    10    11    1
     7     6     2    1
     8     2     3    1
     9    11    13    1
    10    11    12    1
    11    14    13    1
    12     3     5   ar
    13     3     4   ar
    14    13    15    1
    15    12    17    1
    16    19    20    1
    17    19    18    1
    18    15    17    1
    19    15    16    1
    20    17    18    1
    21    20    21    2
    22    18    27    1
    23    21    27    1
    24    21    22    1
    25    27    26    2
    26    23    22    1
    27    22    24    2
    28    26    25    1
    29    24    25    1
