@<TRIPOS>MOLECULE
2npq_BOG_A_1.pdb
 20 20 0 0 0
SMALL
GASTEIGER

@<TRIPOS>ATOM
      1  C1        11.2660   24.9610    8.4290 C.3   1000  BOG1000     0.2695
      2  O1        10.8890   25.6830    9.5720 O.3   1000  BOG1000    -0.3286
      3  C2        10.3960   25.1240    7.2010 C.3   1000  BOG1000     0.2406
      4  O2         9.0550   24.8330    7.5190 O.3   1000  BOG1000    -0.2149
      5  C3        10.9220   24.4480    5.9140 C.3   1000  BOG1000     0.2198
      6  O3        10.2070   24.8170    4.7460 O.3   1000  BOG1000    -0.2174
      7  C4        12.4400   24.3220    5.7750 C.3   1000  BOG1000     0.2144
      8  O4        12.9760   23.4010    4.8130 O.3   1000  BOG1000    -0.2176
      9  C5        13.2100   24.2170    7.1050 C.3   1000  BOG1000     0.1835
     10  O5        12.6610   24.8270    8.2620 O.3   1000  BOG1000    -0.3256
     11  C6        14.7100   24.4390    7.0410 C.3   1000  BOG1000     0.2142
     12  O6        14.8750   25.7340    6.5610 O.3   1000  BOG1000    -0.2176
     13  C1'       11.2880   25.0820   10.8010 C.3   1000  BOG1000     0.1449
     14  C2'       10.1850   24.2840   11.4990 C.3   1000  BOG1000     0.0322
     15  C3'       10.6010   23.9880   12.9380 C.3   1000  BOG1000     0.0026
     16  C4'        9.6100   23.1440   13.7110 C.3   1000  BOG1000     0.0001
     17  C5'       10.1200   22.8760   15.1010 C.3   1000  BOG1000     0.0000
     18  C6'        9.2870   21.7720   15.7200 C.3   1000  BOG1000     0.0000
     19  C7'        9.3350   21.7830   17.2360 C.3   1000  BOG1000     0.0000
     20  C8'        8.2700   20.8340   17.7570 C.3   1000  BOG1000     0.0000
@<TRIPOS>BOND
     1     6     5    1
     2     8     7    1
     3     7     5    1
     4     7     9    1
     5     5     3    1
     6    12    11    1
     7    11     9    1
     8     9    10    1
     9     3     4    1
    10     3     1    1
    11    10     1    1
    12     1     2    1
    13     2    13    1
    14    13    14    1
    15    14    15    1
    16    15    16    1
    17    16    17    1
    18    17    18    1
    19    18    19    1
    20    19    20    1
