@<TRIPOS>MOLECULE
2npx_NAD_A_1.pdb
 44 48 0 0 0
SMALL
GASTEIGER

@<TRIPOS>ATOM
      1  PA        48.9760   44.5550  121.4940 P.3   818  NAD818      0.2189
      2  O1A       48.5050   45.8920  121.8520 O.3   818  NAD818     -0.4371
      3  O2A       49.2760   44.2950  120.0850 O.2   818  NAD818     -0.5170
      4  O5B       50.3150   44.3270  122.1490 O.3   818  NAD818     -0.3112
      5  C5B       50.8890   42.9380  122.2560 C.3   818  NAD818      0.1813
      6  C4B       52.2260   43.1320  122.8650 C.3   818  NAD818      0.1821
      7  O4B       52.7950   41.8550  123.0260 O.3   818  NAD818     -0.3135
      8  C3B       53.1780   43.9350  121.9460 C.3   818  NAD818      0.2184
      9  O3B       53.9070   44.9240  122.6680 O.3   818  NAD818     -0.2174
     10  C2B       54.1410   42.8310  121.5050 C.3   818  NAD818      0.2570
     11  O2B       55.4550   43.3100  121.2050 O.3   818  NAD818     -0.2130
     12  C1B       54.1710   41.9760  122.7200 C.3   818  NAD818      0.3186
     13  N9A       54.7820   40.7040  122.4010 N.pl3 818  NAD818     -0.1439
     14  C8A       54.5020   39.8960  121.3330 C.3   818  NAD818      0.3377
     15  N7A       55.0220   38.6980  121.4380 N.2   818  NAD818     -0.2095
     16  C5A       55.7190   38.6670  122.6340 C.2   818  NAD818      0.2526
     17  C6A       56.4600   37.6680  123.2690 C.2   818  NAD818      0.4393
     18  N6A       56.6540   36.4810  122.6950 N.pl3 818  NAD818      0.2180
     19  N1A       57.0400   37.9950  124.4170 N.2   818  NAD818      0.0021
     20  C2A       56.8780   39.2260  124.8730 C.3   818  NAD818      0.5254
     21  N3A       56.2990   40.3090  124.3490 N.2   818  NAD818     -0.0055
     22  C4A       55.6330   39.9750  123.2080 C.2   818  NAD818      0.3518
     23  O3        48.0480   43.3810  122.0810 O.3   818  NAD818     -0.2703
     24  PN        47.0820   43.1840  123.3290 P.3   818  NAD818      0.2189
     25  O1N       46.9330   41.7310  123.6320 O.2   818  NAD818     -0.5170
     26  O2N       47.4550   44.0530  124.4210 O.3   818  NAD818     -0.4371
     27  O5D       45.7290   43.6500  122.8450 O.3   818  NAD818     -0.3112
     28  C5D       44.9210   42.9040  121.7990 C.3   818  NAD818      0.1813
     29  C4D       44.1350   43.8680  120.8690 C.3   818  NAD818      0.1799
     30  O4D       43.0260   44.5740  121.4830 O.3   818  NAD818     -0.3327
     31  C3D       44.9930   44.9120  120.1770 C.3   818  NAD818      0.2158
     32  O3D       44.4740   45.0810  118.8630 O.3   818  NAD818     -0.2175
     33  C2D       44.6430   46.1220  121.0190 C.3   818  NAD818      0.2309
     34  O2D       44.8980   47.3340  120.3130 O.3   818  NAD818     -0.2158
     35  C1D       43.1690   45.9950  121.3010 C.3   818  NAD818      0.2263
     36  N1N       42.8750   46.7730  122.5390 N.pl3 818  NAD818     -0.2787
     37  C2N       42.7400   48.1430  122.4660 C.3   818  NAD818      0.1244
     38  C3N       42.4790   48.9660  123.5990 C.2   818  NAD818      0.0544
     39  C7N       42.3290   50.4090  123.4600 C.2   818  NAD818      0.2818
     40  O7N       41.7320   50.8160  122.4710 O.2   818  NAD818     -0.2670
     41  N7N       42.6540   51.2540  124.4510 N.am  818  NAD818     -0.0839
     42  C4N       42.7440   48.3780  124.9600 C.2   818  NAD818      0.0033
     43  C5N       43.1710   46.9340  124.9620 C.2   818  NAD818      0.0157
     44  C6N       43.1520   46.2080  123.7540 C.2   818  NAD818      0.0633
@<TRIPOS>BOND
     1    32    31    1
     2     3     1    2
     3    31    29    1
     4    31    33    1
     5    34    33    1
     6    29    30    1
     7    29    28    1
     8    33    35    1
     9    11    10    1
    10    35    30    1
    11    35    36    1
    12    14    15    1
    13    14    13    1
    14    15    16    2
    15     1     2    1
    16     1    23    1
    17     1     4    1
    18    10     8    1
    19    10    12    1
    20    28    27    1
    21     8     9    1
    22     8     6    1
    23    23    24    1
    24     4     5    1
    25     5     6    1
    26    13    12    1
    27    13    22    1
    28    37    36    1
    29    37    38    1
    30    40    39    2
    31    36    44    1
    32    16    22    1
    33    16    17    1
    34    18    17    1
    35    12     7    1
    36    27    24    1
    37     6     7    1
    38    22    21    2
    39    17    19    2
    40    24    25    2
    41    24    26    1
    42    39    38    1
    43    39    41   am
    44    38    42    2
    45    44    43    2
    46    21    20    1
    47    19    20    1
    48    42    43    1
