@<TRIPOS>MOLECULE
2nq6_HM4_A_1.pdb
 22 23 0 0 0
SMALL
GASTEIGER

@<TRIPOS>ATOM
      1  S         46.6490   17.7760   36.4070 S.2   410  HM4410     -0.0491
      2  N1        46.5630   19.5820   34.7430 N.ar  410  HM4410     -0.2209
      3  N2        45.0780   20.0020   36.4810 N.am  410  HM4410     -0.1492
      4  N3        43.4430   21.8760   37.4730 N.2   410  HM4410     -0.2385
      5  N4        44.2400   20.0750   40.5390 N.am  410  HM4410     -0.1448
      6  C1        47.6650   17.5820   35.1110 C.ar  410  HM4410      0.0588
      7  C2        47.4810   18.7030   34.2760 C.ar  410  HM4410      0.1079
      8  C3        46.0140   19.2520   35.8630 C.ar  410  HM4410      0.1862
      9  C4        44.8070   19.8850   37.7920 C.2   410  HM4410      0.2894
     10  C5        43.9560   20.9590   38.3470 C.2   410  HM4410      0.1481
     11  C6        42.6480   22.8880   37.8300 C.2   410  HM4410      0.0949
     12  C7        42.3130   23.0380   39.1760 C.2   410  HM4410      0.0007
     13  C8        42.7950   22.1450   40.1500 C.3   410  HM4410      0.0726
     14  C9        43.6720   21.0260   39.7240 C.2   410  HM4410      0.0809
     15  C10       44.1660   19.9120   41.8960 C.2   410  HM4410      0.4250
     16  C11       44.9300   18.5210   43.8040 C.3   410  HM4410      0.1379
     17  C12       45.8310   17.3250   43.7690 C.3   410  HM4410      0.0437
     18  C13       43.4540   18.0670   44.2760 C.3   410  HM4410      0.0437
     19  C14       45.6970   19.5330   44.6540 C.3   410  HM4410      0.0437
     20  O1        45.2950   18.9690   38.4750 O.2   410  HM4410     -0.2663
     21  O2        43.5450   20.6400   42.5860 O.2   410  HM4410     -0.2242
     22  O3        44.8570   18.8740   42.4100 O.3   410  HM4410     -0.4406
@<TRIPOS>BOND
     1     7     2   ar
     2     7     6   ar
     3     2     8   ar
     4     6     1   ar
     5     8     1   ar
     6     8     3    1
     7     3     9   am
     8     4    11    1
     9     4    10    2
    10     9    10    1
    11     9    20    2
    12    11    12    2
    13    10    14    1
    14    12    13    1
    15    14    13    1
    16    14     5    2
    17     5    15    1
    18    15    22    1
    19    15    21    2
    20    22    16    1
    21    17    16    1
    22    16    18    1
    23    16    19    1
