@<TRIPOS>MOLECULE
2nq7_HM5_A_1.pdb
 21 22 0 0 0
SMALL
GASTEIGER

@<TRIPOS>ATOM
      1  S         10.7210   33.2170   23.2850 S.2   410  HM5410     -0.0491
      2  N1         9.1330   31.2470   23.1770 N.ar  410  HM5410     -0.2209
      3  N2        11.1600   30.9660   21.9780 N.am  410  HM5410     -0.1492
      4  N3        12.3460   29.1710   20.3630 N.ar  410  HM5410     -0.2379
      5  N4        15.1410   31.5840   20.7510 N.am  410  HM5410     -0.1776
      6  C1         9.2390   33.3520   24.1420 C.ar  410  HM5410      0.0588
      7  C2         8.5330   32.1990   23.9600 C.ar  410  HM5410      0.1079
      8  C3        10.3020   31.6580   22.7710 C.ar  410  HM5410      0.1862
      9  C4        12.4330   31.2930   21.5980 C.2   410  HM5410      0.2897
     10  C5        13.0930   30.2700   20.7270 C.ar  410  HM5410      0.1517
     11  C6        12.9790   28.2100   19.5390 C.ar  410  HM5410      0.0991
     12  C7        14.2300   28.2730   19.1160 C.ar  410  HM5410      0.0220
     13  C8        15.0090   29.4070   19.4960 C.ar  410  HM5410      0.0199
     14  C9        14.4600   30.4490   20.3150 C.ar  410  HM5410      0.0955
     15  C10       16.4400   32.0900   20.5970 C.2   410  HM5410      0.2447
     16  C11       16.6900   33.5730   21.0280 C.3   410  HM5410      0.0709
     17  C12       15.4100   34.2580   21.5550 C.3   410  HM5410      0.0091
     18  C13       17.2360   34.3890   19.8290 C.3   410  HM5410      0.0091
     19  C14       17.7450   33.5860   22.1550 C.3   410  HM5410      0.0091
     20  O1        12.9780   32.3100   21.9730 O.2   410  HM5410     -0.2662
     21  O2        17.3410   31.4070   20.1640 O.2   410  HM5410     -0.2730
@<TRIPOS>BOND
     1    12    13   ar
     2    12    11   ar
     3    13    14   ar
     4    11     4   ar
     5    18    16    1
     6    21    15    2
     7    14    10   ar
     8    14     5    1
     9     4    10   ar
    10    15     5   am
    11    15    16    1
    12    10     9    1
    13    16    17    1
    14    16    19    1
    15     9    20    2
    16     9     3   am
    17     3     8    1
    18     8     2   ar
    19     8     1   ar
    20     2     7   ar
    21     1     6   ar
    22     7     6   ar
