@<TRIPOS>MOLECULE
2nqa_III_D_1.pdb
 30 29 0 0 0
SMALL
GASTEIGER

@<TRIPOS>ATOM
      1  C         37.5510   32.6500   14.4600 C.2   355  ACE355      0.2423
      2  O         36.8480   32.0580   15.2980 O.2   355  ACE355     -0.2733
      3  CH3       37.7180   34.1390   14.4620 C.3   355  ACE355      0.0964
      4  N         37.9120   32.1030   13.3060 N.am  356  LEU356     -0.1978
      5  CA        38.6340   30.8390   13.1710 C.3   356  LEU356      0.1727
      6  C         38.4520   29.9190   11.9820 C.2   356  LEU356      0.2616
      7  O         37.3270   29.7470   11.5230 O.2   356  LEU356     -0.2715
      8  CB        39.5940   30.4750   14.2970 C.3   356  LEU356      0.0311
      9  CG        39.9480   29.0660   14.7420 C.3   356  LEU356      0.0022
     10  CD1       41.2030   29.1990   15.6290 C.3   356  LEU356      0.0001
     11  CD2       38.8670   28.3070   15.4420 C.3   356  LEU356      0.0001
     12  N         39.5460   29.3680   11.4600 N.am  357  LEU357     -0.1963
     13  CA        39.5040   28.6600   10.1770 C.3   357  LEU357      0.1728
     14  C         38.8490   27.2790   10.2480 C.2   357  LEU357      0.2616
     15  O         39.4650   26.2930   10.6650 O.2   357  LEU357     -0.2715
     16  CB        40.9100   28.5680    9.5780 C.3   357  LEU357      0.0311
     17  CG        41.0390   28.2210    8.0890 C.3   357  LEU357      0.0022
     18  CD1       40.2260   29.1570    7.1440 C.3   357  LEU357      0.0001
     19  CD2       42.5090   28.2550    7.7480 C.3   357  LEU357      0.0001
     20  N         37.6010   27.2040    9.8000 N.am  358  AR7358     -0.1977
     21  CA        36.8430   25.9630    9.9170 C.3   358  AR7358      0.1597
     22  C         36.3360   25.3870    8.5980 C.2   358  AR7358      0.2287
     23  O         35.4150   25.9100    7.9820 O.2   358  AR7358     -0.2864
     24  CB        35.6940   26.1460   10.9010 C.3   358  AR7358      0.0334
     25  CG        36.1580   26.5890   12.2570 C.3   358  AR7358      0.0492
     26  CD        35.2120   26.1410   13.3400 C.3   358  AR7358      0.2205
     27  NE        33.8890   26.7730   13.2860 N.pl3 358  AR7358     -0.0865
     28  CZ        33.6580   28.0640   13.5430 C.cat 358  AR7358      0.5346
     29  NH1       32.4130   28.5350   13.4810 N.pl3 358  AR7358      0.1354
     30  NH2       34.6530   28.8890   13.8730 N.pl3 358  AR7358      0.1354
@<TRIPOS>BOND
     1    18    17    1
     2    19    17    1
     3    23    22    2
     4    17    16    1
     5    22    21    1
     6    16    13    1
     7    20    21    1
     8    20    14   am
     9    21    24    1
    10    13    14    1
    11    13    12    1
    12    14    15    2
    13    24    25    1
    14    12     6   am
    15     7     6    2
    16     6     5    1
    17    25    26    1
    18     5     4    1
    19     5     8    1
    20    27    26    1
    21    27    28    2
    22     4     1   am
    23    29    28    1
    24    28    30    1
    25     8     9    1
    26     1     3    1
    27     1     2    2
    28     9    11    1
    29     9    10    1
