@<TRIPOS>MOLECULE
2nqg_NQG_A_1.pdb
 44 45 0 0 0
SMALL
GASTEIGER

@<TRIPOS>ATOM
      1  CAA        5.9300    4.0790  -22.5620 C.3   501  NQG501      0.0513
      2  CAS        7.2660    4.8280  -22.6210 C.3   501  NQG501      0.2086
      3  OBE        8.5460    4.1020  -22.3080 O.3   501  NQG501     -0.4484
      4  CBL        9.2830    4.8060  -21.3920 C.2   501  NQG501      0.3201
      5  OAK        8.6710    5.4580  -20.5380 O.2   501  NQG501     -0.2500
      6  CBT       10.8430    4.7560  -21.3980 C.3   501  NQG501      0.1519
      7  CBS       11.4420    6.1980  -21.3220 C.3   501  NQG501      0.2401
      8  OAL       11.0790    6.9900  -22.4680 O.3   501  NQG501     -0.2126
      9  CBK       12.9690    6.1880  -21.1610 C.2   501  NQG501      0.2728
     10  OAJ       13.4760    6.0900  -20.0550 O.2   501  NQG501     -0.2706
     11  N         13.6910    6.3070  -22.2720 N.am  501  NQG501     -0.1956
     12  CA        15.1800    6.3010  -22.2860 C.3   501  NQG501      0.1739
     13  CB        15.6770    5.1940  -23.2520 C.3   501  NQG501      0.0473
     14  CAT       15.2680    3.7420  -22.8700 C.3   501  NQG501      0.1077
     15  CAM       15.6480    3.3190  -21.5080 C.1   501  NQG501      0.0732
     16  NAC       15.9020    3.0960  -20.4130 N.1   501  NQG501     -0.1959
     17  C         15.7020    7.7070  -22.7100 C.2   501  NQG501      0.2616
     18  O         14.9440    8.4780  -23.3020 O.2   501  NQG501     -0.2715
     19  NBA       16.9720    8.0670  -22.4210 N.am  501  NQG501     -0.1963
     20  CBQ       18.0500    7.3100  -21.7120 C.3   501  NQG501      0.1729
     21  CAX       18.7890    6.3290  -22.6730 C.3   501  NQG501      0.0348
     22  CAU       19.2720    4.9790  -22.0920 C.3   501  NQG501      0.0492
     23  CAV       19.8470    4.0220  -23.1850 C.3   501  NQG501      0.2205
     24  NAZ       18.8280    3.8670  -24.2450 N.pl3 501  NQG501     -0.0865
     25  CBG       18.5260    2.7900  -25.0060 C.cat 501  NQG501      0.5346
     26  NAE       17.5220    2.9290  -25.8740 N.pl3 501  NQG501      0.1354
     27  NAD       19.1690    1.6160  -24.9330 N.pl3 501  NQG501      0.1354
     28  CBJ       19.0170    8.3870  -21.1230 C.2   501  NQG501      0.2616
     29  OAI       20.2460    8.3080  -21.2450 O.2   501  NQG501     -0.2715
     30  NBB       18.4060    9.3940  -20.4820 N.am  501  NQG501     -0.1959
     31  CBR       19.1120   10.5320  -19.8480 C.3   501  NQG501      0.1788
     32  CBH       20.0930   10.0610  -18.7270 C.2   501  NQG501      0.2809
     33  OAG       19.7270    9.3290  -17.8030 O.2   501  NQG501     -0.2698
     34  NAF       21.3500   10.5000  -18.8420 N.am  501  NQG501     -0.0863
     35  CAY       18.0440   11.4950  -19.2960 C.3   501  NQG501      0.0591
     36  CBM       17.6310   12.5800  -20.3080 C.2   501  NQG501      0.0003
     37  CBO       16.9270   12.4230  -21.5100 C.2   501  NQG501      0.0113
     38  CAQ       16.3880   11.3230  -22.1910 C.2   501  NQG501     -0.0202
     39  CAO       15.7300   11.5170  -23.4100 C.3   501  NQG501      0.0521
     40  CAN       15.6050   12.7990  -23.9580 C.2   501  NQG501     -0.0199
     41  CAP       16.1400   13.8980  -23.2820 C.2   501  NQG501      0.0148
     42  CBN       16.8010   13.7080  -22.0600 C.2   501  NQG501      0.0804
     43  NBD       17.3950   14.5620  -21.2150 N.2   501  NQG501     -0.2442
     44  CAR       17.8870   13.8870  -20.1670 C.2   501  NQG501      0.0946
@<TRIPOS>BOND
     1    26    25    1
     2    25    27    1
     3    25    24    2
     4    24    23    1
     5    40    39    1
     6    40    41    2
     7    39    38    1
     8    18    17    2
     9    41    42    1
    10    13    14    1
    11    13    12    1
    12    23    22    1
    13    14    15    1
    14    17    19   am
    15    17    12    1
    16    21    22    1
    17    21    20    1
    18     2     1    1
    19     2     3    1
    20     8     7    1
    21    19    20    1
    22     3     4    1
    23    12    11    1
    24    11     9   am
    25    38    37    2
    26    42    37    1
    27    42    43    2
    28    20    28    1
    29    37    36    1
    30    15    16    3
    31     6     4    1
    32     6     7    1
    33     4     5    2
    34     7     9    1
    35    29    28    2
    36    43    44    1
    37     9    10    2
    38    28    30   am
    39    30    31    1
    40    36    44    2
    41    36    35    1
    42    31    35    1
    43    31    32    1
    44    34    32   am
    45    32    33    2
