@<TRIPOS>MOLECULE
2nqi_NQI_A_1.pdb
 43 44 0 0 0
SMALL
GASTEIGER

@<TRIPOS>ATOM
      1  CAB        6.3540    4.5090  -22.7670 C.3   501  NQI501      0.0513
      2  CAS        7.5920    5.3840  -22.9910 C.3   501  NQI501      0.2086
      3  OBD        8.9390    4.7740  -22.7130 O.3   501  NQI501     -0.4484
      4  CBK        9.3960    5.3260  -21.5390 C.2   501  NQI501      0.3201
      5  OAK        8.5840    5.7750  -20.7310 O.2   501  NQI501     -0.2500
      6  CBS       10.8790    5.3630  -21.1580 C.3   501  NQI501      0.1519
      7  CBR       11.7840    5.8820  -22.2850 C.3   501  NQI501      0.2401
      8  OAL       11.2900    7.1170  -22.8240 O.3   501  NQI501     -0.2126
      9  CBJ       13.1980    6.1310  -21.7570 C.2   501  NQI501      0.2728
     10  OAJ       13.4090    6.9240  -20.8390 O.2   501  NQI501     -0.2706
     11  N         14.1550    5.4420  -22.3750 N.am  501  NQI501     -0.1953
     12  CA        15.5730    5.6050  -22.0090 C.3   501  NQI501      0.1771
     13  CB        16.2970    4.2800  -21.7630 C.3   501  NQI501      0.0571
     14  CAM       15.4580    3.1870  -21.6830 C.2   501  NQI501     -0.0238
     15  CAA       15.7050    2.1400  -22.5390 C.2   501  NQI501     -0.0048
     16  C         16.2700    6.2770  -23.1760 C.2   501  NQI501      0.2619
     17  O         16.4560    5.6020  -24.1850 O.2   501  NQI501     -0.2715
     18  NAZ       16.6820    7.5560  -23.0860 N.am  501  NQI501     -0.1963
     19  CBP       16.5390    8.5470  -21.9960 C.3   501  NQI501      0.1729
     20  CAW       17.8700    8.6680  -21.1930 C.3   501  NQI501      0.0348
     21  CAT       18.9520    9.5700  -21.8050 C.3   501  NQI501      0.0492
     22  CAU       19.3720   10.6550  -20.7950 C.3   501  NQI501      0.2205
     23  NAY       19.9950   11.8120  -21.4860 N.pl3 501  NQI501     -0.0865
     24  CBF       21.3240   11.8890  -21.7070 C.cat 501  NQI501      0.5346
     25  NAE       22.1530   10.9140  -21.3090 N.pl3 501  NQI501      0.1354
     26  NAD       21.8380   12.9470  -22.3320 N.pl3 501  NQI501      0.1354
     27  CBI       15.9940    9.8640  -22.6690 C.2   501  NQI501      0.2616
     28  OAI       15.3680    9.7640  -23.7380 O.2   501  NQI501     -0.2715
     29  NBB       16.2260   11.0480  -22.0490 N.am  501  NQI501     -0.1959
     30  CBQ       15.7810   12.4040  -22.5420 C.3   501  NQI501      0.1788
     31  CBG       14.2500   12.6050  -22.3830 C.2   501  NQI501      0.2809
     32  OAG       13.4400   11.8710  -22.9550 O.2   501  NQI501     -0.2698
     33  NAF       13.8990   13.6320  -21.6000 N.am  501  NQI501     -0.0863
     34  CAX       16.1990   12.7290  -24.0130 C.3   501  NQI501      0.0591
     35  CBL       16.5640   14.2170  -24.2590 C.2   501  NQI501      0.0003
     36  CBN       15.7990   15.2000  -24.9090 C.2   501  NQI501      0.0113
     37  CAQ       14.5280   15.2100  -25.5100 C.2   501  NQI501     -0.0202
     38  CAO       14.0320   16.3920  -26.0830 C.3   501  NQI501      0.0521
     39  CAN       14.8010   17.5680  -26.0600 C.2   501  NQI501     -0.0199
     40  CAP       16.0670   17.5630  -25.4630 C.2   501  NQI501      0.0148
     41  CBM       16.5610   16.3810  -24.8870 C.2   501  NQI501      0.0804
     42  NBC       17.7090   16.0950  -24.2660 N.2   501  NQI501     -0.2442
     43  CAR       17.7100   14.8060  -23.8910 C.2   501  NQI501      0.0946
@<TRIPOS>BOND
     1    38    39    1
     2    38    37    1
     3    39    40    2
     4    37    36    2
     5    40    41    1
     6    36    41    1
     7    36    35    1
     8    41    42    2
     9    42    43    1
    10    35    34    1
    11    35    43    2
    12    17    16    2
    13    34    30    1
    14    28    27    2
    15    16    18   am
    16    16    12    1
    17    18    19    1
    18     2     1    1
    19     2     3    1
    20    32    31    2
    21     8     7    1
    22     3     4    1
    23    27    29   am
    24    27    19    1
    25    30    31    1
    26    30    29    1
    27    15    14    2
    28    31    33   am
    29    11    12    1
    30    11     9   am
    31    26    24    1
    32     7     9    1
    33     7     6    1
    34    12    13    1
    35    19    20    1
    36    21    20    1
    37    21    22    1
    38    13    14    1
    39     9    10    2
    40    24    23    2
    41    24    25    1
    42     4     6    1
    43     4     5    2
    44    23    22    1
