@<TRIPOS>MOLECULE
2nqx_HEM_A_1.pdb
 43 50 0 0 0
SMALL
GASTEIGER

@<TRIPOS>ATOM
      1  CHA        8.1630    0.0210   29.2240 C.2   709  HEM709      0.0000
      2  CHB        8.5990    4.8720   29.0280 C.2   709  HEM709      0.0000
      3  CHC       10.5070    4.4630   24.5870 C.2   709  HEM709      0.0000
      4  CHD       10.3560   -0.3520   24.8830 C.2   709  HEM709      0.0000
      5  C1A        8.1230    1.3530   29.5700 C.2   709  HEM709      0.0000
      6  C2A        7.6270    1.8770   30.8250 C.2   709  HEM709      0.0000
      7  C3A        7.7380    3.2190   30.7840 C.2   709  HEM709      0.0000
      8  C4A        8.3160    3.5900   29.4920 C.2   709  HEM709      0.0000
      9  CMA        7.3340    4.2000   31.9090 C.3   709  HEM709      0.0000
     10  CAA        7.0590    1.0140   31.9830 C.3   709  HEM709      0.0000
     11  CBA        8.1770    0.2560   32.7010 C.3   709  HEM709      0.0000
     12  CGA        7.6260   -0.5880   33.8290 C.2   709  HEM709      0.0000
     13  O1A        6.6770   -0.1490   34.5500 O.co2 709  HEM709      0.0000
     14  O2A        8.1450   -1.7210   34.0170 O.co2 709  HEM709      0.0000
     15  C1B        9.1200    5.2030   27.7840 C.ar  709  HEM709      0.0000
     16  C2B        9.3290    6.5430   27.2280 C.ar  709  HEM709      0.0000
     17  C3B        9.8590    6.4110   26.0050 C.ar  709  HEM709      0.0000
     18  C4B        9.9980    4.9970   25.7440 C.ar  709  HEM709      0.0000
     19  CMB        9.0230    7.8860   27.9250 C.3   709  HEM709      0.0000
     20  CAB       10.2640    7.5330   25.0070 C.2   709  HEM709      0.0000
     21  CBB       10.6470    8.7580   25.4030 C.2   709  HEM709      0.0000
     22  C1C       10.6600    3.1350   24.2790 C.2   709  HEM709      0.0000
     23  C2C       11.2650    2.6130   23.0680 C.2   709  HEM709      0.0000
     24  C3C       11.2250    1.2620   23.1480 C.2   709  HEM709      0.0000
     25  C4C       10.5920    0.9200   24.4130 C.2   709  HEM709      0.0000
     26  CMC       11.8350    3.5000   21.9230 C.3   709  HEM709      0.0000
     27  CAC       11.7340    0.2030   22.1240 C.2   709  HEM709      0.0000
     28  CBC       12.3140    0.5120   20.9540 C.2   709  HEM709      0.0000
     29  C1D        9.6850   -0.7150   26.0340 C.ar  709  HEM709      0.0000
     30  C2D        9.2550   -2.0570   26.3520 C.ar  709  HEM709      0.0000
     31  C3D        8.5620   -1.9560   27.7080 C.ar  709  HEM709      0.0000
     32  C4D        8.6510   -0.5490   28.0660 C.ar  709  HEM709      0.0000
     33  CMD        9.4540   -3.3420   25.5220 C.3   709  HEM709      0.0000
     34  CAD        7.8980   -3.1280   28.4850 C.3   709  HEM709      0.0000
     35  CBD        6.4340   -3.2200   28.0030 C.3   709  HEM709      0.0000
     36  CGD        5.6250   -4.2330   28.7860 C.2   709  HEM709      0.0000
     37  O1D        5.7120   -5.4550   28.4740 O.co2 709  HEM709      0.0000
     38  O2D        4.8810   -3.8280   29.7210 O.co2 709  HEM709      0.0000
     39  NA         8.5340    2.4150   28.7880 N.2   709  HEM709      0.0000
     40  NB         9.5420    4.2930   26.8360 N.ar  709  HEM709      0.0000
     41  NC        10.2650    2.0800   25.0710 N.2   709  HEM709      0.0000
     42  ND         9.3140    0.1310   27.0640 N.ar  709  HEM709      0.0000
     43 FE          9.4830    2.1950   26.9730 Fe    709  HEM709      0.0000
@<TRIPOS>BOND
     1    28    27    2
     2    26    23    1
     3    27    24    1
     4    23    24    2
     5    23    22    1
     6    24    25    1
     7    22     3    2
     8    22    41    1
     9    25     4    1
    10    25    41    2
    11     3    18    1
    12     4    29    2
    13    20    21    2
    14    20    17    1
    15    41    43    1
    16    33    30    1
    17    18    17   ar
    18    18    40   ar
    19    17    16   ar
    20    29    30   ar
    21    29    42   ar
    22    30    31   ar
    23    40    43    1
    24    40    15   ar
    25    43    42    1
    26    43    39    1
    27    42    32   ar
    28    16    15   ar
    29    16    19    1
    30    31    32   ar
    31    31    34    1
    32    15     2    1
    33    35    34    1
    34    35    36    1
    35    32     1    2
    36    37    36   ar
    37    36    38   ar
    38    39     8    1
    39    39     5    2
    40     2     8    2
    41     1     5    1
    42     8     7    1
    43     5     6    1
    44     7     6    2
    45     7     9    1
    46     6    10    1
    47    10    11    1
    48    11    12    1
    49    12    14   ar
    50    12    13   ar
