@<TRIPOS>MOLECULE
2nqy_BXP_A_1.pdb
 18 19 0 0 0
SMALL
GASTEIGER

@<TRIPOS>ATOM
      1  O4B       29.5690  -31.0740   17.9420 O.3   1001  BXP1001    -0.2176
      2  C4B       30.5970  -30.9830   18.9420 C.3   1001  BXP1001     0.2143
      3  C3B       30.7610  -29.5390   19.4150 C.3   1001  BXP1001     0.2198
      4  O3B       31.1360  -28.6890   18.3260 O.3   1001  BXP1001    -0.2174
      5  C2B       31.8040  -29.4620   20.5310 C.3   1001  BXP1001     0.2406
      6  O2B       31.8600  -28.1220   21.0310 O.3   1001  BXP1001    -0.2149
      7  C5B       30.2760  -31.8810   20.1410 C.3   1001  BXP1001     0.1803
      8  O5B       31.3020  -31.7580   21.1400 O.3   1001  BXP1001    -0.3257
      9  C1B       31.4780  -30.4350   21.6730 C.3   1001  BXP1001     0.2695
     10  O4A       32.5430  -30.4110   22.6410 O.3   1001  BXP1001    -0.3257
     11  C4A       32.1690  -30.6300   24.0140 C.3   1001  BXP1001     0.1801
     12  C3A       33.2490  -31.4630   24.7220 C.3   1001  BXP1001     0.2141
     13  O3A       32.6480  -32.5510   25.4380 O.3   1001  BXP1001    -0.2176
     14  C5A       31.9440  -29.3060   24.7550 C.3   1001  BXP1001     0.1744
     15  O5A       33.1510  -28.5370   24.7970 O.3   1001  BXP1001    -0.3483
     16  C1A       34.3050  -29.1960   25.3450 C.3   1001  BXP1001     0.1777
     17  C2A       34.0950  -30.6700   25.7240 C.3   1001  BXP1001     0.2140
     18  O2A       35.3620  -31.3330   25.8860 O.3   1001  BXP1001    -0.2176
@<TRIPOS>BOND
     1     1     2    1
     2     4     3    1
     3     2     3    1
     4     2     7    1
     5     3     5    1
     6     7     8    1
     7     5     6    1
     8     5     9    1
     9     8     9    1
    10     9    10    1
    11    10    11    1
    12    11    12    1
    13    11    14    1
    14    12    13    1
    15    12    17    1
    16    14    15    1
    17    15    16    1
    18    16    17    1
    19    17    18    1
