@<TRIPOS>MOLECULE
2nqy_XYP_A_1.pdb
 10 10 0 0 0
SMALL
GASTEIGER

@<TRIPOS>ATOM
      1  O4A       32.9400  -28.7870   29.1360 O.3   3001  XYP3001    -0.1869
      2  C1B       34.0310  -28.1670   29.8370 C.3   3001  XYP3001     0.3024
      3  C2B       35.3390  -28.9130   29.5670 C.3   3001  XYP3001     0.2434
      4  C3B       36.4770  -28.2430   30.3320 C.3   3001  XYP3001     0.2199
      5  C4B       36.5590  -26.7790   29.9020 C.3   3001  XYP3001     0.2143
      6  C5B       35.2190  -26.0850   30.1380 C.3   3001  XYP3001     0.1804
      7  O2B       35.2550  -30.2830   29.9600 O.3   3001  XYP3001    -0.2148
      8  O3B       37.7070  -28.9420   30.0790 O.3   3001  XYP3001    -0.2174
      9  O4B       37.5940  -26.1110   30.6130 O.3   3001  XYP3001    -0.2176
     10  O5B       34.1830  -26.7920   29.4390 O.3   3001  XYP3001    -0.3237
@<TRIPOS>BOND
     1     1     2    1
     2    10     2    1
     3    10     6    1
     4     3     2    1
     5     3     7    1
     6     3     4    1
     7     5     6    1
     8     5     4    1
     9     5     9    1
    10     8     4    1
