@<TRIPOS>MOLECULE
2nqz_PRF_A_1.pdb
 13 14 0 0 0
SMALL
GASTEIGER

@<TRIPOS>ATOM
      1  N1        16.5030   16.7940   24.2240 N.2   500  PRF500     -0.2490
      2  C2        15.2250   16.3760   23.9030 C.1   500  PRF500      0.2607
      3  N3        14.8470   16.1380   22.6820 N.2   500  PRF500     -0.2698
      4  C4        15.8770   16.3450   21.6570 C.1   500  PRF500      0.1086
      5  C5        17.1390   16.7520   21.9090 C.2   500  PRF500      0.1649
      6  C6        17.4750   16.9950   23.3160 C.1   500  PRF500      0.2257
      7  O6        18.5910   17.3670   23.6470 O.2   500  PRF500     -0.2079
      8  C7        17.7680   16.8130   20.6420 C.2   500  PRF500      0.0222
      9  C10       19.1890   17.2070   20.2930 C.3   500  PRF500      0.1348
     10  N11       19.2950   16.9770   18.8310 N.3   500  PRF500     -0.1265
     11  C8        16.8450   16.4400   19.7120 C.3   500  PRF500      0.1624
     12  N9        15.6290   16.1360   20.3420 N.2   500  PRF500     -0.2042
     13  N2        14.4380   16.2480   24.9760 N.pl3 500  PRF500     -0.0220
@<TRIPOS>BOND
     1    10     9    1
     2    11    12    1
     3    11     8    1
     4     9     8    1
     5    12     4    2
     6     8     5    2
     7     4     5    1
     8     4     3    2
     9     5     6    1
    10     3     2    2
    11     6     7    2
    12     6     1    2
    13     2     1    2
    14     2    13    1
