@<TRIPOS>MOLECULE
2nr4_FMN_A_1.pdb
 31 33 0 0 0
SMALL
GASTEIGER

@<TRIPOS>ATOM
      1  N1        42.4330   45.7550   22.3030 N.2   401  FMN401     -0.2887
      2  C2        41.8020   46.1800   23.4530 C.1   401  FMN401      0.3669
      3  O2        41.4240   47.3470   23.5170 O.2   401  FMN401     -0.1744
      4  N3        41.6330   45.3200   24.5170 N.2   401  FMN401     -0.2300
      5  C4        42.0760   44.0090   24.4310 C.1   401  FMN401      0.2513
      6  O4        41.7460   43.1790   25.2690 O.2   401  FMN401     -0.2057
      7  C4A       42.7040   43.5700   23.2680 C.2   401  FMN401      0.2706
      8  N5        43.1640   42.2670   23.1610 N.2   401  FMN401     -0.3841
      9  C5A       43.7730   41.8220   21.9960 C.2   401  FMN401      0.1452
     10  C6        44.2150   40.4960   21.9000 C.2   401  FMN401      0.0252
     11  C7        44.8230   40.0400   20.7390 C.2   401  FMN401     -0.0375
     12  C7M       45.3450   38.6310   20.7050 C.3   401  FMN401      0.0268
     13  C8        45.0080   40.9370   19.6650 C.3   401  FMN401      0.0417
     14  C8M       45.5020   40.4720   18.3470 C.3   401  FMN401      0.0091
     15  C9        44.5750   42.2670   19.7540 C.2   401  FMN401     -0.0049
     16  C9A       43.9400   42.7070   20.9300 C.2   401  FMN401      0.0795
     17  N10       43.4920   44.0240   21.0460 N.pl3 401  FMN401     -0.2545
     18  C10       42.8810   44.4550   22.2050 C.2   401  FMN401      0.2449
     19  C1'       43.8090   45.0240   19.9750 C.3   401  FMN401      0.1336
     20  C2'       42.5860   45.1720   19.0780 C.3   401  FMN401      0.2048
     21  O2'       42.1630   43.9060   18.6470 O.3   401  FMN401     -0.2185
     22  C3'       42.9890   45.9650   17.8570 C.3   401  FMN401      0.2165
     23  O3'       43.3990   47.2550   18.2770 O.3   401  FMN401     -0.2175
     24  C4'       41.8550   46.0270   16.8360 C.3   401  FMN401      0.2147
     25  O4'       42.4420   46.5300   15.6620 O.3   401  FMN401     -0.2176
     26  C5'       40.7050   46.9330   17.2960 C.3   401  FMN401      0.1892
     27  O5'       39.8610   47.2490   16.2080 O.3   401  FMN401     -0.2674
     28  P         38.4670   48.0740   16.3190 P.3   401  FMN401      0.5327
     29  O1P       38.8470   49.5430   16.0660 O.3   401  FMN401     -0.1145
     30  O2P       37.9260   47.9480   17.7620 O.3   401  FMN401     -0.1145
     31  O3P       37.5510   47.5750   15.1990 O.2   401  FMN401     -0.2224
@<TRIPOS>BOND
     1    31    28    2
     2    25    24    1
     3    29    28    1
     4    27    28    1
     5    27    26    1
     6    28    30    1
     7    24    26    1
     8    24    22    1
     9    22    23    1
    10    22    20    1
    11    14    13    1
    12    21    20    1
    13    20    19    1
    14    13    15    1
    15    13    11    1
    16    15    16    2
    17    19    17    1
    18    12    11    1
    19    11    10    2
    20    16    17    1
    21    16     9    1
    22    17    18    1
    23    10     9    1
    24     9     8    2
    25    18     1    2
    26    18     7    1
    27     1     2    2
    28     8     7    2
    29     7     5    1
    30     2     3    2
    31     2     4    2
    32     5     4    2
    33     5     6    2
