@<TRIPOS>MOLECULE
2nr9_PA6_A_1.pdb
 18 17 0 0 0
SMALL
GASTEIGER

@<TRIPOS>ATOM
      1  O32      -33.4320    0.4860   17.9500 O.2   201  PA6201     -0.2501
      2  C31      -33.2210   -0.2350   18.9120 C.2   201  PA6201      0.3171
      3  C32      -32.4560    0.2880   20.1060 C.3   201  PA6201      0.1096
      4  C33      -31.1410   -0.4690   20.2500 C.3   201  PA6201      0.0116
      5  C34      -30.2060    0.2380   21.2230 C.3   201  PA6201      0.0006
      6  C35      -30.5140   -0.1520   22.6520 C.3   201  PA6201      0.0000
      7  O31      -33.7170   -1.6060   18.8910 O.3   201  PA6201     -0.4444
      8  C3       -34.6280   -2.0700   19.8890 C.3   201  PA6201      0.2543
      9  C2       -36.0490   -1.6200   19.5570 C.3   201  PA6201      0.2427
     10  O21      -36.7500   -2.6720   18.8940 O.3   201  PA6201     -0.4381
     11  C21      -37.6350   -3.5430   19.6520 C.2   201  PA6201      0.4182
     12  O22      -38.8420   -3.3620   19.6260 O.2   201  PA6201     -0.2375
     13  C1       -36.7810   -1.2700   20.8450 C.3   201  PA6201      0.2010
     14  O11      -35.8770   -1.3520   21.9430 O.3   201  PA6201     -0.2662
     15  P        -35.5680   -0.0460   22.8270 P.3   201  PA6201      0.5327
     16  O13      -34.6160   -0.5380   23.8920 O.3   201  PA6201     -0.1145
     17  O14      -34.9590    0.9200   21.8370 O.2   201  PA6201     -0.2224
     18  O12      -36.9240    0.3690   23.3460 O.3   201  PA6201     -0.1145
@<TRIPOS>BOND
     1     1     2    2
     2     7     2    1
     3     7     8    1
     4    10     9    1
     5    10    11    1
     6     2     3    1
     7     9     8    1
     8     9    13    1
     9    12    11    2
    10     3     4    1
    11     4     5    1
    12    13    14    1
    13     5     6    1
    14    17    15    2
    15    14    15    1
    16    15    18    1
    17    15    16    1
