@<TRIPOS>MOLECULE
2nr9_PQE_A_1.pdb
 37 36 0 0 0
SMALL
GASTEIGER

@<TRIPOS>ATOM
      1  O47      -14.8660    2.9690   35.7830 O.3   204  PQE204     -0.2176
      2  C68      -14.4080    3.6310   34.5940 C.3   204  PQE204      0.2140
      3  C52      -12.8850    3.5600   34.5160 C.3   204  PQE204      0.1777
      4  O70      -12.4580    3.6750   33.1560 O.3   204  PQE204     -0.3483
      5  C55      -12.3140    2.3980   32.5360 C.3   204  PQE204      0.1742
      6  C58      -11.7610    2.5690   31.1260 C.3   204  PQE204      0.1741
      7  O71      -12.6040    1.8880   30.1970 O.3   204  PQE204     -0.3511
      8  C61      -12.0140    0.6760   29.7200 C.3   204  PQE204      0.1423
      9  C62      -11.7970    0.7850   28.2160 C.3   204  PQE204      0.0322
     10  C63      -11.2500   -0.5100   27.6330 C.3   204  PQE204      0.0052
     11  C66      -11.2940   -0.4730   26.1090 C.3   204  PQE204      0.0322
     12  C67      -10.0530   -1.1150   25.5080 C.3   204  PQE204      0.1423
     13  O72       -9.5570   -0.2990   24.4480 O.3   204  PQE204     -0.3511
     14  C65       -9.8890   -0.8280   23.1650 C.3   204  PQE204      0.1741
     15  C64       -9.6170   -2.3290   23.1400 C.3   204  PQE204      0.1742
     16  O73       -9.9140   -2.8360   21.8390 O.3   204  PQE204     -0.3484
     17  C60       -9.4960   -4.1930   21.6790 C.3   204  PQE204      0.1742
     18  C59       -9.5340   -4.5580   20.1980 C.3   204  PQE204      0.1742
     19  O74       -8.2060   -4.6420   19.6850 O.3   204  PQE204     -0.3484
     20  C57       -7.5920   -5.8840   20.0230 C.3   204  PQE204      0.1742
     21  C56       -7.5180   -6.7650   18.7830 C.3   204  PQE204      0.1742
     22  O75       -8.2930   -7.9460   18.9770 O.3   204  PQE204     -0.3484
     23  C54       -8.6800   -8.5250   17.7330 C.3   204  PQE204      0.1742
     24  C53       -8.2530   -9.9880   17.6910 C.3   204  PQE204      0.1741
     25  O76       -8.7170  -10.5730   16.4750 O.3   204  PQE204     -0.3511
     26  C51       -8.1570  -11.8650   16.2560 C.3   204  PQE204      0.1423
     27  C50       -9.1630  -12.7320   15.5080 C.3   204  PQE204      0.0321
     28  C49       -8.9970  -14.1990   15.8860 C.3   204  PQE204      0.0026
     29  C48       -8.9060  -15.0770   14.6420 C.3   204  PQE204      0.0001
     30  C47       -7.6970  -16.0050   14.7090 C.3   204  PQE204      0.0000
     31  C46       -7.8850  -17.2220   13.8080 C.3   204  PQE204      0.0000
     32  C45       -7.1350  -17.0540   12.4900 C.3   204  PQE204      0.0000
     33  C44       -7.8430  -17.7920   11.3570 C.3   204  PQE204      0.0000
     34  C43       -6.9180  -17.9750   10.1580 C.3   204  PQE204      0.0000
     35  C42       -7.4180  -19.0900    9.2440 C.3   204  PQE204      0.0000
     36  C41       -6.6590  -20.3900    9.4920 C.3   204  PQE204      0.0000
     37  C40       -6.1390  -20.9770    8.1970 C.3   204  PQE204      0.0000
@<TRIPOS>BOND
     1    37    36    1
     2    35    36    1
     3    35    34    1
     4    34    33    1
     5    33    32    1
     6    32    31    1
     7    31    30    1
     8    29    30    1
     9    29    28    1
    10    27    28    1
    11    27    26    1
    12    26    25    1
    13    25    24    1
    14    24    23    1
    15    23    22    1
    16    21    22    1
    17    21    20    1
    18    19    20    1
    19    19    18    1
    20    18    17    1
    21    17    16    1
    22    16    15    1
    23    15    14    1
    24    14    13    1
    25    13    12    1
    26    12    11    1
    27    11    10    1
    28    10     9    1
    29     9     8    1
    30     8     7    1
    31     7     6    1
    32     6     5    1
    33     5     4    1
    34     4     3    1
    35     3     2    1
    36     2     1    1
