@<TRIPOS>MOLECULE
2nrl_HEM_A_1.pdb
 43 50 0 0 0
SMALL
GASTEIGER

@<TRIPOS>ATOM
      1 FE          0.3210   -0.2010   15.2060 Fe    148  HEM148      0.0000
      2  CHA       -3.0820   -0.0510   14.9170 C.2   148  HEM148      0.0000
      3  CHB        0.6200    2.3370   12.9130 C.2   148  HEM148      0.0000
      4  CHC        3.7320   -0.4290   15.3600 C.2   148  HEM148      0.0000
      5  CHD        0.0420   -2.9310   17.2690 C.2   148  HEM148      0.0000
      6  NA        -0.9580    0.8980   14.1350 N.ar  148  HEM148      0.0000
      7  C1A       -2.3390    0.8700   14.1780 C.ar  148  HEM148      0.0000
      8  C2A       -2.9100    1.9030   13.3220 C.ar  148  HEM148      0.0000
      9  C3A       -1.8780    2.5510   12.7580 C.ar  148  HEM148      0.0000
     10  C4A       -0.6500    1.9240   13.2470 C.ar  148  HEM148      0.0000
     11  CMA       -1.9170    3.7160   11.7900 C.3   148  HEM148      0.0000
     12  CAA       -4.3820    2.2280   13.1800 C.3   148  HEM148      0.0000
     13  CBA       -4.7500    3.5060   13.9620 C.3   148  HEM148      0.0000
     14  CGA       -4.4330    3.3960   15.4340 C.2   148  HEM148      0.0000
     15  O1A       -5.0210    2.4980   16.0890 O.co2 148  HEM148      0.0000
     16  O2A       -3.5810    4.1750   15.9520 O.co2 148  HEM148      0.0000
     17  NB         1.8430    0.7700   14.3420 N.2   148  HEM148      0.0000
     18  C1B        1.7820    1.8150   13.4290 C.2   148  HEM148      0.0000
     19  C2B        3.1170    2.2800   13.0740 C.2   148  HEM148      0.0000
     20  C3B        3.9780    1.5000   13.7650 C.2   148  HEM148      0.0000
     21  C4B        3.1940    0.5500   14.5390 C.2   148  HEM148      0.0000
     22  CMB        3.3700    3.3790   12.0880 C.3   148  HEM148      0.0000
     23  CAB        5.4980    1.5200   13.7570 C.2   148  HEM148      0.0000
     24  CBB        6.1620    2.7090   13.8070 C.2   148  HEM148      0.0000
     25  NC         1.6120   -1.3880   16.1630 N.ar  148  HEM148      0.0000
     26  C1C        2.9950   -1.3570   16.0720 C.ar  148  HEM148      0.0000
     27  C2C        3.5740   -2.4630   16.8170 C.ar  148  HEM148      0.0000
     28  C3C        2.5520   -3.1790   17.3240 C.ar  148  HEM148      0.0000
     29  C4C        1.3100   -2.5040   16.9400 C.ar  148  HEM148      0.0000
     30  CMC        5.0570   -2.7240   16.9140 C.3   148  HEM148      0.0000
     31  CAC        2.5930   -4.4460   18.1130 C.2   148  HEM148      0.0000
     32  CBC        3.6710   -5.2170   18.1510 C.2   148  HEM148      0.0000
     33  ND        -1.1880   -1.2360   15.9500 N.2   148  HEM148      0.0000
     34  C1D       -1.1200   -2.3620   16.7820 C.2   148  HEM148      0.0000
     35  C2D       -2.4360   -2.9070   17.0500 C.2   148  HEM148      0.0000
     36  C3D       -3.3500   -2.0790   16.3380 C.2   148  HEM148      0.0000
     37  C4D       -2.5450   -1.0710   15.6830 C.2   148  HEM148      0.0000
     38  CMD       -2.7740   -4.1030   17.8730 C.3   148  HEM148      0.0000
     39  CAD       -4.8340   -2.2870   16.2240 C.3   148  HEM148      0.0000
     40  CBD       -5.1790   -3.1320   14.9900 C.3   148  HEM148      0.0000
     41  CGD       -6.6670   -3.3180   14.8160 C.2   148  HEM148      0.0000
     42  O1D       -7.3960   -3.4920   15.8250 O.co2 148  HEM148      0.0000
     43  O2D       -7.1370   -3.3060   13.6460 O.co2 148  HEM148      0.0000
@<TRIPOS>BOND
     1    11     9    1
     2    22    19    1
     3     9    10   ar
     4     9     8   ar
     5     3    10    2
     6     3    18    1
     7    19    18    1
     8    19    20    2
     9    12     8    1
    10    12    13    1
    11    10     6   ar
    12     8     7   ar
    13    18    17    2
    14    43    41   ar
    15    23    20    1
    16    23    24    2
    17    20    21    1
    18    13    14    1
    19     6     7   ar
    20     6     1    1
    21     7     2    2
    22    17    21    1
    23    17     1    1
    24    21     4    2
    25    41    40    1
    26    41    42   ar
    27     2    37    1
    28    40    39    1
    29     1    33    1
    30     1    25    1
    31     4    26    1
    32    14    16   ar
    33    14    15   ar
    34    37    33    2
    35    37    36    1
    36    33    34    1
    37    26    25   ar
    38    26    27   ar
    39    25    29   ar
    40    39    36    1
    41    36    35    2
    42    34    35    1
    43    34     5    2
    44    27    30    1
    45    27    28   ar
    46    29     5    1
    47    29    28   ar
    48    35    38    1
    49    28    31    1
    50    31    32    2
