@<TRIPOS>MOLECULE
2nrm_HEM_A_1.pdb
 43 50 0 0 0
SMALL
GASTEIGER

@<TRIPOS>ATOM
      1  CHA       -3.0210    0.1300   15.2900 C.2   148  HEM148      0.0000
      2  CHB        0.7290    2.3940   13.2880 C.2   148  HEM148      0.0000
      3  CHC        3.7600   -0.4640   15.6500 C.2   148  HEM148      0.0000
      4  CHD        0.0500   -2.8770   17.5300 C.2   148  HEM148      0.0000
      5  C1A       -2.2720    1.0430   14.5540 C.ar  148  HEM148      0.0000
      6  C2A       -2.8060    2.0870   13.7290 C.ar  148  HEM148      0.0000
      7  C3A       -1.7490    2.7180   13.1720 C.ar  148  HEM148      0.0000
      8  C4A       -0.5680    2.0300   13.6490 C.ar  148  HEM148      0.0000
      9  CMA       -1.7460    3.9440   12.2210 C.3   148  HEM148      0.0000
     10  CAA       -4.2670    2.4890   13.5530 C.3   148  HEM148      0.0000
     11  CBA       -4.9010    2.9300   14.8710 C.3   148  HEM148      0.0000
     12  CGA       -4.0880    3.9160   15.6410 C.2   148  HEM148      0.0000
     13  O1A       -3.6540    3.5430   16.7490 O.co2 148  HEM148      0.0000
     14  O2A       -3.8890    5.0480   15.1370 O.co2 148  HEM148      0.0000
     15  C1B        1.8870    1.8340   13.7690 C.2   148  HEM148      0.0000
     16  C2B        3.2140    2.2600   13.4170 C.2   148  HEM148      0.0000
     17  C3B        4.0550    1.4560   14.0610 C.2   148  HEM148      0.0000
     18  C4B        3.2800    0.5280   14.8310 C.2   148  HEM148      0.0000
     19  CMB        3.5600    3.4020   12.4600 C.3   148  HEM148      0.0000
     20  CAB        5.5780    1.4690   14.0440 C.2   148  HEM148      0.0000
     21  CBB        6.1700    1.6980   12.8700 C.2   148  HEM148      0.0000
     22  C1C        3.0350   -1.4150   16.3720 C.ar  148  HEM148      0.0000
     23  C2C        3.5700   -2.5550   17.0750 C.ar  148  HEM148      0.0000
     24  C3C        2.5180   -3.2300   17.5640 C.ar  148  HEM148      0.0000
     25  C4C        1.3180   -2.5060   17.2270 C.ar  148  HEM148      0.0000
     26  CMC        5.0430   -2.8400   17.1310 C.3   148  HEM148      0.0000
     27  CAC        2.5270   -4.5160   18.3370 C.2   148  HEM148      0.0000
     28  CBC        3.6040   -5.2890   18.4810 C.2   148  HEM148      0.0000
     29  C1D       -1.1190   -2.2810   17.0920 C.2   148  HEM148      0.0000
     30  C2D       -2.4310   -2.7650   17.3720 C.2   148  HEM148      0.0000
     31  C3D       -3.3470   -1.9120   16.6840 C.2   148  HEM148      0.0000
     32  C4D       -2.5380   -0.9360   16.0440 C.2   148  HEM148      0.0000
     33  CMD       -2.8100   -4.0020   18.1910 C.3   148  HEM148      0.0000
     34  CAD       -4.8400   -2.0700   16.5970 C.3   148  HEM148      0.0000
     35  CBD       -5.2250   -2.9630   15.4030 C.3   148  HEM148      0.0000
     36  CGD       -6.7210   -3.0990   15.2360 C.2   148  HEM148      0.0000
     37  O1D       -7.3630   -3.4070   16.2680 O.co2 148  HEM148      0.0000
     38  O2D       -7.1800   -2.9700   14.0780 O.co2 148  HEM148      0.0000
     39  NA        -0.9170    1.0320   14.4840 N.ar  148  HEM148      0.0000
     40  NB         1.9520    0.7840   14.6430 N.2   148  HEM148      0.0000
     41  NC         1.6600   -1.4130   16.4840 N.ar  148  HEM148      0.0000
     42  ND        -1.2030   -1.1470   16.3000 N.2   148  HEM148      0.0000
     43 FE          0.3760   -0.1480   15.5280 Fe    148  HEM148      0.0000
@<TRIPOS>BOND
     1     9     7    1
     2    19    16    1
     3    21    20    2
     4     7     8   ar
     5     7     6   ar
     6     2     8    2
     7     2    15    1
     8    16    15    1
     9    16    17    2
    10    10     6    1
    11    10    11    1
    12     8    39   ar
    13     6     5   ar
    14    15    40    2
    15    20    17    1
    16    17    18    1
    17    38    36   ar
    18    39     5   ar
    19    39    43    1
    20     5     1    2
    21    40    18    1
    22    40    43    1
    23    18     3    2
    24    11    12    1
    25    14    12   ar
    26    36    35    1
    27    36    37   ar
    28     1    32    1
    29    35    34    1
    30    43    42    1
    31    43    41    1
    32    12    13   ar
    33     3    22    1
    34    32    42    2
    35    32    31    1
    36    42    29    1
    37    22    41   ar
    38    22    23   ar
    39    41    25   ar
    40    34    31    1
    41    31    30    2
    42    23    26    1
    43    23    24   ar
    44    29    30    1
    45    29     4    2
    46    25     4    1
    47    25    24   ar
    48    30    33    1
    49    24    27    1
    50    27    28    2
