@<TRIPOS>MOLECULE
2nru_T12_A_1.pdb
 32 34 0 0 0
SMALL
GASTEIGER

@<TRIPOS>ATOM
      1  O56       33.2680   10.7240  -12.3470 O.2   600  T12600     -0.1261
      2  N54       32.3830   10.2530  -11.3660 N.pl3 600  T12600      0.0577
      3  O55       31.3260   11.1210  -10.9820 O.2   600  T12600     -0.1261
      4  C13       32.5500    8.9720  -10.8020 C.ar  600  T12600      0.1430
      5  C12       33.6080    8.1270  -11.2030 C.ar  600  T12600      0.0241
      6  C11       33.7660    6.8440  -10.6730 C.ar  600  T12600      0.0018
      7  C10       32.8580    6.4030   -9.6970 C.ar  600  T12600      0.0047
      8  C14       31.6380    8.5320   -9.8330 C.ar  600  T12600      0.0286
      9  C15       31.8000    7.2530   -9.2940 C.ar  600  T12600      0.0571
     10  C51       30.8490    6.7880   -8.2280 C.2   600  T12600      0.2721
     11  O53       30.8050    5.5460   -7.8860 O.2   600  T12600     -0.2679
     12  N50       30.0490    7.6130   -7.6340 N.am  600  T12600     -0.1317
     13  C21       29.4120    7.3550   -6.4740 C.2   600  T12600      0.2683
     14  N22       29.5050    6.1960   -5.7340 N.2   600  T12600     -0.3740
     15  C3        28.6280    6.4220   -4.7000 C.2   600  T12600      0.1332
     16  C4        28.3380    5.6750   -3.5800 C.3   600  T12600      0.1248
     17  C5        27.4550    6.2070   -2.6540 C.2   600  T12600      0.1331
     18  O23       27.1200    5.5040   -1.6890 O.3   600  T12600     -0.4281
     19  C24       27.8470    5.5000   -0.4510 C.2   600  T12600      0.3201
     20  O26       28.9330    6.1990   -0.4440 O.2   600  T12600     -0.2497
     21  C25       27.2420    4.8030    0.7310 C.3   600  T12600      0.0900
     22  C35       28.2380    4.3710    1.8140 C.3   600  T12600      0.0111
     23  C31       26.2950    5.8500    1.3060 C.3   600  T12600      0.0111
     24  C27       26.5370    3.5660    0.1710 C.3   600  T12600      0.0111
     25  C6        26.8780    7.4470   -2.7840 C.2   600  T12600      0.0348
     26  C2        28.1080    7.7170   -4.7950 C.2   600  T12600      0.0807
     27  C1        27.2360    8.2110   -3.8750 C.2   600  T12600      0.0200
     28  N20       28.5910    8.2390   -5.9480 N.pl3 600  T12600     -0.2470
     29  C39       28.2450    9.5130   -6.4220 C.3   600  T12600      0.1020
     30  C40       29.1340   10.7460   -6.3800 C.3   600  T12600      0.0574
     31  C43       29.7990   10.9210   -5.0420 C.3   600  T12600      0.1839
     32  O46       28.7830   11.1580   -4.0650 O.3   600  T12600     -0.2204
@<TRIPOS>BOND
     1     1     2    2
     2     2     3    2
     3     2     4    1
     4     5     4   ar
     5     5     6   ar
     6     4     8   ar
     7     6     7   ar
     8     8     9   ar
     9     7     9   ar
    10     9    10    1
    11    10    11    2
    12    10    12   am
    13    12    13    1
    14    13    28    1
    15    13    14    2
    16    29    30    1
    17    29    28    1
    18    30    31    1
    19    28    26    1
    20    14    15    2
    21    31    32    1
    22    26    15    1
    23    26    27    2
    24    15    16    1
    25    27    25    1
    26    16    17    1
    27    25    17    2
    28    17    18    1
    29    18    19    1
    30    19    20    2
    31    19    21    1
    32    24    21    1
    33    21    23    1
    34    21    22    1
