@<TRIPOS>MOLECULE
2nry_STU_A_1.pdb
 35 42 0 0 0
SMALL
GASTEIGER

@<TRIPOS>ATOM
      1  O4        75.3680   29.0360   69.7230 O.3   504  STU504     -0.3186
      2  C25       75.2920   28.4530   68.4440 C.3   504  STU504      0.2078
      3  C24       74.5770   29.2950   67.4120 C.3   504  STU504      0.0739
      4  C23       73.9510   30.5520   68.1220 C.3   504  STU504      0.1086
      5  C22       73.1410   30.0680   69.3300 C.3   504  STU504      0.1761
      6  C21       74.1900   29.5330   70.3370 C.3   504  STU504      0.1915
      7  C26       74.6360   30.7890   71.1370 C.3   504  STU504      0.0566
      8  N2        73.5410   28.5400   71.2160 N.ar  504  STU504     -0.3054
      9  C18       73.5660   27.1990   70.8550 C.ar  504  STU504      0.0774
     10  C19       74.1600   26.5710   69.7450 C.ar  504  STU504      0.0783
     11  C6        74.0490   25.1690   69.6220 C.ar  504  STU504      0.0293
     12  C7        73.3390   24.4130   70.5870 C.ar  504  STU504      0.0822
     13  C10       72.7470   25.0650   71.6750 C.ar  504  STU504      0.0154
     14  C11       72.8670   26.4530   71.8160 C.ar  504  STU504      0.0173
     15  C12       72.3540   27.4010   72.7980 C.ar  504  STU504      0.0171
     16  C17       72.8070   28.6870   72.3940 C.ar  504  STU504      0.0617
     17  C16       72.4430   29.8250   73.1650 C.ar  504  STU504      0.0172
     18  C15       71.6780   29.6570   74.3350 C.ar  504  STU504      0.0015
     19  C14       71.2680   28.3810   74.7520 C.ar  504  STU504      0.0001
     20  C13       71.6140   27.2200   73.9850 C.ar  504  STU504      0.0015
     21  C9        72.0580   23.9910   72.4960 C.3   504  STU504      0.1650
     22  N1        72.3000   22.7230   71.7790 N.2   504  STU504     -0.1976
     23  C8        73.0640   22.9560   70.7140 C.1   504  STU504      0.1501
     24  O5        73.4750   22.1130   69.9350 O.2   504  STU504     -0.2222
     25  C5        74.7280   24.8120   68.3840 C.ar  504  STU504      0.0180
     26  C20       75.2560   26.0010   67.8590 C.ar  504  STU504      0.0618
     27  C1        76.0090   25.9900   66.6850 C.ar  504  STU504      0.0172
     28  C2        76.2030   24.7690   66.0550 C.ar  504  STU504      0.0015
     29  C3        75.6770   23.5880   66.5810 C.ar  504  STU504      0.0001
     30  C4        74.9070   23.5510   67.7480 C.ar  504  STU504      0.0015
     31  N3        74.8750   27.0480   68.6860 N.ar  504  STU504     -0.3039
     32  O6        72.2360   29.0720   68.7700 O.3   504  STU504     -0.3478
     33  C27       70.9440   28.9780   69.3820 C.3   504  STU504      0.1743
     34  N4        73.0720   31.3280   67.1940 N.3   504  STU504     -0.2152
     35  C28       72.5520   32.5980   67.8120 C.3   504  STU504      0.1075
@<TRIPOS>BOND
     1    28    29   ar
     2    28    27   ar
     3    29    30   ar
     4    27    26   ar
     5    34    35    1
     6    34     4    1
     7     3     4    1
     8     3     2    1
     9    30    25   ar
    10    26    25   ar
    11    26    31   ar
    12     4     5    1
    13    25    11   ar
    14     2    31    1
    15     2     1    1
    16    31    10   ar
    17    32     5    1
    18    32    33    1
    19     5     6    1
    20    11    10   ar
    21    11    12   ar
    22     1     6    1
    23    10     9   ar
    24    24    23    2
    25     6     7    1
    26     6     8    1
    27    12    23    1
    28    12    13   ar
    29    23    22    2
    30     9     8   ar
    31     9    14   ar
    32     8    16   ar
    33    13    14   ar
    34    13    21    1
    35    22    21    1
    36    14    15   ar
    37    16    15   ar
    38    16    17   ar
    39    15    20   ar
    40    17    18   ar
    41    20    19   ar
    42    18    19   ar
