@<TRIPOS>MOLECULE
2ns1_ADP_B_1.pdb
 27 29 0 0 0
SMALL
GASTEIGER

@<TRIPOS>ATOM
      1  PB        18.1240    5.9660  126.7230 P.3   200  ADP200      0.5373
      2  O1B       17.0020    5.2560  127.4330 O.3   200  ADP200     -0.1143
      3  O2B       18.5840    7.1920  127.4360 O.3   200  ADP200     -0.1143
      4  O3B       19.2020    5.0380  126.2530 O.2   200  ADP200     -0.2221
      5  PA        16.4470    7.6890  125.0410 P.3   200  ADP200      0.2231
      6  O1A       16.4990    8.0490  123.5710 O.2   200  ADP200     -0.5169
      7  O2A       16.5090    8.8140  126.0290 O.3   200  ADP200     -0.4370
      8  O3A       17.5290    6.5070  125.3050 O.3   200  ADP200     -0.2261
      9  O5'       15.0490    6.9520  125.2570 O.3   200  ADP200     -0.3111
     10  C5'       14.8110    5.7330  124.5930 C.3   200  ADP200      0.1813
     11  C4'       13.3090    5.4610  124.4980 C.3   200  ADP200      0.1821
     12  O4'       12.7270    5.3280  125.7890 O.3   200  ADP200     -0.3135
     13  C3'       12.5450    6.5790  123.8020 C.3   200  ADP200      0.2184
     14  O3'       12.5730    6.4250  122.3850 O.3   200  ADP200     -0.2174
     15  C2'       11.1580    6.4640  124.3880 C.3   200  ADP200      0.2570
     16  O2'       10.3270    5.5310  123.6840 O.3   200  ADP200     -0.2130
     17  C1'       11.4030    5.9090  125.7630 C.3   200  ADP200      0.3186
     18  N9        11.3730    6.8900  126.8540 N.pl3 200  ADP200     -0.1439
     19  C8        12.3860    7.7110  127.2100 C.3   200  ADP200      0.3377
     20  N7        12.0500    8.4420  128.2950 N.2   200  ADP200     -0.2095
     21  C5        10.8020    8.0820  128.6450 C.2   200  ADP200      0.2526
     22  C6         9.8620    8.4560  129.6990 C.2   200  ADP200      0.4393
     23  N6        10.2020    9.3920  130.6120 N.pl3 200  ADP200      0.2180
     24  N1         8.6500    7.8550  129.7110 N.2   200  ADP200      0.0021
     25  C2         8.3010    6.9170  128.8110 C.3   200  ADP200      0.5254
     26  N3         9.1190    6.5250  127.8130 N.2   200  ADP200     -0.0055
     27  C4        10.3530    7.0590  127.6910 C.2   200  ADP200      0.3518
@<TRIPOS>BOND
     1    14    13    1
     2     6     5    2
     3    16    15    1
     4    13    15    1
     5    13    11    1
     6    15    17    1
     7    11    10    1
     8    11    12    1
     9    10     9    1
    10     5     9    1
    11     5     8    1
    12     5     7    1
    13     8     1    1
    14    17    12    1
    15    17    18    1
    16     4     1    2
    17     1     2    1
    18     1     3    1
    19    18    19    1
    20    18    27    1
    21    19    20    1
    22    27    26    2
    23    27    21    1
    24    26    25    1
    25    20    21    2
    26    21    22    1
    27    25    24    1
    28    22    24    2
    29    22    23    1
