@<TRIPOS>MOLECULE
2ns8_III_Z_1.pdb
 43 46 0 0 0
SMALL
GASTEIGER

@<TRIPOS>ATOM
      1  N         40.9610   72.3160   18.9940 N.3     1  TRP1       -0.1227
      2  CA        40.4440   73.6280   18.4740 C.3     1  TRP1        0.1734
      3  C         41.1540   74.8750   18.9650 C.2     1  TRP1        0.2596
      4  O         41.4450   75.0110   20.1670 O.2     1  TRP1       -0.2718
      5  CB        38.9750   73.7930   18.8120 C.3     1  TRP1        0.0527
      6  CG        38.0740   73.5720   17.6830 C.2     1  TRP1       -0.0139
      7  CD1       38.3650   73.0180   16.4690 C.2     1  TRP1        0.0907
      8  CD2       36.6880   73.8490   17.6750 C.3     1  TRP1        0.0819
      9  NE1       37.2390   72.9580   15.6970 N.2     1  TRP1       -0.2482
     10  CE2       36.1900   73.4560   16.4170 C.2     1  TRP1        0.0665
     11  CE3       35.8100   74.3900   18.6170 C.2     1  TRP1       -0.0164
     12  CZ2       34.8560   73.5940   16.0700 C.2     1  TRP1        0.0153
     13  CZ3       34.4820   74.5360   18.2730 C.2     1  TRP1       -0.0038
     14  CH2       34.0160   74.1400   17.0080 C.2     1  TRP1        0.0009
     15  N         41.3280   75.8100   18.0190 N.am    2  THR2       -0.1939
     16  CA        42.1300   77.0400   18.2060 C.3     2  THR2        0.2028
     17  C         41.3600   78.3160   17.8560 C.2     2  THR2        0.2642
     18  O         41.1140   78.5970   16.6840 O.2     2  THR2       -0.2714
     19  CB        43.4290   76.9970   17.3210 C.3     2  THR2        0.1808
     20  OG1       44.3190   75.9750   17.8100 O.3     2  THR2       -0.2208
     21  CG2       44.1580   78.3810   17.2730 C.3     2  THR2        0.0379
     22  N         41.0250   79.0990   18.8750 N.am    3  TRP3       -0.1959
     23  CA        40.3300   80.3880   18.6880 C.3     3  TRP3        0.1768
     24  C         41.3320   81.5290   18.4000 C.2     3  TRP3        0.2619
     25  O         42.5100   81.3810   18.6820 O.2     3  TRP3       -0.2715
     26  CB        39.4530   80.6760   19.9200 C.3     3  TRP3        0.0553
     27  CG        38.4170   79.5600   20.2110 C.2     3  TRP3       -0.0136
     28  CD1       38.4330   78.6640   21.2510 C.2     3  TRP3        0.0907
     29  CD2       37.2400   79.2440   19.4390 C.3     3  TRP3        0.0819
     30  NE1       37.3410   77.8200   21.1750 N.2     3  TRP3       -0.2482
     31  CE2       36.6040   78.1490   20.0690 C.2     3  TRP3        0.0665
     32  CE3       36.6720   79.7750   18.2730 C.2     3  TRP3       -0.0164
     33  CZ2       35.4220   77.5940   19.5840 C.2     3  TRP3        0.0153
     34  CZ3       35.5020   79.2100   17.7870 C.2     3  TRP3       -0.0038
     35  CH2       34.8880   78.1350   18.4450 C.2     3  TRP3        0.0009
     36  N         40.8790   82.6400   17.8150 N.am    4  ASN4       -0.1972
     37  CA        41.7550   83.8140   17.5560 C.3     4  ASN4        0.1688
     38  C         41.3470   85.0610   18.3380 C.2     4  ASN4        0.2292
     39  O         42.2140   85.8020   18.8320 O.2     4  ASN4       -0.2864
     40  CB        41.8100   84.1560   16.0510 C.3     4  ASN4        0.1181
     41  CG        42.6330   83.1420   15.2290 C.2     4  ASN4        0.2629
     42  OD1       42.3240   82.8710   14.0600 O.2     4  ASN4       -0.2716
     43  ND2       43.6780   82.5800   15.8420 N.am    4  ASN4       -0.0877
@<TRIPOS>BOND
     1    42    41    2
     2    41    43   am
     3    41    40    1
     4     9    10    2
     5     9     7    1
     6    40    37    1
     7    12    10    1
     8    12    14    2
     9    10     8    1
    10     7     6    2
    11    18    17    2
    12    14    13    1
    13    21    19    1
    14    19    20    1
    15    19    16    1
    16    37    36    1
    17    37    38    1
    18     8     6    1
    19     8    11    1
    20     6     5    1
    21    34    32    2
    22    34    35    1
    23    36    24   am
    24    17    16    1
    25    17    22   am
    26    15    16    1
    27    15     3   am
    28    13    11    2
    29    32    29    1
    30    38    39    2
    31    24    25    2
    32    24    23    1
    33    35    33    2
    34     2     5    1
    35     2     3    1
    36     2     1    1
    37    23    22    1
    38    23    26    1
    39     3     4    2
    40    29    31    1
    41    29    27    1
    42    33    31    1
    43    26    27    1
    44    31    30    2
    45    27    28    2
    46    30    28    1
