@<TRIPOS>MOLECULE
2nsd_NAD_A_1.pdb
 44 48 0 0 0
SMALL
GASTEIGER

@<TRIPOS>ATOM
      1  PA        48.3390   42.9730   34.9740 P.3   300  NAD300      0.2189
      2  O1A       47.2010   42.9980   35.9000 O.3   300  NAD300     -0.4371
      3  O2A       47.6460   41.7240   34.4580 O.2   300  NAD300     -0.5170
      4  O5B       48.3920   43.1170   33.3620 O.3   300  NAD300     -0.3112
      5  C5B       49.6190   43.0990   32.6450 C.3   300  NAD300      0.1813
      6  C4B       49.7260   41.8790   31.7240 C.3   300  NAD300      0.1821
      7  O4B       50.9880   41.9990   31.0710 O.3   300  NAD300     -0.3135
      8  C3B       49.8080   40.5250   32.4850 C.3   300  NAD300      0.2184
      9  O3B       48.7680   39.6340   32.1360 O.3   300  NAD300     -0.2174
     10  C2B       51.1970   40.0110   32.1310 C.3   300  NAD300      0.2570
     11  O2B       51.3640   38.6030   32.1190 O.3   300  NAD300     -0.2130
     12  C1B       51.3690   40.6830   30.7960 C.3   300  NAD300      0.3186
     13  N9A       52.7160   40.6630   30.2100 N.pl3 300  NAD300     -0.1439
     14  C8A       53.8910   41.1810   30.6910 C.3   300  NAD300      0.3377
     15  N7A       54.8780   40.9030   29.8120 N.2   300  NAD300     -0.2095
     16  C5A       54.3480   40.2160   28.7740 C.2   300  NAD300      0.2526
     17  C6A       54.8740   39.6470   27.5670 C.2   300  NAD300      0.4393
     18  N6A       56.1600   39.7450   27.2620 N.pl3 300  NAD300      0.2180
     19  N1A       54.0110   38.9850   26.6970 N.2   300  NAD300      0.0021
     20  C2A       52.6520   38.8660   26.9970 C.3   300  NAD300      0.5254
     21  N3A       52.1390   39.4060   28.1610 N.2   300  NAD300     -0.0055
     22  C4A       52.9810   40.0600   29.0250 C.2   300  NAD300      0.3518
     23  O3        48.0370   44.5560   34.6730 O.3   300  NAD300     -0.2703
     24  PN        46.6720   45.4400   34.7000 P.3   300  NAD300      0.2189
     25  O1N       45.4520   44.6050   34.5990 O.2   300  NAD300     -0.5170
     26  O2N       46.7630   46.3400   35.8630 O.3   300  NAD300     -0.4371
     27  O5D       46.8260   46.3700   33.4090 O.3   300  NAD300     -0.3112
     28  C5D       46.7780   45.8430   32.1130 C.3   300  NAD300      0.1813
     29  C4D       46.8950   46.9710   31.0820 C.3   300  NAD300      0.1799
     30  O4D       46.0920   48.0970   31.4920 O.3   300  NAD300     -0.3327
     31  C3D       48.3000   47.5310   30.8850 C.3   300  NAD300      0.2158
     32  O3D       48.5170   47.8390   29.5130 O.3   300  NAD300     -0.2175
     33  C2D       48.3090   48.7440   31.7610 C.3   300  NAD300      0.2309
     34  O2D       49.3640   49.6350   31.4870 O.3   300  NAD300     -0.2158
     35  C1D       46.8970   49.2600   31.5250 C.3   300  NAD300      0.2263
     36  N1N       46.3660   50.2310   32.5380 N.pl3 300  NAD300     -0.2787
     37  C2N       46.3590   49.8660   33.8830 C.3   300  NAD300      0.1244
     38  C3N       45.8830   50.7720   34.8460 C.2   300  NAD300      0.0544
     39  C7N       45.8810   50.3860   36.2940 C.2   300  NAD300      0.2818
     40  O7N       45.4200   51.3120   37.1870 O.2   300  NAD300     -0.2670
     41  N7N       46.3000   49.2140   36.7510 N.am  300  NAD300     -0.0839
     42  C4N       45.4130   52.0450   34.4210 C.2   300  NAD300      0.0033
     43  C5N       45.4210   52.3930   33.0460 C.2   300  NAD300      0.0157
     44  C6N       45.9030   51.4760   32.1150 C.2   300  NAD300      0.0633
@<TRIPOS>BOND
     1    19    20    1
     2    19    17    2
     3    20    21    1
     4    18    17    1
     5    17    16    1
     6    21    22    2
     7    16    22    1
     8    16    15    2
     9    22    13    1
    10    32    31    1
    11    15    14    1
    12    13    14    1
    13    13    12    1
    14    12     7    1
    15    12    10    1
    16    31    29    1
    17    31    33    1
    18     7     6    1
    19    29    30    1
    20    29    28    1
    21    34    33    1
    22    30    35    1
    23    35    33    1
    24    35    36    1
    25     6     8    1
    26     6     5    1
    27    28    27    1
    28    44    36    1
    29    44    43    2
    30    11    10    1
    31    10     8    1
    32     9     8    1
    33    36    37    1
    34     5     4    1
    35    43    42    1
    36     4     1    1
    37    27    24    1
    38    37    38    1
    39    42    38    2
    40     3     1    2
    41    25    24    2
    42    23    24    1
    43    23     1    1
    44    24    26    1
    45    38    39    1
    46     1     2    1
    47    39    41   am
    48    39    40    2
