@<TRIPOS>MOLECULE
2nsd_4PI_A_1.pdb
 22 24 0 0 0
SMALL
GASTEIGER

@<TRIPOS>ATOM
      1  C1        51.4380   46.9630   34.6410 C.ar  400  4PI400     -0.0218
      2  C2        50.0420   47.2610   34.6660 C.ar  400  4PI400     -0.0041
      3  C3        49.6100   48.6160   34.7070 C.ar  400  4PI400      0.0042
      4  C7        50.0360   51.0730   37.1380 C.3   400  4PI400      0.0937
      5  C8        50.1960   51.9300   38.3900 C.3   400  4PI400      0.0219
      6  C9        49.5010   53.2650   38.2850 C.3   400  4PI400      0.0078
      7  C10       50.0110   54.0160   37.0460 C.3   400  4PI400      0.0219
      8  C11       49.8050   53.2150   35.7570 C.3   400  4PI400      0.0937
      9  C21       48.7520   55.4100   39.9530 C.ar  400  4PI400     -0.0222
     10  C22       47.8070   55.4210   40.5960 C.ar  400  4PI400     -0.0043
     11  C24       47.7830   57.8960   40.2340 C.ar  400  4PI400     -0.0000
     12  C27       51.8480   45.6370   34.6010 C.3   400  4PI400      0.0310
     13  C31       50.0090   51.0510   34.6560 C.2   400  4PI400      0.2490
     14  N12       50.4280   51.7730   35.8140 N.am  400  4PI400     -0.2761
     15  C23       47.1860   56.7100   40.7870 C.ar  400  4PI400     -0.0003
     16  C25       49.0160   57.7970   39.4830 C.ar  400  4PI400     -0.0003
     17  C26       49.6310   56.5140   39.2970 C.ar  400  4PI400     -0.0043
     18  O32       49.2990   51.5200   33.8720 O.2   400  4PI400     -0.2699
     19  C37       49.7350   54.0370   39.6100 C.3   400  4PI400      0.0265
     20  C4        50.5880   49.6840   34.7210 C.ar  400  4PI400      0.0536
     21  C5        52.0050   49.3750   34.6990 C.ar  400  4PI400      0.0042
     22  C6        52.4260   48.0100   34.6570 C.ar  400  4PI400     -0.0041
@<TRIPOS>BOND
     1    18    13    2
     2    12     1    1
     3     1    22   ar
     4     1     2   ar
     5    13    20    1
     6    13    14   am
     7    22    21   ar
     8     2     3   ar
     9    21    20   ar
    10     3    20   ar
    11     8    14    1
    12     8     7    1
    13    14     4    1
    14     7     6    1
    15     4     5    1
    16     6     5    1
    17     6    19    1
    18    17    16   ar
    19    17     9   ar
    20    16    11   ar
    21    19     9    1
    22     9    10   ar
    23    11    15   ar
    24    10    15   ar
