@<TRIPOS>MOLECULE
2nse_HEM_A_1.pdb
 43 50 0 0 0
SMALL
GASTEIGER

@<TRIPOS>ATOM
      1  CHA        9.1380    9.0770   34.9120 C.2   500  HEM500      0.0000
      2  CHB        4.6070    8.9860   33.5110 C.2   500  HEM500      0.0000
      3  CHC        6.0880    7.4220   29.2690 C.2   500  HEM500      0.0000
      4  CHD       10.4750    6.6890   30.9460 C.2   500  HEM500      0.0000
      5  C1A        7.7760    9.3140   34.8380 C.2   500  HEM500      0.0000
      6  C2A        6.9930   10.1420   35.7410 C.2   500  HEM500      0.0000
      7  C3A        5.7050   10.0380   35.3910 C.2   500  HEM500      0.0000
      8  C4A        5.7130    9.2210   34.2130 C.2   500  HEM500      0.0000
      9  CMA        4.5040   10.6700   36.0440 C.3   500  HEM500      0.0000
     10  CAA        7.4910   11.0920   36.8150 C.3   500  HEM500      0.0000
     11  CBA        8.4300   12.1570   36.2550 C.3   500  HEM500      0.0000
     12  CGA        8.7840   13.2470   37.2640 C.2   500  HEM500      0.0000
     13  O1A        7.9810   13.5030   38.1860 O.co2 500  HEM500      0.0000
     14  O2A        9.8660   13.8580   37.1190 O.co2 500  HEM500      0.0000
     15  C1B        4.6400    8.3860   32.3100 C.ar  500  HEM500      0.0000
     16  C2B        3.4630    8.3990   31.4880 C.ar  500  HEM500      0.0000
     17  C3B        3.8750    7.9720   30.2430 C.ar  500  HEM500      0.0000
     18  C4B        5.3060    7.7320   30.3600 C.ar  500  HEM500      0.0000
     19  CMB        2.1060    8.8740   31.9490 C.3   500  HEM500      0.0000
     20  CAB        3.0760    7.8630   29.0870 C.2   500  HEM500      0.0000
     21  CBB        3.1170    6.8890   28.1340 C.2   500  HEM500      0.0000
     22  C1C        7.4210    7.1830   29.3140 C.2   500  HEM500      0.0000
     23  C2C        8.2180    6.7360   28.1760 C.2   500  HEM500      0.0000
     24  C3C        9.4670    6.4810   28.6510 C.2   500  HEM500      0.0000
     25  C4C        9.4180    6.7760   30.0750 C.2   500  HEM500      0.0000
     26  CMC        7.7290    6.6070   26.7520 C.3   500  HEM500      0.0000
     27  CAC       10.5860    5.9880   27.9940 C.2   500  HEM500      0.0000
     28  CBC       10.6770    5.3090   26.8210 C.2   500  HEM500      0.0000
     29  C1D       10.4560    7.2100   32.2350 C.ar  500  HEM500      0.0000
     30  C2D       11.6470    7.3740   33.0420 C.ar  500  HEM500      0.0000
     31  C3D       11.2960    8.1440   34.0890 C.ar  500  HEM500      0.0000
     32  C4D        9.8860    8.4100   33.9580 C.ar  500  HEM500      0.0000
     33  CMD       13.0290    6.7970   32.8070 C.3   500  HEM500      0.0000
     34  CAD       12.3100    8.6870   35.0760 C.3   500  HEM500      0.0000
     35  CBD       12.2720   10.1930   35.3010 C.3   500  HEM500      0.0000
     36  CGD       13.5200   10.7090   35.9940 C.2   500  HEM500      0.0000
     37  O1D       14.2350    9.8980   36.6210 O.co2 500  HEM500      0.0000
     38  O2D       13.7950   11.9260   35.8980 O.co2 500  HEM500      0.0000
     39  NA         6.9690    8.8030   33.8510 N.2   500  HEM500      0.0000
     40  NB         5.7610    7.9470   31.6550 N.ar  500  HEM500      0.0000
     41  NC         8.1560    7.2150   30.4820 N.2   500  HEM500      0.0000
     42  ND         9.3740    7.8210   32.8140 N.ar  500  HEM500      0.0000
     43 FE          7.5350    7.7120   32.3270 Fe    500  HEM500      0.0000
@<TRIPOS>BOND
     1    26    23    1
     2    28    27    2
     3    27    24    1
     4    21    20    2
     5    23    24    2
     6    23    22    1
     7    24    25    1
     8    20    17    1
     9     3    22    2
    10     3    18    1
    11    22    41    1
    12    25    41    2
    13    25     4    1
    14    17    18   ar
    15    17    16   ar
    16    18    40   ar
    17    41    43    1
    18     4    29    2
    19    16    19    1
    20    16    15   ar
    21    40    15   ar
    22    40    43    1
    23    29    42   ar
    24    29    30   ar
    25    15     2    1
    26    43    42    1
    27    43    39    1
    28    33    30    1
    29    42    32   ar
    30    30    31   ar
    31     2     8    2
    32    39     8    1
    33    39     5    2
    34    32    31   ar
    35    32     1    2
    36    31    34    1
    37     8     7    1
    38     5     1    1
    39     5     6    1
    40    34    35    1
    41    35    36    1
    42     7     6    2
    43     7     9    1
    44     6    10    1
    45    38    36   ar
    46    36    37   ar
    47    11    10    1
    48    11    12    1
    49    14    12   ar
    50    12    13   ar
