@<TRIPOS>MOLECULE
2nse_ARG_A_1.pdb
 12 11 0 0 0
SMALL
GASTEIGER

@<TRIPOS>ATOM
      1  N          7.8390   15.8110   35.3050 N.3   700  ARG700     -0.1208
      2  CA         8.3730   16.3000   33.9960 C.3   700  ARG700      0.1944
      3  C          7.5650   17.4960   33.4870 C.2   700  ARG700      0.3819
      4  O          8.0350   18.1800   32.5490 O.co2 700  ARG700     -0.2441
      5  CB         8.2870   15.2090   32.9390 C.3   700  ARG700      0.0343
      6  CG         8.9760   13.9070   33.2610 C.3   700  ARG700      0.0490
      7  CD         8.5940   12.8200   32.2490 C.3   700  ARG700      0.2205
      8  NE         7.1420   12.6210   32.1740 N.pl3 700  ARG700     -0.0865
      9  CZ         6.5290   11.8410   31.2860 C.cat 700  ARG700      0.5346
     10  NH1        7.2350   11.1700   30.3780 N.pl3 700  ARG700      0.1354
     11  NH2        5.2070   11.7300   31.3090 N.pl3 700  ARG700      0.1354
     12  OXT        6.4810   17.7550   34.0490 O.co2 700  ARG700     -0.2441
@<TRIPOS>BOND
     1    10     9    1
     2     9    11    1
     3     9     8    2
     4     8     7    1
     5     7     6    1
     6     4     3   ar
     7     5     6    1
     8     5     2    1
     9     3     2    1
    10     3    12   ar
    11     2     1    1
