@<TRIPOS>MOLECULE
2nse_H4B_A_1.pdb
 17 18 0 0 0
SMALL
GASTEIGER

@<TRIPOS>ATOM
      1  N1         8.1780   11.8690   42.8260 N.2   600  H4B600     -0.2683
      2  C2         8.1150   12.2180   41.5200 C.1   600  H4B600      0.2608
      3  N2         7.2520   11.6760   40.6990 N.pl3 600  H4B600     -0.0220
      4  N3         8.9580   13.1690   41.0770 N.2   600  H4B600     -0.2474
      5  C4         9.9070   13.8140   41.8670 C.1   600  H4B600      0.2441
      6  O4        10.6460   14.6710   41.3670 O.2   600  H4B600     -0.2063
      7  C4A        9.8970   13.4240   43.2040 C.2   600  H4B600      0.2463
      8  C8A        9.0590   12.4530   43.6850 C.1   600  H4B600      0.1270
      9  N5        10.8570   14.0500   44.0380 N.2   600  H4B600     -0.2460
     10  N8         9.1300   12.0190   44.9650 N.2   600  H4B600     -0.2054
     11  C6        11.2450   13.1620   45.1980 C.3   600  H4B600      0.1627
     12  C7        10.0260   12.6800   45.8880 C.3   600  H4B600      0.1643
     13  C9        12.1720   13.9990   46.0630 C.3   600  H4B600      0.2063
     14  O9        11.5910   15.2520   46.4230 O.3   600  H4B600     -0.2183
     15  C10       12.6370   13.2450   47.3140 C.3   600  H4B600      0.1842
     16  C11       13.6730   14.0160   48.0270 C.3   600  H4B600      0.0383
     17  O10       13.2000   11.9900   46.8700 O.3   600  H4B600     -0.2204
@<TRIPOS>BOND
     1     3     2    1
     2     4     2    2
     3     4     5    2
     4     6     5    2
     5     2     1    2
     6     5     7    1
     7     1     8    2
     8     7     8    1
     9     7     9    2
    10     8    10    2
    11     9    11    1
    12    10    12    1
    13    11    12    1
    14    11    13    1
    15    13    14    1
    16    13    15    1
    17    17    15    1
    18    15    16    1
