@<TRIPOS>MOLECULE
2nsh_NIA_A_1.pdb
 22 23 0 0 0
SMALL
GASTEIGER

@<TRIPOS>ATOM
      1  O8        16.5940  -10.5620   -9.8970 O.2   300  NIA300     -0.2224
      2  P         15.6770  -11.8610   -9.5430 P.3   300  NIA300      0.5327
      3  O6        14.5700  -11.4460   -8.4140 O.3   300  NIA300     -0.1145
      4  O7        16.4900  -13.0480   -9.1470 O.3   300  NIA300     -0.1145
      5  O5'       14.9010  -12.2110  -10.9120 O.3   300  NIA300     -0.2675
      6  C5'       14.0070  -11.2850  -11.4790 C.3   300  NIA300      0.1859
      7  C4'       13.4710  -11.8760  -12.7260 C.3   300  NIA300      0.1798
      8  C3'       12.6950  -13.1390  -12.3080 C.3   300  NIA300      0.2155
      9  O3'       11.3270  -12.9890  -12.6680 O.3   300  NIA300     -0.2176
     10  C2'       13.3390  -14.2260  -13.1730 C.3   300  NIA300      0.2273
     11  O2'       12.3560  -15.1090  -13.7770 O.3   300  NIA300     -0.2161
     12  O4'       14.6680  -12.3630  -13.4310 O.3   300  NIA300     -0.3353
     13  C1'       14.0840  -13.3790  -14.2270 C.3   300  NIA300      0.2143
     14  N1        14.9120  -14.3410  -14.9090 N.3   300  NIA300     -0.1774
     15  C5        14.6900  -14.6500  -16.1710 C.3   300  NIA300      0.2722
     16  N6        13.7690  -14.0830  -16.9890 N.3   300  NIA300     -0.1010
     17  C4        15.6080  -15.6160  -16.4810 C.2   300  NIA300      0.4293
     18  N7        15.6130  -16.1660  -17.6720 N.pl3 300  NIA300      0.2281
     19  O72       14.5970  -15.7910  -18.6410 O.2   300  NIA300     -0.0129
     20  O71       16.5100  -17.1660  -17.9320 O.2   300  NIA300     -0.0129
     21  N3        16.3700  -15.9100  -15.4090 N.2   300  NIA300     -0.0386
     22  C2        15.9160  -15.1170  -14.4360 C.3   300  NIA300      0.3458
@<TRIPOS>BOND
     1    19    18    2
     2    20    18    2
     3    18    17    1
     4    16    15    1
     5    17    15    1
     6    17    21    2
     7    15    14    1
     8    21    22    1
     9    14    22    1
    10    14    13    1
    11    13    12    1
    12    13    10    1
    13    11    10    1
    14    12     7    1
    15    10     8    1
    16     7     8    1
    17     7     6    1
    18     9     8    1
    19     6     5    1
    20     5     2    1
    21     1     2    2
    22     2     4    1
    23     2     3    1
