@<TRIPOS>MOLECULE
2nsi_H4B_A_1.pdb
 17 18 0 0 0
SMALL
GASTEIGER

@<TRIPOS>ATOM
      1  N1        14.7450   64.7630   25.3600 N.2   600  H4B600     -0.2683
      2  C2        14.2120   64.7850   24.1180 C.1   600  H4B600      0.2608
      3  N2        12.9650   64.4570   23.8720 N.pl3 600  H4B600     -0.0220
      4  N3        14.9950   65.1650   23.0900 N.2   600  H4B600     -0.2474
      5  C4        16.3310   65.5520   23.1920 C.1   600  H4B600      0.2441
      6  O4        16.9350   65.8850   22.1470 O.2   600  H4B600     -0.2063
      7  C4A       16.8330   65.5010   24.5210 C.2   600  H4B600      0.2463
      8  C8A       16.0520   65.1090   25.5970 C.1   600  H4B600      0.1270
      9  N5        18.2300   65.8670   24.7120 N.2   600  H4B600     -0.2460
     10  N8        16.5030   65.0570   26.8470 N.2   600  H4B600     -0.2054
     11  C6        18.8130   65.2150   25.9630 C.3   600  H4B600      0.1627
     12  C7        17.8830   65.4170   27.1410 C.3   600  H4B600      0.1643
     13  C9        20.2250   65.7910   26.1580 C.3   600  H4B600      0.2063
     14  O9        20.3000   67.2150   26.2220 O.3   600  H4B600     -0.2183
     15  C10       20.8970   65.2050   27.4170 C.3   600  H4B600      0.1842
     16  C11       22.3390   65.5850   27.4820 C.3   600  H4B600      0.0383
     17  O10       20.7460   63.7760   27.2800 O.3   600  H4B600     -0.2204
@<TRIPOS>BOND
     1     6     5    2
     2     4     5    2
     3     4     2    2
     4     5     7    1
     5     3     2    1
     6     2     1    2
     7     7     9    2
     8     7     8    1
     9     9    11    1
    10     1     8    2
    11     8    10    2
    12    11    13    1
    13    11    12    1
    14    13    14    1
    15    13    15    1
    16    10    12    1
    17    17    15    1
    18    15    16    1
