@<TRIPOS>MOLECULE
2nsi_HEM_A_1.pdb
 43 50 0 0 0
SMALL
GASTEIGER

@<TRIPOS>ATOM
      1 FE          7.5850   59.3740   18.4730 Fe    550  HEM550      0.0000
      2  CHA       10.6300   60.3820   19.5450 C.2   550  HEM550      0.0000
      3  CHB        6.2650   62.2810   19.6790 C.2   550  HEM550      0.0000
      4  CHC        4.9710   59.2000   16.3500 C.2   550  HEM550      0.0000
      5  CHD        9.0360   56.8000   16.9100 C.2   550  HEM550      0.0000
      6  NA         8.3000   60.9450   19.4090 N.2   550  HEM550      0.0000
      7  C1A        9.5920   61.2270   19.7420 C.2   550  HEM550      0.0000
      8  C2A        9.7040   62.4990   20.4090 C.2   550  HEM550      0.0000
      9  C3A        8.4750   62.9970   20.5130 C.2   550  HEM550      0.0000
     10  C4A        7.5990   62.0340   19.8990 C.2   550  HEM550      0.0000
     11  CMA        8.0990   64.3560   21.0630 C.3   550  HEM550      0.0000
     12  CAA       10.9670   63.2240   20.8190 C.3   550  HEM550      0.0000
     13  CBA       11.7090   63.7540   19.5990 C.3   550  HEM550      0.0000
     14  CGA       13.0290   64.4210   19.9470 C.2   550  HEM550      0.0000
     15  O1A       13.1340   64.9950   21.0590 O.co2 550  HEM550      0.0000
     16  O2A       13.9560   64.3660   19.1040 O.co2 550  HEM550      0.0000
     17  NB         5.9030   60.3770   18.2230 N.ar  550  HEM550      0.0000
     18  C1B        5.4730   61.5130   18.8830 C.ar  550  HEM550      0.0000
     19  C2B        4.1580   61.9140   18.4680 C.ar  550  HEM550      0.0000
     20  C3B        3.7910   61.0630   17.5020 C.ar  550  HEM550      0.0000
     21  C4B        4.8840   60.1180   17.3500 C.ar  550  HEM550      0.0000
     22  CMB        3.2950   63.0140   19.0540 C.3   550  HEM550      0.0000
     23  CAB        2.6190   61.1640   16.7590 C.2   550  HEM550      0.0000
     24  CBB        1.6540   60.2190   16.8250 C.2   550  HEM550      0.0000
     25  NC         7.1080   58.2700   16.9700 N.2   550  HEM550      0.0000
     26  C1C        6.0180   58.3530   16.1520 C.2   550  HEM550      0.0000
     27  C2C        6.0330   57.3270   15.1180 C.2   550  HEM550      0.0000
     28  C3C        7.1450   56.5750   15.3450 C.2   550  HEM550      0.0000
     29  C4C        7.8010   57.1940   16.4720 C.2   550  HEM550      0.0000
     30  CMC        4.9720   57.1380   14.0360 C.3   550  HEM550      0.0000
     31  CAC        7.6010   55.4040   14.7460 C.2   550  HEM550      0.0000
     32  CBC        6.9220   54.4890   14.0030 C.2   550  HEM550      0.0000
     33  ND         9.3940   58.6670   18.3940 N.ar  550  HEM550      0.0000
     34  C1D        9.7980   57.5020   17.7900 C.ar  550  HEM550      0.0000
     35  C2D       11.1970   57.2390   17.9960 C.ar  550  HEM550      0.0000
     36  C3D       11.6800   58.2840   18.6810 C.ar  550  HEM550      0.0000
     37  C4D       10.5520   59.1730   18.9250 C.ar  550  HEM550      0.0000
     38  CMD       12.0020   56.0520   17.4890 C.3   550  HEM550      0.0000
     39  CAD       13.1460   58.5600   18.9430 C.3   550  HEM550      0.0000
     40  CBD       13.5790   59.5630   17.8770 C.3   550  HEM550      0.0000
     41  CGD       14.9540   60.1340   18.1340 C.2   550  HEM550      0.0000
     42  O1D       15.8110   59.3910   18.6500 O.co2 550  HEM550      0.0000
     43  O2D       15.1730   61.3260   17.8250 O.co2 550  HEM550      0.0000
@<TRIPOS>BOND
     1    32    31    2
     2    30    27    1
     3    31    28    1
     4    27    28    2
     5    27    26    1
     6    28    29    1
     7    26     4    2
     8    26    25    1
     9     4    21    1
    10    29     5    1
    11    29    25    2
    12    23    24    2
    13    23    20    1
    14     5    34    2
    15    25     1    1
    16    21    20   ar
    17    21    17   ar
    18    38    35    1
    19    20    19   ar
    20    34    35   ar
    21    34    33   ar
    22    43    41   ar
    23    40    41    1
    24    40    39    1
    25    35    36   ar
    26    41    42   ar
    27    17     1    1
    28    17    18   ar
    29    33     1    1
    30    33    37   ar
    31    19    18   ar
    32    19    22    1
    33     1     6    1
    34    36    37   ar
    35    36    39    1
    36    18     3    1
    37    37     2    2
    38    16    14   ar
    39     6     7    2
    40     6    10    1
    41     2     7    1
    42    13    14    1
    43    13    12    1
    44     3    10    2
    45     7     8    1
    46    10     9    1
    47    14    15   ar
    48     8     9    2
    49     8    12    1
    50     9    11    1
