@<TRIPOS>MOLECULE
2nsj_C2R_A_1.pdb
 22 23 0 0 0
SMALL
GASTEIGER

@<TRIPOS>ATOM
      1  PA        15.5640  -11.8810   -9.3190 P.3   242  C2R242      0.5327
      2  O1A       14.3970  -11.6720   -8.2320 O.3   242  C2R242     -0.1145
      3  O2A       16.5400  -12.9080   -8.8910 O.3   242  C2R242     -0.1145
      4  O3A       16.2460  -10.4420   -9.5460 O.2   242  C2R242     -0.2224
      5  O5'       14.8440  -12.2660  -10.7060 O.3   242  C2R242     -0.2675
      6  C2'       13.1750  -14.2940  -13.1020 C.3   242  C2R242      0.2570
      7  O2'       12.1660  -15.1680  -13.6140 O.3   242  C2R242     -0.2130
      8  C3'       12.5560  -13.1890  -12.2440 C.3   242  C2R242      0.2184
      9  O3'       11.1950  -12.9750  -12.6260 O.3   242  C2R242     -0.2174
     10  C5'       14.0040  -11.3230  -11.3740 C.3   242  C2R242      0.1860
     11  C4'       13.3950  -11.9630  -12.6220 C.3   242  C2R242      0.1823
     12  O4'       14.4280  -12.4540  -13.4930 O.3   242  C2R242     -0.3135
     13  C1'       13.7390  -13.4570  -14.2480 C.3   242  C2R242      0.3187
     14  N1        14.6400  -14.3110  -15.0520 N.pl3 242  C2R242     -0.1400
     15  C5        14.5680  -14.5100  -16.3640 C.2   242  C2R242      0.4033
     16  C4        15.4910  -15.4970  -16.6800 C.2   242  C2R242      0.2467
     17  N3        16.1150  -15.8450  -15.5590 N.2   242  C2R242     -0.2103
     18  C2        15.5900  -15.1150  -14.5760 C.3   242  C2R242      0.3378
     19  N5        13.8350  -13.8080  -17.2220 N.2   242  C2R242      0.1953
     20  C6        15.6850  -16.1390  -18.0540 C.2   242  C2R242      0.4123
     21  O7        14.9580  -15.7400  -18.9890 O.co2 242  C2R242     -0.2386
     22  O8        16.5450  -17.0400  -18.1630 O.co2 242  C2R242     -0.2386
@<TRIPOS>BOND
     1    21    20   ar
     2    22    20   ar
     3    20    16    1
     4    19    15    2
     5    16    15    1
     6    16    17    2
     7    15    14    1
     8    17    18    1
     9    14    18    1
    10    14    13    1
    11    13    12    1
    12    13     6    1
    13     7     6    1
    14    12    11    1
    15     6     8    1
    16     9     8    1
    17    11     8    1
    18    11    10    1
    19    10     5    1
    20     5     1    1
    21     4     1    2
    22     1     3    1
    23     1     2    1
