@<TRIPOS>MOLECULE
2nsl_C2R_A_1.pdb
 22 23 0 0 0
SMALL
GASTEIGER

@<TRIPOS>ATOM
      1  PA        15.5900  -11.6380   -9.4290 P.3   300  C2R300      0.5327
      2  O1A       16.4120  -12.9650   -9.0360 O.3   300  C2R300     -0.1145
      3  O2A       14.5510  -11.3900   -8.2250 O.3   300  C2R300     -0.1145
      4  O3A       16.4640  -10.4730   -9.6880 O.2   300  C2R300     -0.2224
      5  O5'       14.6990  -12.0440  -10.7070 O.3   300  C2R300     -0.2675
      6  C2'       13.1420  -14.0120  -13.0640 C.3   300  C2R300      0.2570
      7  O2'       12.1960  -14.9550  -13.5740 O.3   300  C2R300     -0.2130
      8  C3'       12.4230  -12.9180  -12.2750 C.3   300  C2R300      0.2184
      9  O3'       11.0870  -12.7740  -12.7640 O.3   300  C2R300     -0.2174
     10  C5'       13.8620  -11.0750  -11.3420 C.3   300  C2R300      0.1860
     11  C4'       13.2410  -11.6660  -12.6090 C.3   300  C2R300      0.1823
     12  O4'       14.2830  -12.0960  -13.5020 O.3   300  C2R300     -0.3135
     13  C1'       13.6720  -13.1730  -14.2240 C.3   300  C2R300      0.3187
     14  N1        14.6290  -13.9900  -15.0020 N.pl3 300  C2R300     -0.1400
     15  C5        14.5190  -14.3090  -16.2870 C.2   300  C2R300      0.4033
     16  C4        15.5330  -15.2080  -16.5790 C.2   300  C2R300      0.2467
     17  N3        16.2440  -15.3900  -15.4710 N.2   300  C2R300     -0.2103
     18  C2        15.6860  -14.6420  -14.5190 C.3   300  C2R300      0.3378
     19  N5        13.6380  -13.8050  -17.1480 N.2   300  C2R300      0.1953
     20  C6        15.7230  -15.9450  -17.9060 C.2   300  C2R300      0.4123
     21  O7        14.9970  -15.6090  -18.8670 O.co2 300  C2R300     -0.2386
     22  O8        16.5850  -16.8500  -17.9530 O.co2 300  C2R300     -0.2386
@<TRIPOS>BOND
     1    21    20   ar
     2    22    20   ar
     3    20    16    1
     4    19    15    2
     5    16    15    1
     6    16    17    2
     7    15    14    1
     8    17    18    1
     9    14    18    1
    10    14    13    1
    11    13    12    1
    12    13     6    1
    13     7     6    1
    14    12    11    1
    15     6     8    1
    16     9     8    1
    17    11     8    1
    18    11    10    1
    19    10     5    1
    20     5     1    1
    21     4     1    2
    22     1     2    1
    23     1     3    1
