@<TRIPOS>MOLECULE
2nsm_NAG_A_1.pdb
 14 14 0 0 0
SMALL
GASTEIGER

@<TRIPOS>ATOM
      1  C1       -99.4560    1.2950   11.8090 C.3   1775  NAG1775     0.1665
      2  C2      -100.9850    1.4600   11.5810 C.3   1775  NAG1775     0.1576
      3  C3      -101.6160    2.0810   12.8410 C.3   1775  NAG1775     0.2069
      4  C4      -101.3480    1.1240   14.0150 C.3   1775  NAG1775     0.2134
      5  C5       -99.8170    0.9720   14.1830 C.3   1775  NAG1775     0.1809
      6  C6       -99.5230    0.0120   15.3440 C.3   1775  NAG1775     0.2141
      7  C7      -102.1880    1.9520    9.5050 C.2   1775  NAG1775     0.2420
      8  C8      -102.4690    2.8170    8.3160 C.3   1775  NAG1775     0.0964
      9  N2      -101.2420    2.3240   10.4220 N.am  1775  NAG1775    -0.2019
     10  O3      -103.0240    2.2380   12.6580 O.3   1775  NAG1775    -0.2184
     11  O4      -101.9210    1.6660   15.2130 O.3   1775  NAG1775    -0.2176
     12  O5       -99.2220    0.4270   12.9600 O.3   1775  NAG1775    -0.3489
     13  O6       -98.1060   -0.1320   15.5040 O.3   1775  NAG1775    -0.2176
     14  O7      -102.8160    0.9160    9.6410 O.2   1775  NAG1775    -0.2733
@<TRIPOS>BOND
     1     8     7    1
     2     7    14    2
     3     7     9   am
     4     9     2    1
     5     2     1    1
     6     2     3    1
     7     1    12    1
     8    10     3    1
     9     3     4    1
    10    12     5    1
    11     4     5    1
    12     4    11    1
    13     5     6    1
    14     6    13    1
