@<TRIPOS>MOLECULE
2nsr_HEM_A_1.pdb
 43 50 0 0 0
SMALL
GASTEIGER

@<TRIPOS>ATOM
      1 FE         -0.7720    6.1070   15.0720 Fe    154  HEM154      0.0000
      2  CHA       -0.6690    9.4020   16.3660 C.2   154  HEM154      0.0000
      3  CHB       -4.2270    6.2080   15.3630 C.2   154  HEM154      0.0000
      4  CHC       -1.0260    3.0360   13.6590 C.2   154  HEM154      0.0000
      5  CHD        2.5570    6.0260   14.8720 C.2   154  HEM154      0.0000
      6  NA        -2.1570    7.5250   15.7690 N.2   154  HEM154      0.0000
      7  C1A       -1.9080    8.8240   16.1930 C.2   154  HEM154      0.0000
      8  C2A       -3.1730    9.4560   16.4660 C.2   154  HEM154      0.0000
      9  C3A       -4.1490    8.5660   16.1780 C.2   154  HEM154      0.0000
     10  C4A       -3.5260    7.3380   15.7420 C.2   154  HEM154      0.0000
     11  CMA       -5.6790    8.7320   16.2940 C.3   154  HEM154      0.0000
     12  CAA       -3.2970   10.9110   16.9450 C.3   154  HEM154      0.0000
     13  CBA       -3.7380   11.8300   15.7830 C.3   154  HEM154      0.0000
     14  CGA       -2.8280   11.8140   14.5670 C.2   154  HEM154      0.0000
     15  O1A       -1.6240   12.2050   14.7030 O.co2 154  HEM154      0.0000
     16  O2A       -3.3160   11.3960   13.4540 O.co2 154  HEM154      0.0000
     17  NB        -2.3350    4.8750   14.5360 N.ar  154  HEM154      0.0000
     18  C1B       -3.6770    5.0690   14.8170 C.ar  154  HEM154      0.0000
     19  C2B       -4.4020    3.8790   14.4550 C.ar  154  HEM154      0.0000
     20  C3B       -3.5070    3.0010   13.9680 C.ar  154  HEM154      0.0000
     21  C4B       -2.2020    3.6010   14.0420 C.ar  154  HEM154      0.0000
     22  CMB       -5.9390    3.7030   14.5920 C.3   154  HEM154      0.0000
     23  CAB       -3.7430    1.5960   13.4440 C.2   154  HEM154      0.0000
     24  CBB       -4.5250    0.7470   14.1320 C.2   154  HEM154      0.0000
     25  NC         0.5580    4.7580   14.3680 N.2   154  HEM154      0.0000
     26  C1C        0.2400    3.5200   13.8840 C.2   154  HEM154      0.0000
     27  C2C        1.4570    2.8070   13.6590 C.2   154  HEM154      0.0000
     28  C3C        2.4670    3.6220   14.0000 C.2   154  HEM154      0.0000
     29  C4C        1.9020    4.8900   14.4590 C.2   154  HEM154      0.0000
     30  CMC        1.5090    1.3640   13.0980 C.3   154  HEM154      0.0000
     31  CAC        3.9520    3.2160   13.8780 C.2   154  HEM154      0.0000
     32  CBC        4.8940    3.6240   14.7030 C.2   154  HEM154      0.0000
     33  ND         0.6700    7.5230   15.4980 N.ar  154  HEM154      0.0000
     34  C1D        2.0270    7.2060   15.3700 C.ar  154  HEM154      0.0000
     35  C2D        2.8290    8.2820   15.8860 C.ar  154  HEM154      0.0000
     36  C3D        1.8480    9.3430   16.3320 C.ar  154  HEM154      0.0000
     37  C4D        0.5290    8.7810   16.1050 C.ar  154  HEM154      0.0000
     38  CMD        4.3830    8.3720   15.9290 C.3   154  HEM154      0.0000
     39  CAD        2.2290   10.6790   17.0030 C.3   154  HEM154      0.0000
     40  CBD        2.1510   10.3830   18.4970 C.3   154  HEM154      0.0000
     41  CGD        2.3910   11.6360   19.3270 C.2   154  HEM154      0.0000
     42  O1D        1.4320   12.2460   19.8580 O.co2 154  HEM154      0.0000
     43  O2D        3.5750   12.0310   19.4720 O.co2 154  HEM154      0.0000
@<TRIPOS>BOND
     1    30    27    1
     2    23    20    1
     3    23    24    2
     4    16    14   ar
     5     4    26    2
     6     4    21    1
     7    27    26    1
     8    27    28    2
     9    31    28    1
    10    31    32    2
    11    26    25    1
    12    20    21   ar
    13    20    19   ar
    14    28    29    1
    15    21    17   ar
    16    25    29    2
    17    25     1    1
    18    19    22    1
    19    19    18   ar
    20    29     5    1
    21    17    18   ar
    22    17     1    1
    23    14    15   ar
    24    14    13    1
    25    18     3    1
    26     5    34    2
    27     1    33    1
    28     1     6    1
    29     3    10    2
    30    34    33   ar
    31    34    35   ar
    32    33    37   ar
    33    10     6    1
    34    10     9    1
    35     6     7    2
    36    13    12    1
    37    35    38    1
    38    35    36   ar
    39    37    36   ar
    40    37     2    2
    41     9    11    1
    42     9     8    2
    43     7     2    1
    44     7     8    1
    45    36    39    1
    46     8    12    1
    47    39    40    1
    48    40    41    1
    49    41    43   ar
    50    41    42   ar
