@<TRIPOS>MOLECULE
2nss_HEM_A_1.pdb
 43 50 0 0 0
SMALL
GASTEIGER

@<TRIPOS>ATOM
      1  CHA       -0.7070    9.9450   16.4150 C.2   154  HEM154      0.0000
      2  CHB       -4.2090    6.5040   15.7030 C.2   154  HEM154      0.0000
      3  CHC       -0.8410    3.4190   14.0110 C.2   154  HEM154      0.0000
      4  CHD        2.7010    6.6220   15.2260 C.2   154  HEM154      0.0000
      5  C1A       -1.9300    9.2710   16.3470 C.2   154  HEM154      0.0000
      6  C2A       -3.2370    9.8610   16.6280 C.2   154  HEM154      0.0000
      7  C3A       -4.1980    8.9210   16.4710 C.2   154  HEM154      0.0000
      8  C4A       -3.5490    7.6970   16.0420 C.2   154  HEM154      0.0000
      9  CMA       -5.7300    9.0820   16.6660 C.3   154  HEM154      0.0000
     10  CAA       -3.3490   11.3350   17.0550 C.3   154  HEM154      0.0000
     11  CBA       -3.7750   12.2870   15.9480 C.3   154  HEM154      0.0000
     12  CGA       -2.9490   12.2860   14.6470 C.2   154  HEM154      0.0000
     13  O1A       -1.7360   12.6570   14.7140 O.co2 154  HEM154      0.0000
     14  O2A       -3.4950   11.9090   13.5240 O.co2 154  HEM154      0.0000
     15  C1B       -3.6450    5.4130   15.1130 C.ar  154  HEM154      0.0000
     16  C2B       -4.3320    4.2470   14.6310 C.ar  154  HEM154      0.0000
     17  C3B       -3.3760    3.3760   14.2070 C.ar  154  HEM154      0.0000
     18  C4B       -2.0750    3.9740   14.3810 C.ar  154  HEM154      0.0000
     19  CMB       -5.8750    4.0240   14.6430 C.3   154  HEM154      0.0000
     20  CAB       -3.5770    1.9850   13.5570 C.2   154  HEM154      0.0000
     21  CBB       -4.4430    1.1190   14.1010 C.2   154  HEM154      0.0000
     22  C1C        0.4220    3.9740   14.2920 C.2   154  HEM154      0.0000
     23  C2C        1.6700    3.2600   14.2700 C.2   154  HEM154      0.0000
     24  C3C        2.6480    4.1570   14.6080 C.2   154  HEM154      0.0000
     25  C4C        2.0350    5.4490   14.8670 C.2   154  HEM154      0.0000
     26  CMC        1.7260    1.7370   13.8920 C.3   154  HEM154      0.0000
     27  CAC        4.1860    3.9670   14.7890 C.2   154  HEM154      0.0000
     28  CBC        4.7270    2.7700   14.7090 C.2   154  HEM154      0.0000
     29  C1D        2.1370    7.8040   15.6420 C.ar  154  HEM154      0.0000
     30  C2D        2.8690    8.9880   16.0230 C.ar  154  HEM154      0.0000
     31  C3D        1.8100    9.9850   16.3880 C.ar  154  HEM154      0.0000
     32  C4D        0.5220    9.3590   16.1990 C.ar  154  HEM154      0.0000
     33  CMD        4.4030    9.1740   16.0870 C.3   154  HEM154      0.0000
     34  CAD        2.0370   11.4090   16.9040 C.3   154  HEM154      0.0000
     35  CBD        1.9590   11.2260   18.4030 C.3   154  HEM154      0.0000
     36  CGD        1.5750   12.5370   19.0480 C.2   154  HEM154      0.0000
     37  O1D        1.9840   12.6180   20.2290 O.co2 154  HEM154      0.0000
     38  O2D        0.8420   13.4390   18.4600 O.co2 154  HEM154      0.0000
     39  NA        -2.1710    7.9610   15.9680 N.2   154  HEM154      0.0000
     40  NB        -2.2610    5.2050   14.9690 N.ar  154  HEM154      0.0000
     41  NC         0.6850    5.2870   14.6700 N.2   154  HEM154      0.0000
     42  ND         0.7550    8.0720   15.7550 N.ar  154  HEM154      0.0000
     43 FE         -0.7070    6.6340   15.3470 Fe    154  HEM154      0.0000
@<TRIPOS>BOND
     1    14    12   ar
     2    20    21    2
     3    20    17    1
     4    26    23    1
     5     3    22    2
     6     3    18    1
     7    17    18   ar
     8    17    16   ar
     9    23    22    1
    10    23    24    2
    11    22    41    1
    12    18    40   ar
    13    24    27    1
    14    24    25    1
    15    16    19    1
    16    16    15   ar
    17    12    13   ar
    18    12    11    1
    19    41    25    2
    20    41    43    1
    21    28    27    2
    22    25     4    1
    23    40    15   ar
    24    40    43    1
    25    15     2    1
    26     4    29    2
    27    43    42    1
    28    43    39    1
    29    29    42   ar
    30    29    30   ar
    31     2     8    2
    32    42    32   ar
    33    11    10    1
    34    39     8    1
    35    39     5    2
    36    30    33    1
    37    30    31   ar
    38     8     7    1
    39    32    31   ar
    40    32     1    2
    41     5     1    1
    42     5     6    1
    43    31    34    1
    44     7     6    2
    45     7     9    1
    46     6    10    1
    47    34    35    1
    48    35    36    1
    49    38    36   ar
    50    36    37   ar
