@<TRIPOS>MOLECULE
2nsx_IFM_B_1.pdb
 10 10 0 0 0
SMALL
GASTEIGER

@<TRIPOS>ATOM
      1  O4        10.8720  -12.0990   39.6530 O.3   506  IFM506     -0.2202
      2  C4        10.8210  -10.8350   40.2930 C.3   506  IFM506      0.1874
      3  C3        12.2240  -10.3220   40.6370 C.3   506  IFM506      0.1995
      4  O3        12.8950  -11.2290   41.5170 O.3   506  IFM506     -0.2189
      5  C2        12.1170   -8.9760   41.3250 C.3   506  IFM506      0.1241
      6  N         11.2170   -8.1220   40.5420 N.3   506  IFM506     -0.2151
      7  C1         9.9040   -8.5670   40.0790 C.3   506  IFM506      0.0940
      8  C5        10.0890   -9.8890   39.3520 C.3   506  IFM506      0.0834
      9  C6         8.7370  -10.4570   38.8760 C.3   506  IFM506      0.1861
     10  O6         7.9790  -10.8460   40.0370 O.3   506  IFM506     -0.2203
@<TRIPOS>BOND
     1     9     8    1
     2     9    10    1
     3     8     7    1
     4     8     2    1
     5     1     2    1
     6     7     6    1
     7     2     3    1
     8     6     5    1
     9     3     5    1
    10     3     4    1
