@<TRIPOS>MOLECULE
2nsy_AMP_A_1.pdb
 23 25 0 0 0
SMALL
GASTEIGER

@<TRIPOS>ATOM
      1  P         15.0040   60.2340   46.6540 P.3   300  AMP300      0.5327
      2  O1P       15.6530   61.4990   46.3870 O.3   300  AMP300     -0.1145
      3  O2P       15.2720   59.4610   47.9140 O.3   300  AMP300     -0.1145
      4  O3P       15.2650   59.2760   45.3900 O.2   300  AMP300     -0.2224
      5  O5'       13.4210   60.3460   46.5350 O.3   300  AMP300     -0.2675
      6  C5'       12.9480   61.2710   45.5680 C.3   300  AMP300      0.1860
      7  C4'       11.5000   61.6960   45.9620 C.3   300  AMP300      0.1823
      8  O4'       10.5460   60.6030   45.7280 O.3   300  AMP300     -0.3135
      9  C3'       11.3230   62.0010   47.4400 C.3   300  AMP300      0.2184
     10  O3'       11.8070   63.3230   47.6930 O.3   300  AMP300     -0.2174
     11  C2'        9.8470   61.7990   47.6780 C.3   300  AMP300      0.2570
     12  O2'        9.0930   62.9070   47.2070 O.3   300  AMP300     -0.2130
     13  C1'        9.5570   60.6050   46.7350 C.3   300  AMP300      0.3186
     14  N9         9.6900   59.3140   47.4800 N.pl3 300  AMP300     -0.1439
     15  C8        10.7230   58.3800   47.2840 C.3   300  AMP300      0.3377
     16  N7        10.4860   57.3220   48.1160 N.2   300  AMP300     -0.2095
     17  C5         9.3120   57.6330   48.7910 C.2   300  AMP300      0.2526
     18  C6         8.6400   56.9190   49.7710 C.2   300  AMP300      0.4393
     19  N6         9.0700   55.7020   50.2270 N.pl3 300  AMP300      0.2180
     20  N1         7.5040   57.4510   50.3010 N.2   300  AMP300      0.0021
     21  C2         7.1150   58.6560   49.8080 C.3   300  AMP300      0.5254
     22  N3         7.6850   59.4180   48.8590 N.2   300  AMP300     -0.0055
     23  C4         8.8080   58.8500   48.4190 C.2   300  AMP300      0.3518
@<TRIPOS>BOND
     1     4     1    2
     2     6     7    1
     3     6     5    1
     4     8     7    1
     5     8    13    1
     6     7     9    1
     7     2     1    1
     8     5     1    1
     9     1     3    1
    10    13    14    1
    11    13    11    1
    12    12    11    1
    13    15    14    1
    14    15    16    1
    15     9    11    1
    16     9    10    1
    17    14    23    1
    18    16    17    2
    19    23    17    1
    20    23    22    2
    21    17    18    1
    22    22    21    1
    23    18    19    1
    24    18    20    2
    25    21    20    1
