@<TRIPOS>MOLECULE
2nsy_NAD_A_1.pdb
 43 47 0 0 0
SMALL
GASTEIGER

@<TRIPOS>ATOM
      1  PA        16.6240   56.3210   34.1850 P.3   301  NAD301      0.2189
      2  O1A       16.3980   57.5010   35.0310 O.3   301  NAD301     -0.4371
      3  O2A       15.4530   55.5050   33.6020 O.2   301  NAD301     -0.5170
      4  O5B       17.5750   56.8350   33.0290 O.3   301  NAD301     -0.3112
      5  C5B       18.0650   55.9050   31.9780 C.3   301  NAD301      0.1813
      6  C4B       17.0420   55.8540   30.8320 C.3   301  NAD301      0.1821
      7  O4B       17.1900   57.1360   30.1140 O.3   301  NAD301     -0.3135
      8  C3B       17.5080   54.8560   29.8050 C.3   301  NAD301      0.2184
      9  O3B       17.0330   53.5540   30.1230 O.3   301  NAD301     -0.2174
     10  C2B       16.9510   55.4300   28.4610 C.3   301  NAD301      0.2570
     11  O2B       15.5610   55.1760   28.4610 O.3   301  NAD301     -0.2130
     12  C1B       17.1990   56.8610   28.6590 C.3   301  NAD301      0.3186
     13  N9A       18.4760   57.3590   28.2030 N.pl3 301  NAD301     -0.1439
     14  C8A       19.7560   56.9800   28.5540 C.3   301  NAD301      0.3377
     15  N7A       20.6380   57.7330   27.9480 N.2   301  NAD301     -0.2095
     16  C5A       19.9490   58.6480   27.1350 C.2   301  NAD301      0.2526
     17  C6A       20.3470   59.6380   26.3050 C.2   301  NAD301      0.4393
     18  N6A       21.6430   60.0080   26.0920 N.pl3 301  NAD301      0.2180
     19  N1A       19.4080   60.3050   25.6440 N.2   301  NAD301      0.0021
     20  C2A       18.1000   59.9530   25.8750 C.3   301  NAD301      0.5254
     21  N3A       17.6110   59.0170   26.6910 N.2   301  NAD301     -0.0055
     22  C4A       18.6010   58.3700   27.3010 C.2   301  NAD301      0.3518
     23  O3        17.4060   55.2170   34.9520 O.3   301  NAD301     -0.2703
     24  PN        18.9330   55.1900   35.6120 P.3   301  NAD301      0.2189
     25  O1N       19.5650   56.5130   35.5060 O.3   301  NAD301     -0.4371
     26  O2N       19.6100   54.0550   34.9750 O.2   301  NAD301     -0.5170
     27  O5D       18.5330   54.7930   37.0900 O.3   301  NAD301     -0.3112
     28  C5D       18.0110   55.8250   37.9710 C.3   301  NAD301      0.1813
     29  C4D       19.1100   56.1350   38.9730 C.3   301  NAD301      0.1799
     30  O4D       18.6820   57.2410   39.7940 O.3   301  NAD301     -0.3327
     31  C3D       19.5470   55.0600   39.8980 C.3   301  NAD301      0.2158
     32  O3D       20.9740   55.2370   40.1360 O.3   301  NAD301     -0.2175
     33  C2D       18.6900   55.2890   41.1230 C.3   301  NAD301      0.2309
     34  O2D       19.1740   54.6850   42.3430 O.3   301  NAD301     -0.2158
     35  C1D       18.7030   56.8130   41.1310 C.3   301  NAD301      0.2263
     36  N1N       17.4920   57.2930   41.7610 N.pl3 301  NAD301     -0.2791
     37  C2N       17.5250   57.9220   42.9100 C.3   301  NAD301      0.1180
     38  C3N       16.3590   58.3430   43.5300 C.2   301  NAD301      0.0082
     39  C7N       16.4820   59.0310   44.8360 C.3   301  NAD301      0.2060
     40  O7N       17.6340   59.2290   45.4130 O.3   301  NAD301     -0.2155
     41  C4N       15.0460   58.1390   43.0060 C.2   301  NAD301     -0.0030
     42  C5N       14.9870   57.4800   41.7770 C.2   301  NAD301      0.0153
     43  C6N       16.2430   57.0970   41.2340 C.2   301  NAD301      0.0633
@<TRIPOS>BOND
     1    19    20    1
     2    19    17    2
     3    20    21    1
     4    18    17    1
     5    17    16    1
     6    21    22    2
     7    16    22    1
     8    16    15    2
     9    22    13    1
    10    15    14    1
    11    13    14    1
    12    13    12    1
    13    10    11    1
    14    10    12    1
    15    10     8    1
    16    12     7    1
    17     8     9    1
    18     8     6    1
    19     7     6    1
    20     6     5    1
    21     5     4    1
    22     4     1    1
    23     3     1    2
    24     1    23    1
    25     1     2    1
    26    23    24    1
    27    26    24    2
    28    25    24    1
    29    24    27    1
    30    27    28    1
    31    28    29    1
    32    29    30    1
    33    29    31    1
    34    30    35    1
    35    31    32    1
    36    31    33    1
    37    33    35    1
    38    33    34    1
    39    35    36    1
    40    43    36    1
    41    43    42    2
    42    36    37    1
    43    42    41    1
    44    37    38    1
    45    41    38    2
    46    38    39    1
    47    39    40    1
