@<TRIPOS>MOLECULE
2nt7_902_A_1.pdb
 39 43 0 0 0
SMALL
GASTEIGER

@<TRIPOS>ATOM
      1  S1        44.8920   13.7100    0.4730 S.2   800  902800     -0.0732
      2  C2        44.9350   15.0810    1.4460 C.ar  800  902800      0.1296
      3  C3        45.7820   14.8400    2.5380 C.ar  800  902800      0.1613
      4  C4        46.3610   13.5470    2.5380 C.ar  800  902800      0.0756
      5  C5        45.9340   12.7760    1.4070 C.ar  800  902800      0.0394
      6  C6        44.1870   16.3180    1.1490 C.1   800  902800      0.0897
      7  N7        43.7040   16.5980   -0.0870 N.2   800  902800     -0.0705
      8  N8        43.8520   17.3430    1.9750 N.2   800  902800     -0.0705
      9  C9        46.2610   11.3970    0.9810 C.ar  800  902800      0.0079
     10  C10       47.5870   10.8860    1.0620 C.ar  800  902800      0.0166
     11  C11       47.8480    9.5490    0.6440 C.ar  800  902800      0.0653
     12  C12       46.7770    8.7110    0.1580 C.ar  800  902800      0.0161
     13  C13       45.4430    9.2220    0.0780 C.ar  800  902800      0.0013
     14  C14       45.1910   10.5650    0.5000 C.ar  800  902800      0.0006
     15 BR19       47.5540   12.9350    3.8880 Br    800  902800     -0.0453
     16  O20       46.0390   15.8070    3.5740 O.3   800  902800     -0.4620
     17  C21       47.3170   16.4660    3.4630 C.3   800  902800      0.3187
     18  C22       47.7040   17.2290    4.7460 C.2   800  902800      0.4084
     19  O25       46.9340   17.2730    5.7050 O.co2 800  902800     -0.2415
     20  O26       48.7950   17.7890    4.7820 O.co2 800  902800     -0.2415
     21  N28       49.1470    9.1080    0.7490 N.pl3 800  902800     -0.2393
     22  C29       49.5760    7.9110    1.4930 C.3   800  902800      0.0953
     23  C30       48.9940    7.8160    2.9230 C.3   800  902800      0.0407
     24  C31       49.3360    6.4290    3.4980 C.3   800  902800      0.0972
     25  N32       50.7820    6.0670    3.3900 N.3   800  902800     -0.1590
     26  C33       51.5820    6.5500    2.2190 C.3   800  902800      0.0972
     27  C34       51.1060    7.8900    1.6070 C.3   800  902800      0.0407
     28  S44       51.4680    5.1050    4.5450 S.O2  800  902800      0.0481
     29  O45       50.6800    5.2250    5.7320 O.2   800  902800     -0.1570
     30  O46       52.8620    5.4920    4.6340 O.2   800  902800     -0.1570
     31  C47       51.4210    3.3930    4.0570 C.3   800  902800      0.1954
     32  C48       51.9420    2.4850    5.1490 C.ar  800  902800      0.0029
     33  C51       51.0210    1.9750    6.1270 C.ar  800  902800     -0.0025
     34  C52       51.4940    1.1140    7.1660 C.ar  800  902800     -0.0003
     35  C53       52.8890    0.7720    7.2140 C.ar  800  902800     -0.0000
     36  C54       53.8190    1.2770    6.2420 C.ar  800  902800     -0.0003
     37  C55       53.3410    2.1400    5.2010 C.ar  800  902800     -0.0025
     38  N61       43.1630   18.2600    1.2490 N.2   800  902800     -0.0129
     39  N62       43.0700   17.7980   -0.0310 N.2   800  902800     -0.0129
@<TRIPOS>BOND
     1     7    39    1
     2     7     6    2
     3    39    38    2
     4    13    12   ar
     5    13    14   ar
     6    12    11   ar
     7     1     5   ar
     8     1     2   ar
     9    14     9   ar
    10    11    21    1
    11    11    10   ar
    12    21    22    1
    13     9    10   ar
    14     9     5    1
    15     6     2    1
    16     6     8    2
    17    38     8    1
    18     5     4   ar
    19     2     3   ar
    20    22    27    1
    21    22    23    1
    22    27    26    1
    23    26    25    1
    24     3     4   ar
    25     3    16    1
    26     4    15    1
    27    23    24    1
    28    25    24    1
    29    25    28    1
    30    17    16    1
    31    17    18    1
    32    31    28    1
    33    31    32    1
    34    28    30    2
    35    28    29    2
    36    18    20   ar
    37    18    19   ar
    38    32    37   ar
    39    32    33   ar
    40    37    36   ar
    41    33    34   ar
    42    36    35   ar
    43    34    35   ar
