@<TRIPOS>MOLECULE
2nt8_ATP_A_1.pdb
 31 33 0 0 0
SMALL
GASTEIGER

@<TRIPOS>ATOM
      1  PG        32.9380    9.4590    4.7100 P.3   999  ATP999      0.5373
      2  O1G       34.3860    9.0460    4.8990 O.3   999  ATP999     -0.1143
      3  O2G       32.5680    9.6890    3.2840 O.2   999  ATP999     -0.2221
      4  O3G       32.5050   10.5690    5.6350 O.3   999  ATP999     -0.1143
      5  PB        30.7510    7.9290    5.8430 P.3   999  ATP999      0.2277
      6  O1B       30.0170    9.2290    5.7050 O.3   999  ATP999     -0.4368
      7  O2B       30.1060    6.6740    5.2920 O.2   999  ATP999     -0.5168
      8  O3B       32.1980    8.0950    5.1490 O.3   999  ATP999     -0.2258
      9  PA        31.7220    8.4990    8.5070 P.3   999  ATP999      0.2189
     10  O1A       31.3040    9.9130    8.2660 O.2   999  ATP999     -0.5170
     11  O2A       33.1960    8.2010    8.6290 O.3   999  ATP999     -0.4371
     12  O3A       31.1480    7.5150    7.3470 O.3   999  ATP999     -0.2700
     13  O5'       30.9690    7.9800    9.8230 O.3   999  ATP999     -0.3112
     14  C5'       31.3780    6.8920   10.6490 C.3   999  ATP999      0.1813
     15  C4'       30.2040    5.9770   10.9310 C.3   999  ATP999      0.1821
     16  O4'       29.0870    6.6820   11.4990 O.3   999  ATP999     -0.3135
     17  C3'       29.7010    5.3190    9.6610 C.3   999  ATP999      0.2184
     18  O3'       30.4380    4.1280    9.3560 O.3   999  ATP999     -0.2174
     19  C2'       28.2410    5.0440    9.9680 C.3   999  ATP999      0.2570
     20  O2'       28.0460    3.8640   10.7720 O.3   999  ATP999     -0.2130
     21  C1'       27.8720    6.2210   10.8660 C.3   999  ATP999      0.3186
     22  N9        27.3860    7.3980   10.1360 N.pl3 999  ATP999     -0.1439
     23  C8        27.8770    7.9500    9.0170 C.3   999  ATP999      0.3377
     24  N7        27.1940    9.0420    8.6820 N.2   999  ATP999     -0.2095
     25  C5        26.2500    9.2260    9.6350 C.2   999  ATP999      0.2526
     26  C6        25.1940   10.2100    9.8690 C.2   999  ATP999      0.4393
     27  N6        24.9940   11.2620    9.0420 N.pl3 999  ATP999      0.2180
     28  N1        24.4200   10.0150   10.9760 N.2   999  ATP999      0.0021
     29  C2        24.6020    8.9910   11.8490 C.3   999  ATP999      0.5254
     30  N3        25.5580    8.0450   11.6790 N.2   999  ATP999     -0.0055
     31  C4        26.3790    8.1380   10.5930 C.2   999  ATP999      0.3518
@<TRIPOS>BOND
     1     3     1    2
     2     1     2    1
     3     1     8    1
     4     1     4    1
     5     8     5    1
     6     7     5    2
     7     6     5    1
     8     5    12    1
     9    12     9    1
    10    10     9    2
    11     9    11    1
    12     9    13    1
    13    24    23    1
    14    24    25    2
    15    23    22    1
    16    27    26    1
    17    18    17    1
    18    25    26    1
    19    25    31    1
    20    17    19    1
    21    17    15    1
    22    13    14    1
    23    26    28    2
    24    19    20    1
    25    19    21    1
    26    22    31    1
    27    22    21    1
    28    31    30    2
    29    14    15    1
    30    21    16    1
    31    15    16    1
    32    28    29    1
    33    30    29    1
