@<TRIPOS>MOLECULE
2nta_521_A_1.pdb
 20 22 0 0 0
SMALL
GASTEIGER

@<TRIPOS>ATOM
      1  C1        29.3880  -32.5530    1.0090 C.ar  301  521301      0.0000
      2  C2        30.6440  -33.1950    0.8630 C.ar  301  521301      0.0000
      3  C3        31.6890  -32.5660    0.1400 C.ar  301  521301      0.0005
      4  C4        31.5080  -31.2850   -0.4540 C.ar  301  521301      0.0069
      5  C5        30.2240  -30.6420   -0.2950 C.ar  301  521301      0.0005
      6  C6        29.1760  -31.2740    0.4320 C.ar  301  521301      0.0000
      7  C7        32.6380  -30.6330   -1.1980 C.ar  301  521301      0.0413
      8  N1        34.4570  -28.5230   -3.7480 N.pl3 301  521301     -0.1562
      9  N2        35.2790  -27.4970   -5.8570 N.2   301  521301     -0.0414
     10  C9        34.0330  -29.3960   -2.6930 C.ar  301  521301      0.0890
     11  C8        32.6840  -29.8010   -2.3520 C.ar  301  521301      0.0790
     12  C10       34.9290  -29.9600   -1.7990 C.ar  301  521301      0.0525
     13  S1        34.2240  -30.9190   -0.5970 S.2   301  521301     -0.0842
     14  C11       34.4820  -27.0380   -3.6310 C.3   301  521301      0.2396
     15  C12       34.9910  -26.4730   -4.9340 C.1   301  521301      0.1723
     16  O1        35.1320  -25.2890   -5.1600 O.2   301  521301     -0.2235
     17  S2        34.9860  -29.0670   -5.2940 S.O2  301  521301      0.1646
     18  O2        36.2560  -29.7620   -5.1660 O.2   301  521301     -0.1303
     19  O3        33.8730  -29.6300   -6.0370 O.2   301  521301     -0.1303
     20 CL1        31.3030  -29.3360   -3.2630 Cl    301  521301     -0.0804
@<TRIPOS>BOND
     1    19    17    2
     2     9    17    1
     3     9    15    2
     4    17    18    2
     5    17     8    1
     6    16    15    2
     7    15    14    1
     8     8    14    1
     9     8    10    1
    10    20    11    1
    11    10    11   ar
    12    10    12   ar
    13    11     7   ar
    14    12    13   ar
    15     7    13   ar
    16     7     4    1
    17     4     5   ar
    18     4     3   ar
    19     5     6   ar
    20     3     2   ar
    21     6     1   ar
    22     2     1   ar
