@<TRIPOS>MOLECULE
2ntf_OHM_B_1.pdb
 21 21 0 0 0
SMALL
GASTEIGER

@<TRIPOS>ATOM
      1  C21      -36.9080  -22.5270   41.5760 C.3   1002  OHM1002     0.0000
      2  C20      -36.4030  -21.0230   41.4720 C.3   1002  OHM1002     0.0000
      3  C19      -34.9140  -20.8640   42.0130 C.3   1002  OHM1002     0.0000
      4  C18      -34.0210  -19.8870   41.1810 C.3   1002  OHM1002     0.0000
      5  C17      -33.5690  -18.6400   41.9810 C.3   1002  OHM1002     0.0000
      6  C16      -32.0650  -18.3310   41.8000 C.3   1002  OHM1002     0.0000
      7  C15      -31.5720  -17.1300   42.6430 C.3   1002  OHM1002     0.0004
      8  C14      -30.9380  -16.0240   41.7700 C.3   1002  OHM1002     0.0078
      9  C13      -29.7950  -15.2820   42.4800 C.3   1002  OHM1002     0.0650
     10  C11      -30.2160  -13.8570   42.9270 C.2   1002  OHM1002     0.1599
     11  O12      -30.6810  -13.0250   42.1380 O.2   1002  OHM1002    -0.2955
     12  C10      -29.9990  -13.5200   44.4010 C.3   1002  OHM1002     0.1511
     13  C8       -30.5570  -12.1920   44.9460 C.2   1002  OHM1002     0.2498
     14  O9       -29.8480  -11.4870   45.6460 O.2   1002  OHM1002    -0.2728
     15  N7       -31.7930  -11.8300   44.6930 N.am  1002  OHM1002    -0.1897
     16  C1       -32.2740  -10.5770   45.3130 C.3   1002  OHM1002     0.2021
     17  C5       -32.2790   -9.3170   44.4740 C.3   1002  OHM1002     0.0659
     18  C4       -33.3070   -8.4880   45.2710 C.3   1002  OHM1002     0.1405
     19  N3       -34.3360   -9.4950   45.5740 N.2   1002  OHM1002    -0.2048
     20  C2       -33.7570  -10.7020   45.5870 C.1   1002  OHM1002     0.1458
     21  O6       -34.3130  -11.7830   45.7870 O.2   1002  OHM1002    -0.2253
@<TRIPOS>BOND
     1     4     5    1
     2     4     3    1
     3     2     1    1
     4     2     3    1
     5     8     9    1
     6     8     7    1
     7     6     5    1
     8     6     7    1
     9    11    10    2
    10     9    10    1
    11    10    12    1
    12    12    13    1
    13    17    18    1
    14    17    16    1
    15    15    13   am
    16    15    16    1
    17    13    14    2
    18    18    19    1
    19    16    20    1
    20    19    20    2
    21    20    21    2
