@<TRIPOS>MOLECULE
2ntg_R7A_A_1.pdb
 13 13 0 0 0
SMALL
GASTEIGER

@<TRIPOS>ATOM
      1  SD        41.6280   10.7540   36.3850 S.3   315  R7A315     -0.0773
      2  CE        42.4180   12.0630   37.3500 C.3   315  R7A315      0.0922
      3  C3        43.6970   11.6520   38.0780 C.2   315  R7A315     -0.0140
      4  C2        45.1120   12.0060   37.7420 C.3   315  R7A315      0.0891
      5  C9        45.4920   11.3840   36.4230 C.3   315  R7A315      0.0227
      6  C8        44.9890   13.5040   37.8430 C.3   315  R7A315      0.0227
      7  C4        43.6200   10.8090   39.2600 C.2   315  R7A315      0.0218
      8 BR4        42.0170   10.1240   40.0410 Br    315  R7A315     -0.0529
      9  C5        44.9780   10.5270   39.8140 C.3   315  R7A315      0.0969
     10  C6        45.2080   11.0550   41.2630 C.3   315  R7A315      0.0235
     11  C7        45.2490    9.0000   39.6750 C.3   315  R7A315      0.0235
     12  N1        45.8390   11.3190   38.7960 N.4   315  R7A315     -0.1306
     13  O1        47.0210   11.3120   38.9840 O.3   315  R7A315     -0.1175
@<TRIPOS>BOND
     1     1     2    1
     2     5     4    1
     3     2     3    1
     4     4     6    1
     5     4     3    1
     6     4    12    1
     7     3     7    2
     8    12    13    1
     9    12     9    1
    10     7     9    1
    11     7     8    1
    12    11     9    1
    13     9    10    1
