@<TRIPOS>MOLECULE
2nth_MTN_A_1.pdb
 12 12 0 0 0
SMALL
GASTEIGER

@<TRIPOS>ATOM
      1  O1        -6.2450   35.8570   68.8900 O.3   200  MTN200     -0.1175
      2  N1        -6.9270   35.7530   67.8940 N.4   200  MTN200     -0.1311
      3  C1        -7.5390   37.0160   67.2630 C.3   200  MTN200      0.0909
      4  C2        -8.2350   36.3350   66.1060 C.2   200  MTN200     -0.0160
      5  C3        -7.9290   35.0250   65.9140 C.2   200  MTN200     -0.0205
      6  C4        -8.3740   34.1310   64.7030 C.3   200  MTN200      0.0917
      7  S1       -10.0890   33.5800   64.6760 S.3   200  MTN200     -0.0773
      8  C5        -7.0290   34.5330   67.0470 C.3   200  MTN200      0.0886
      9  C6        -5.5840   34.0360   66.6230 C.3   200  MTN200      0.0227
     10  C7        -7.7960   33.5040   67.8490 C.3   200  MTN200      0.0227
     11  C8        -8.5690   37.7430   68.2040 C.3   200  MTN200      0.0230
     12  C9        -6.4500   38.0340   66.7580 C.3   200  MTN200      0.0230
@<TRIPOS>BOND
     1     7     6    1
     2     6     5    1
     3     5     4    2
     4     5     8    1
     5     4     3    1
     6     9     8    1
     7    12     3    1
     8     8    10    1
     9     8     2    1
    10     3     2    1
    11     3    11    1
    12     2     1    1
