@<TRIPOS>MOLECULE
2ntk_IMP_A_1.pdb
 23 25 0 0 0
SMALL
GASTEIGER

@<TRIPOS>ATOM
      1  P         50.2120   17.3620   13.0140 P.3   205  IMP205      0.5327
      2  O1P       49.0270   18.1870   13.3950 O.3   205  IMP205     -0.1145
      3  O2P       50.9580   18.0300   11.9060 O.2   205  IMP205     -0.2224
      4  O3P       51.1400   17.1900   14.2300 O.3   205  IMP205     -0.1145
      5  O5'       49.7150   15.9300   12.5220 O.3   205  IMP205     -0.2675
      6  C5'       48.8490   15.2350   13.4200 C.3   205  IMP205      0.1860
      7  C4'       48.4140   13.9030   12.8710 C.3   205  IMP205      0.1823
      8  O4'       47.6070   14.3400   11.7030 O.3   205  IMP205     -0.3135
      9  C3'       49.4840   12.9600   12.2910 C.3   205  IMP205      0.2184
     10  O3'       49.9050   11.9410   13.1860 O.3   205  IMP205     -0.2174
     11  C2'       48.8790   12.3740   11.0420 C.3   205  IMP205      0.2570
     12  O2'       48.2790   11.1030   11.2510 O.3   205  IMP205     -0.2130
     13  C1'       47.8940   13.4730   10.5970 C.3   205  IMP205      0.3186
     14  N9        48.4650   14.3460    9.4970 N.pl3 205  IMP205     -0.1435
     15  C8        49.6380   15.0790    9.4040 C.3   205  IMP205      0.3382
     16  N7        49.7540   15.7070    8.2700 N.2   205  IMP205     -0.2054
     17  C5        48.6370   15.4000    7.5590 C.2   205  IMP205      0.2446
     18  C6        48.2150   15.7990    6.2460 C.1   205  IMP205      0.1792
     19  O6        48.8140   16.5370    5.4660 O.2   205  IMP205     -0.2203
     20  N1        46.9420   15.2480    5.8530 N.2   205  IMP205     -0.1458
     21  C2        46.1870   14.3970    6.6800 C.3   205  IMP205      0.4017
     22  N3        46.6080   14.0290    7.9260 N.2   205  IMP205     -0.0334
     23  C4        47.8090   14.5520    8.2940 C.2   205  IMP205      0.3528
@<TRIPOS>BOND
     1    19    18    2
     2    20    18    2
     3    20    21    1
     4    18    17    1
     5    21    22    1
     6    17    16    2
     7    17    23    1
     8    22    23    2
     9    16    15    1
    10    23    14    1
    11    15    14    1
    12    14    13    1
    13    13    11    1
    14    13     8    1
    15    11    12    1
    16    11     9    1
    17     8     7    1
    18     3     1    2
    19     9     7    1
    20     9    10    1
    21     5     1    1
    22     5     6    1
    23     7     6    1
    24     1     2    1
    25     1     4    1
