@<TRIPOS>MOLECULE
2ntl_AMZ_A_1.pdb
 22 23 0 0 0
SMALL
GASTEIGER

@<TRIPOS>ATOM
      1  O5       -11.5190   48.3650   -7.1740 O.2   205  AMZ205     -0.2647
      2  C6       -12.2630   47.7340   -6.4240 C.2   205  AMZ205      0.3092
      3  N2       -12.4820   46.4250   -6.5250 N.am  205  AMZ205     -0.0821
      4  C3A      -12.9900   48.4220   -5.2650 C.2   205  AMZ205      0.2235
      5  C7A      -13.7050   47.7890   -4.2580 C.2   205  AMZ205      0.4013
      6  N3       -13.9610   46.4860   -4.1800 N.2   205  AMZ205      0.1952
      7  N1       -13.0200   49.7270   -5.0140 N.2   205  AMZ205     -0.2119
      8  C5       -13.7180   49.8990   -3.8910 C.3   205  AMZ205      0.3378
      9  N        -14.1380   48.7250   -3.4180 N.pl3 205  AMZ205     -0.1401
     10  C1       -14.9210   48.4850   -2.1830 C.3   205  AMZ205      0.3187
     11  C2       -14.3870   49.3040   -1.0040 C.3   205  AMZ205      0.2570
     12  C3       -15.1220   50.6230   -1.2310 C.3   205  AMZ205      0.2184
     13  O2       -15.1450   51.3870   -0.0220 O.3   205  AMZ205     -0.2174
     14  O1       -14.8200   48.7110    0.2230 O.3   205  AMZ205     -0.2130
     15  O        -16.2620   48.9590   -2.4090 O.3   205  AMZ205     -0.3135
     16  C        -16.5090   50.0330   -1.4860 C.3   205  AMZ205      0.1823
     17  C4       -17.4240   51.0820   -2.1150 C.3   205  AMZ205      0.1860
     18  O3       -16.8630   51.4830   -3.3660 O.3   205  AMZ205     -0.2675
     19  P        -17.5720   52.6370   -4.2330 P.3   205  AMZ205      0.5327
     20  OP1      -17.9230   53.8270   -3.4270 O.3   205  AMZ205     -0.1145
     21  O4       -18.8530   51.9460   -4.9200 O.3   205  AMZ205     -0.1145
     22  OP2      -16.5530   52.9730   -5.4330 O.2   205  AMZ205     -0.2224
@<TRIPOS>BOND
     1     1     2    2
     2     3     2   am
     3     2     4    1
     4    22    19    2
     5     4     7    2
     6     4     5    1
     7     7     8    1
     8    21    19    1
     9     5     6    2
    10     5     9    1
    11    19    20    1
    12    19    18    1
    13     8     9    1
    14     9    10    1
    15    18    17    1
    16    15    10    1
    17    15    16    1
    18    10    11    1
    19    17    16    1
    20    16    12    1
    21    12    11    1
    22    12    13    1
    23    11    14    1
