@<TRIPOS>MOLECULE
2nto_GSH_A_1.pdb
 20 19 0 0 0
SMALL
GASTEIGER

@<TRIPOS>ATOM
      1  N1        33.8100   10.5720   55.8890 N.3   204  GSH204     -0.1208
      2  CA1       35.1890   10.4390   55.3990 C.3   204  GSH204      0.1948
      3  C1        35.8450   11.7870   55.3270 C.2   204  GSH204      0.3819
      4  O11       35.4090   12.5290   54.3850 O.co2 204  GSH204     -0.2441
      5  O12       36.8860   12.2970   56.1020 O.co2 204  GSH204     -0.2441
      6  CB1       35.9610    9.3340   56.1000 C.3   204  GSH204      0.0402
      7  CG1       37.4760    9.3290   55.8890 C.3   204  GSH204      0.0889
      8  CD1       38.0590    7.9160   55.7940 C.2   204  GSH204      0.2418
      9  OE1       37.2890    6.7670   55.9820 O.2   204  GSH204     -0.2733
     10  N2        39.3350    7.8370   55.4940 N.am  204  GSH204     -0.1968
     11  CA2       40.0340    6.5660   55.3810 C.3   204  GSH204      0.1843
     12  C2        40.5590    6.1350   56.7090 C.2   204  GSH204      0.2627
     13  O2        41.4830    6.9720   57.3380 O.2   204  GSH204     -0.2714
     14  CB2       41.2130    6.7310   54.4330 C.3   204  GSH204      0.0997
     15  SG2       40.6770    7.0450   52.7330 S.3   204  GSH204     -0.0797
     16  N3        40.1510    4.9830   57.2310 N.am  204  GSH204     -0.1917
     17  CA3       40.5750    4.5010   58.5370 C.3   204  GSH204      0.2285
     18  C3        41.5390    3.3550   58.3590 C.2   204  GSH204      0.3865
     19  O31       41.8930    2.9720   57.1590 O.co2 204  GSH204     -0.2437
     20  O32       42.0790    2.6580   59.4580 O.co2 204  GSH204     -0.2437
@<TRIPOS>BOND
     1    15    14    1
     2     4     3   ar
     3    14    11    1
     4     3     2    1
     5     3     5   ar
     6    11    10    1
     7    11    12    1
     8     2     1    1
     9     2     6    1
    10    10     8   am
    11     8     7    1
    12     8     9    2
    13     7     6    1
    14    12    16   am
    15    12    13    2
    16    19    18   ar
    17    16    17    1
    18    18    17    1
    19    18    20   ar
