@<TRIPOS>MOLECULE
2ntr_L00_A_1.pdb
 38 41 0 0 0
SMALL
GASTEIGER

@<TRIPOS>ATOM
      1  N5        30.7090   45.2600    1.4470 N.pl3 401  L00401     -0.2810
      2  C9        29.7820   44.3040    1.0660 C.2   401  L00401      0.1846
      3  C10       30.0870   42.9050    1.0670 C.2   401  L00401      0.0498
      4  C11       29.0720   42.0120    0.6600 C.2   401  L00401      0.0596
      5  C12       27.7960   42.5110    0.2730 C.3   401  L00401      0.1745
      6  C13       27.5320   43.9020    0.2770 C.2   401  L00401      0.1991
      7  N1        28.5320   44.7230    0.6670 N.2   401  L00401     -0.3735
      8  N2        26.3120   44.4520   -0.0570 N.pl3 401  L00401     -0.1682
      9  S1        25.5870   45.4750    0.9890 S.O2  401  L00401      0.0605
     10  C15       26.1500   47.1370    0.5660 C.3   401  L00401      0.1999
     11  C16       25.8440   44.4080   -1.4530 C.3   401  L00401      0.1412
     12  O2        26.0740   45.1800    2.3030 O.2   401  L00401     -0.1542
     13  O3        24.1760   45.4040    0.7490 O.2   401  L00401     -0.1542
     14  C20       31.2620   38.0560    2.4780 C.3   401  L00401      0.1506
     15  N6        31.0880   38.6860    3.7980 N.3   401  L00401     -0.1245
     16  C21       30.7270   36.6030    2.5540 C.3   401  L00401      0.0289
     17  C22       32.6980   38.1400    1.8910 C.3   401  L00401      0.0530
     18  C23       34.1160   42.0420    0.5720 C.ar  401  L00401     -0.0000
     19  C24       33.5260   41.1360   -0.4030 C.ar  401  L00401     -0.0003
     20  C25       33.0830   39.8310    0.0390 C.ar  401  L00401     -0.0042
     21  C26       33.2280   39.4830    1.4520 C.ar  401  L00401     -0.0203
     22  C27       33.8110   40.3980    2.4330 C.ar  401  L00401     -0.0042
     23  C28       34.2630   41.7100    1.9820 C.ar  401  L00401     -0.0003
     24  N3        29.6590   38.4860    0.4600 N.ar  401  L00401     -0.1099
     25  N4        29.1270   39.5470   -0.0040 N.ar  401  L00401     -0.1075
     26  C29       29.4520   40.6070    0.7810 C.ar  401  L00401      0.2474
     27  O4        30.2390   40.1200    1.7200 O.2   401  L00401     -0.4184
     28  C30       30.3670   38.8200    1.5430 C.ar  401  L00401      0.2421
     29  C1        32.0950   44.9530    1.8770 C.3   401  L00401      0.0932
     30  C2        30.3330   46.6800    1.4510 C.3   401  L00401      0.1251
     31 CL         26.5120   41.4490   -0.1030 Cl    401  L00401     -0.1008
     32  C3        30.3280   47.2920    0.0510 C.3   401  L00401      0.1637
     33  O1        31.6290   47.3020   -0.5360 O.3   401  L00401     -0.3493
     34  C4        32.3900   48.4230   -0.0660 C.3   401  L00401      0.1742
     35  C5        32.2780   45.4840    4.4450 C.3   401  L00401      0.0017
     36  C6        32.1140   44.5010    3.2990 C.3   401  L00401      0.0199
     37  C7        33.4780   44.7370    3.9120 C.3   401  L00401      0.0018
     38  C8        31.6100   44.9590    5.6460 C.3   401  L00401      0.0001
@<TRIPOS>BOND
     1    11     8    1
     2    33    34    1
     3    33    32    1
     4    19    20   ar
     5    19    18   ar
     6    31     5    1
     7     8     6    1
     8     8     9    1
     9    25    24   ar
    10    25    26   ar
    11    20    21   ar
    12    32    30    1
    13     5     6    1
    14     5     4    1
    15     6     7    2
    16    24    28   ar
    17    10     9    1
    18    18    23   ar
    19     4    26    1
    20     4     3    2
    21     7     2    2
    22    13     9    2
    23    26    27   ar
    24     9    12    2
    25     2     3    1
    26     2     1    1
    27     1    30    1
    28     1    29    1
    29    21    17    1
    30    21    22   ar
    31    28    27   ar
    32    28    14    1
    33    29    36    1
    34    17    14    1
    35    23    22   ar
    36    14    16    1
    37    14    15    1
    38    36    37    1
    39    36    35    1
    40    37    35    1
    41    35    38    1
