@<TRIPOS>MOLECULE
2ntu_RET_A_1.pdb
 20 20 0 0 0
SMALL
GASTEIGER

@<TRIPOS>ATOM
      1  C1        14.9280   45.4480    0.2970 C.3   301  RET301      0.0183
      2  C2        14.6930   46.3570   -0.8920 C.3   301  RET301      0.0044
      3  C3        14.2290   47.7130   -0.6630 C.3   301  RET301      0.0047
      4  C4        14.7410   48.3900    0.5670 C.3   301  RET301      0.0217
      5  C5        15.0200   47.5100    1.7410 C.2   301  RET301     -0.0479
      6  C6        15.2140   46.1750    1.6110 C.2   301  RET301     -0.0307
      7  C7        15.5960   45.4440    2.8170 C.2   301  RET301     -0.0052
      8  C8        15.7030   44.1010    3.0050 C.2   301  RET301     -0.0046
      9  C9        16.2260   43.4320    4.1900 C.2   301  RET301     -0.0219
     10  C10       16.3860   42.0880    4.0250 C.2   301  RET301     -0.0046
     11  C11       16.8790   41.2680    5.1440 C.2   301  RET301     -0.0049
     12  C12       17.1800   39.9580    4.8600 C.2   301  RET301     -0.0265
     13  C13       17.4540   38.9740    5.8810 C.3   301  RET301      0.0220
     14  C14       17.5110   37.7210    5.3370 C.3   301  RET301      0.0043
     15  C15       17.2530   36.5350    6.1530 C.3   301  RET301      0.0003
     16  C16       13.6730   44.5200    0.4410 C.3   301  RET301      0.0043
     17  C17       16.0940   44.5190   -0.2220 C.3   301  RET301      0.0043
     18  C18       15.1800   48.3440    2.9800 C.3   301  RET301      0.0260
     19  C19       16.6020   44.1750    5.4260 C.3   301  RET301      0.0310
     20  C20       17.8350   39.2940    7.2970 C.3   301  RET301      0.0047
@<TRIPOS>BOND
     1     2     3    1
     2     2     1    1
     3     3     4    1
     4    17     1    1
     5     1    16    1
     6     1     6    1
     7     4     5    1
     8     6     5    2
     9     6     7    1
    10     5    18    1
    11     7     8    2
    12     8     9    1
    13    10     9    2
    14    10    11    1
    15     9    19    1
    16    12    11    2
    17    12    13    1
    18    14    13    1
    19    14    15    1
    20    13    20    1
