@<TRIPOS>MOLECULE
2ntw_RET_A_1.pdb
 20 20 0 0 0
SMALL
GASTEIGER

@<TRIPOS>ATOM
      1  C1        14.9870   45.3240    0.3790 C.3   301  RET301      0.0152
      2  C2        14.6850   46.2220   -0.8060 C.3   301  RET301      0.0037
      3  C3        14.3890   47.6310   -0.6030 C.3   301  RET301      0.0006
      4  C4        14.9380   48.2510    0.6360 C.3   301  RET301      0.0040
      5  C5        15.0420   47.3540    1.8390 C.3   301  RET301      0.0183
      6  C6        15.2540   46.0300    1.7100 C.2   301  RET301     -0.0452
      7  C7        15.6300   45.2940    2.9130 C.2   301  RET301     -0.0088
      8  C8        15.7560   43.9500    3.0870 C.2   301  RET301     -0.0049
      9  C9        16.3400   43.2750    4.2380 C.2   301  RET301     -0.0222
     10  C10       16.5060   41.9250    4.1580 C.2   301  RET301     -0.0088
     11  C11       16.9520   41.1250    5.3050 C.2   301  RET301     -0.0265
     12  C12       17.2940   39.8110    5.1030 C.3   301  RET301      0.0260
     13  C13       17.5700   38.8700    6.1940 C.3   301  RET301      0.0043
     14  C14       17.7700   37.6070    5.7900 C.3   301  RET301      0.0003
     15  C15       16.9020   36.4450    5.9390 C.3   301  RET301      0.0000
     16  C16       13.7290   44.4100    0.5120 C.3   301  RET301      0.0040
     17  C17       16.1990   44.4630   -0.1270 C.3   301  RET301      0.0040
     18  C18       15.1890   48.1760    3.0910 C.3   301  RET301      0.0043
     19  C19       16.6550   44.0300    5.4860 C.3   301  RET301      0.0310
     20  C20       17.9430   39.3750    7.5630 C.3   301  RET301      0.0003
@<TRIPOS>BOND
     1     2     3    1
     2     2     1    1
     3     3     4    1
     4    17     1    1
     5     1    16    1
     6     1     6    1
     7     4     5    1
     8     6     5    1
     9     6     7    2
    10     5    18    1
    11     7     8    1
    12     8     9    2
    13    10     9    1
    14    10    11    2
    15     9    19    1
    16    12    11    1
    17    12    13    1
    18    14    15    1
    19    14    13    1
    20    13    20    1
