@<TRIPOS>MOLECULE
2nu5_NAG_A_1.pdb
 15 15 0 0 0
SMALL
GASTEIGER

@<TRIPOS>ATOM
      1  C1         6.0360   -6.3970   16.7060 C.3   122  NAG122      0.2917
      2  C2         6.1810   -7.5820   15.7580 C.3   122  NAG122      0.1871
      3  C3         7.4220   -8.4230   16.0460 C.3   122  NAG122      0.2095
      4  C4         8.6590   -7.4950   16.1650 C.3   122  NAG122      0.2136
      5  C5         8.4140   -6.3380   17.1600 C.3   122  NAG122      0.1835
      6  C6         9.6060   -5.3170   17.1810 C.3   122  NAG122      0.2142
      7  C7         4.0620   -8.4000   14.9970 C.2   122  NAG122      0.2421
      8  C8         3.0990   -9.5690   15.0790 C.3   122  NAG122      0.0964
      9  N2         4.9680   -8.4190   15.9230 N.am  122  NAG122     -0.1991
     10  O1         4.8970   -5.6650   16.2300 O.3   122  NAG122     -0.1879
     11  O3         7.6330   -9.4350   15.0440 O.3   122  NAG122     -0.2183
     12  O4         9.7160   -8.2840   16.6070 O.3   122  NAG122     -0.2176
     13  O5         7.2310   -5.6100   16.7900 O.3   122  NAG122     -0.3242
     14  O6         9.6900   -4.7830   15.8570 O.3   122  NAG122     -0.2176
     15  O7         3.9630   -7.5220   14.1580 O.2   122  NAG122     -0.2733
@<TRIPOS>BOND
     1    15     7    2
     2     7     8    1
     3     7     9   am
     4    11     3    1
     5     2     9    1
     6     2     3    1
     7     2     1    1
     8    14     6    1
     9     3     4    1
    10     4    12    1
    11     4     5    1
    12    10     1    1
    13     1    13    1
    14    13     5    1
    15     5     6    1
