@<TRIPOS>MOLECULE
2nu6_COA_A_1.pdb
 48 50 0 0 0
SMALL
GASTEIGER

@<TRIPOS>ATOM
      1  N1A       30.6130   61.5730   47.2910 N.2   1300  COA1300     0.0021
      2  C2A       29.8690   62.6360   47.5650 C.3   1300  COA1300     0.5254
      3  N3A       28.6930   62.6930   48.1750 N.2   1300  COA1300    -0.0055
      4  C4A       28.2610   61.4600   48.5150 C.2   1300  COA1300     0.3518
      5  C5A       28.9070   60.2700   48.2830 C.2   1300  COA1300     0.2526
      6  C6A       30.1510   60.3420   47.6480 C.2   1300  COA1300     0.4393
      7  N6A       30.9020   59.2620   47.3930 N.pl3 1300  COA1300     0.2180
      8  N7A       28.1590   59.1980   48.7760 N.2   1300  COA1300    -0.2095
      9  C8A       27.0970   59.7640   49.2910 C.3   1300  COA1300     0.3377
     10  N9A       27.0930   61.1290   49.1670 N.pl3 1300  COA1300    -0.1439
     11  C1B       26.1020   62.0910   49.6050 C.3   1300  COA1300     0.3185
     12  C2B       24.6150   61.8240   49.4070 C.3   1300  COA1300     0.2543
     13  O2B       24.2760   62.2280   48.1010 O.3   1300  COA1300    -0.2131
     14  C3B       23.9940   62.6370   50.5560 C.3   1300  COA1300     0.1928
     15  O3B       23.4110   63.8770   50.0560 O.3   1300  COA1300    -0.2673
     16  P3B       21.9880   63.8920   49.2610 P.3   1300  COA1300     0.5327
     17  O7A       22.0780   65.1480   48.4060 O.3   1300  COA1300    -0.1145
     18  O8A       21.7970   62.6330   48.3990 O.2   1300  COA1300    -0.2224
     19  O9A       21.0430   63.9450   50.4570 O.3   1300  COA1300    -0.1145
     20  C4B       25.1770   63.0730   51.4250 C.3   1300  COA1300     0.1795
     21  O4B       26.3180   62.3880   50.9390 O.3   1300  COA1300    -0.3136
     22  C5B       25.0240   62.7430   52.8830 C.3   1300  COA1300     0.1812
     23  O5B       23.9900   63.5230   53.4180 O.3   1300  COA1300    -0.3112
     24  P1A       22.9710   62.9440   54.4780 P.3   1300  COA1300     0.2189
     25  O1A       22.0280   64.0570   54.7310 O.3   1300  COA1300    -0.4371
     26  O2A       22.4660   61.6420   53.9840 O.2   1300  COA1300    -0.5170
     27  O3A       23.8800   62.6050   55.7740 O.3   1300  COA1300    -0.2703
     28  P2A       24.1920   63.6760   56.9150 P.3   1300  COA1300     0.2188
     29  O4A       24.4980   64.9950   56.1990 O.2   1300  COA1300    -0.5170
     30  O5A       22.9260   63.6830   57.7910 O.3   1300  COA1300    -0.4371
     31  O6A       25.3970   63.0450   57.6040 O.3   1300  COA1300    -0.3138
     32  CBP       27.6550   62.8650   58.1900 C.3   1300  COA1300     0.0645
     33  CCP       26.7340   62.8090   57.0200 C.3   1300  COA1300     0.1519
     34  CDP       27.5300   64.2170   59.0180 C.3   1300  COA1300     0.0056
     35  CEP       29.0060   62.7290   57.5110 C.3   1300  COA1300     0.0056
     36  CAP       27.3450   61.7490   59.2300 C.3   1300  COA1300     0.2312
     37  OAP       27.3690   60.4730   58.5500 O.3   1300  COA1300    -0.2131
     38  C9P       28.4100   61.7130   60.3790 C.2   1300  COA1300     0.2719
     39  O9P       29.4370   61.0590   60.2310 O.2   1300  COA1300    -0.2706
     40  N8P       28.1840   62.3840   61.5310 N.am  1300  COA1300    -0.2028
     41  C7P       29.0960   62.4630   62.7020 C.3   1300  COA1300     0.1248
     42  C6P       29.9400   63.7250   62.4790 C.3   1300  COA1300     0.1102
     43  C5P       30.7860   63.8980   63.7530 C.2   1300  COA1300     0.2432
     44  O5P       30.1360   63.5860   64.7720 O.2   1300  COA1300    -0.2733
     45  N4P       32.0750   64.3470   63.7190 N.am  1300  COA1300    -0.2044
     46  C3P       33.0040   64.5380   64.8500 C.3   1300  COA1300     0.1276
     47  C2P       33.6860   65.8820   64.8410 C.3   1300  COA1300     0.0920
     48  S1P       33.6390   66.2490   66.6030 S.3   1300  COA1300    -0.0802
@<TRIPOS>BOND
     1     1     2    1
     2     1     6    2
     3     7     6    1
     4     2     3    1
     5     6     5    1
     6    13    12    1
     7     3     4    2
     8     5     4    1
     9     5     8    2
    10    18    16    2
    11    17    16    1
    12     4    10    1
    13     8     9    1
    14    10     9    1
    15    10    11    1
    16    16    15    1
    17    16    19    1
    18    12    11    1
    19    12    14    1
    20    11    21    1
    21    15    14    1
    22    14    20    1
    23    21    20    1
    24    20    22    1
    25    22    23    1
    26    23    24    1
    27    26    24    2
    28    24    25    1
    29    24    27    1
    30    27    28    1
    31    29    28    2
    32    28    31    1
    33    28    30    1
    34    33    31    1
    35    33    32    1
    36    35    32    1
    37    32    34    1
    38    32    36    1
    39    37    36    1
    40    36    38    1
    41    39    38    2
    42    38    40   am
    43    40    41    1
    44    42    41    1
    45    42    43    1
    46    45    43   am
    47    45    46    1
    48    43    44    2
    49    47    46    1
    50    47    48    1
