@<TRIPOS>MOLECULE
2nu7_COA_A_1.pdb
 48 50 0 0 0
SMALL
GASTEIGER

@<TRIPOS>ATOM
      1  N1A       30.3370   61.0820   47.2580 N.2   1300  COA1300     0.0021
      2  C2A       29.5900   62.1660   47.5630 C.3   1300  COA1300     0.5254
      3  N3A       28.4120   62.2200   48.1950 N.2   1300  COA1300    -0.0055
      4  C4A       27.9940   60.9830   48.5410 C.2   1300  COA1300     0.3518
      5  C5A       28.6410   59.7790   48.3000 C.2   1300  COA1300     0.2526
      6  C6A       29.8810   59.8470   47.6240 C.2   1300  COA1300     0.4393
      7  N6A       30.6230   58.7720   47.3390 N.pl3 1300  COA1300     0.2180
      8  N7A       27.9010   58.7100   48.8110 N.2   1300  COA1300    -0.2095
      9  C8A       26.8440   59.2810   49.3400 C.3   1300  COA1300     0.3377
     10  N9A       26.8390   60.6580   49.2110 N.pl3 1300  COA1300    -0.1439
     11  C1B       25.8530   61.6270   49.6500 C.3   1300  COA1300     0.3185
     12  C2B       24.3720   61.2740   49.5430 C.3   1300  COA1300     0.2543
     13  O2B       23.9640   61.4860   48.2200 O.3   1300  COA1300    -0.2131
     14  C3B       23.7550   62.2000   50.5990 C.3   1300  COA1300     0.1928
     15  O3B       23.2410   63.3760   49.9300 O.3   1300  COA1300    -0.2673
     16  P3B       21.7630   63.3830   49.2570 P.3   1300  COA1300     0.5327
     17  O7A       21.7840   64.6830   48.4570 O.3   1300  COA1300    -0.1145
     18  O8A       21.5200   62.1520   48.3740 O.2   1300  COA1300    -0.2224
     19  O9A       20.8030   63.3980   50.4390 O.3   1300  COA1300    -0.1145
     20  C4B       24.9270   62.6880   51.4560 C.3   1300  COA1300     0.1795
     21  O4B       26.1080   62.0300   50.9680 O.3   1300  COA1300    -0.3136
     22  C5B       24.7460   62.3510   52.9140 C.3   1300  COA1300     0.1812
     23  O5B       23.6240   63.0420   53.4300 O.3   1300  COA1300    -0.3112
     24  P1A       22.6750   62.3880   54.5250 P.3   1300  COA1300     0.2189
     25  O1A       21.6460   63.4070   54.8280 O.3   1300  COA1300    -0.4371
     26  O2A       22.2520   61.0480   54.0190 O.2   1300  COA1300    -0.5170
     27  O3A       23.6390   62.1180   55.8030 O.3   1300  COA1300    -0.2703
     28  P2A       23.8630   63.2080   56.9590 P.3   1300  COA1300     0.2188
     29  O4A       24.1820   64.4890   56.2160 O.2   1300  COA1300    -0.5170
     30  O5A       22.5500   63.2350   57.7580 O.3   1300  COA1300    -0.4371
     31  O6A       25.0380   62.5890   57.7100 O.3   1300  COA1300    -0.3138
     32  CBP       27.4170   62.3550   58.2410 C.3   1300  COA1300     0.0645
     33  CCP       26.3290   62.2390   57.1620 C.3   1300  COA1300     0.1519
     34  CDP       27.5410   63.7860   58.8910 C.3   1300  COA1300     0.0056
     35  CEP       28.6080   62.1220   57.3090 C.3   1300  COA1300     0.0056
     36  CAP       27.1380   61.2960   59.3890 C.3   1300  COA1300     0.2312
     37  OAP       26.9670   59.9910   58.6750 O.3   1300  COA1300    -0.2131
     38  C9P       28.2340   61.3740   60.5440 C.2   1300  COA1300     0.2719
     39  O9P       29.2710   60.7180   60.3340 O.2   1300  COA1300    -0.2706
     40  N8P       28.0850   62.0940   61.7030 N.am  1300  COA1300    -0.2028
     41  C7P       29.0680   62.2020   62.7730 C.3   1300  COA1300     0.1248
     42  C6P       29.9180   63.4780   62.5810 C.3   1300  COA1300     0.1102
     43  C5P       30.7970   63.6980   63.8310 C.2   1300  COA1300     0.2432
     44  O5P       30.1400   63.3400   64.8450 O.2   1300  COA1300    -0.2733
     45  N4P       32.0740   64.1950   63.8020 N.am  1300  COA1300    -0.2044
     46  C3P       33.0310   64.4410   65.0030 C.3   1300  COA1300     0.1276
     47  C2P       33.3370   65.8150   65.6250 C.3   1300  COA1300     0.0920
     48  S1P       32.6470   65.7700   67.3360 S.3   1300  COA1300    -0.0802
@<TRIPOS>BOND
     1     1     2    1
     2     1     6    2
     3     7     6    1
     4     2     3    1
     5     6     5    1
     6     3     4    2
     7    13    12    1
     8     5     4    1
     9     5     8    2
    10    18    16    2
    11    17    16    1
    12     4    10    1
    13     8     9    1
    14    10     9    1
    15    10    11    1
    16    16    15    1
    17    16    19    1
    18    12    11    1
    19    12    14    1
    20    11    21    1
    21    15    14    1
    22    14    20    1
    23    21    20    1
    24    20    22    1
    25    22    23    1
    26    23    24    1
    27    26    24    2
    28    24    25    1
    29    24    27    1
    30    27    28    1
    31    29    28    2
    32    28    31    1
    33    28    30    1
    34    33    31    1
    35    33    32    1
    36    35    32    1
    37    32    34    1
    38    32    36    1
    39    37    36    1
    40    36    38    1
    41    39    38    2
    42    38    40   am
    43    40    41    1
    44    42    41    1
    45    42    43    1
    46    45    43   am
    47    45    46    1
    48    43    44    2
    49    46    47    1
    50    47    48    1
