@<TRIPOS>MOLECULE
2nu8_COA_A_1.pdb
 48 50 0 0 0
SMALL
GASTEIGER

@<TRIPOS>ATOM
      1  N1A       30.2890   61.0470   47.1850 N.2   1300  COA1300     0.0021
      2  C2A       29.5260   62.1100   47.4960 C.3   1300  COA1300     0.5254
      3  N3A       28.3310   62.1400   48.0940 N.2   1300  COA1300    -0.0055
      4  C4A       27.9310   60.8990   48.4220 C.2   1300  COA1300     0.3518
      5  C5A       28.5930   59.7120   48.1750 C.2   1300  COA1300     0.2526
      6  C6A       29.8330   59.8070   47.4960 C.2   1300  COA1300     0.4393
      7  N6A       30.5680   58.7580   47.1420 N.pl3 1300  COA1300     0.2180
      8  N7A       27.8650   58.6290   48.6810 N.2   1300  COA1300    -0.2095
      9  C8A       26.7960   59.1750   49.1930 C.3   1300  COA1300     0.3377
     10  N9A       26.7700   60.5510   49.0610 N.pl3 1300  COA1300    -0.1439
     11  C1B       25.7630   61.5150   49.4520 C.3   1300  COA1300     0.3185
     12  C2B       24.2870   61.1180   49.3690 C.3   1300  COA1300     0.2543
     13  O2B       23.8420   61.2680   48.0590 O.3   1300  COA1300    -0.2131
     14  C3B       23.6520   62.0530   50.4030 C.3   1300  COA1300     0.1928
     15  O3B       23.1630   63.2260   49.7290 O.3   1300  COA1300    -0.2673
     16  P3B       21.6990   63.2560   49.0600 P.3   1300  COA1300     0.5327
     17  O7A       21.7790   64.5460   48.2340 O.3   1300  COA1300    -0.1145
     18  O8A       21.3810   62.0230   48.1940 O.2   1300  COA1300    -0.2224
     19  O9A       20.7960   63.2760   50.2820 O.3   1300  COA1300    -0.1145
     20  C4B       24.8200   62.5560   51.2550 C.3   1300  COA1300     0.1795
     21  O4B       26.0150   61.9280   50.7540 O.3   1300  COA1300    -0.3136
     22  C5B       24.6410   62.2010   52.7070 C.3   1300  COA1300     0.1812
     23  O5B       23.5670   62.9380   53.2320 O.3   1300  COA1300    -0.3112
     24  P1A       22.5820   62.3280   54.3180 P.3   1300  COA1300     0.2189
     25  O1A       21.6160   63.4080   54.5840 O.3   1300  COA1300    -0.4371
     26  O2A       22.1120   61.0230   53.7730 O.2   1300  COA1300    -0.5170
     27  O3A       23.5110   62.0170   55.5940 O.3   1300  COA1300    -0.2703
     28  P2A       23.8020   63.0780   56.7500 P.3   1300  COA1300     0.2188
     29  O4A       24.0790   64.3880   56.0470 O.2   1300  COA1300    -0.5170
     30  O5A       22.5210   63.0640   57.5880 O.3   1300  COA1300    -0.4371
     31  O6A       24.9900   62.4250   57.4590 O.3   1300  COA1300    -0.3138
     32  CBP       27.2890   62.1530   57.9750 C.3   1300  COA1300     0.0645
     33  CCP       26.2650   62.1330   56.9010 C.3   1300  COA1300     0.1519
     34  CDP       27.3640   63.5950   58.5640 C.3   1300  COA1300     0.0056
     35  CEP       28.4910   61.8070   57.1020 C.3   1300  COA1300     0.0056
     36  CAP       27.0020   61.1880   59.1460 C.3   1300  COA1300     0.2312
     37  OAP       26.8550   59.8720   58.6180 O.3   1300  COA1300    -0.2131
     38  C9P       28.0930   61.2590   60.2010 C.2   1300  COA1300     0.2719
     39  O9P       29.1880   60.6730   60.1270 O.2   1300  COA1300    -0.2706
     40  N8P       27.7620   62.0270   61.2750 N.am  1300  COA1300    -0.2028
     41  C7P       28.6430   62.2550   62.4020 C.3   1300  COA1300     0.1248
     42  C6P       29.4300   63.4900   61.9770 C.3   1300  COA1300     0.1102
     43  C5P       30.3250   63.7250   63.2180 C.2   1300  COA1300     0.2432
     44  O5P       29.6930   63.7760   64.2900 O.2   1300  COA1300    -0.2733
     45  N4P       31.6740   63.8420   63.1620 N.am  1300  COA1300    -0.2044
     46  C3P       32.5450   64.0480   64.2980 C.3   1300  COA1300     0.1276
     47  C2P       32.2410   65.4350   64.8010 C.3   1300  COA1300     0.0920
     48  S1P       33.4590   65.7900   66.0640 S.3   1300  COA1300    -0.0802
@<TRIPOS>BOND
     1     7     6    1
     2     1     2    1
     3     1     6    2
     4     2     3    1
     5     6     5    1
     6    13    12    1
     7     3     4    2
     8     5     4    1
     9     5     8    2
    10    18    16    2
    11    17    16    1
    12     4    10    1
    13     8     9    1
    14    16    15    1
    15    16    19    1
    16    10     9    1
    17    10    11    1
    18    12    11    1
    19    12    14    1
    20    11    21    1
    21    15    14    1
    22    14    20    1
    23    21    20    1
    24    20    22    1
    25    22    23    1
    26    23    24    1
    27    26    24    2
    28    24    25    1
    29    24    27    1
    30    27    28    1
    31    29    28    2
    32    28    31    1
    33    28    30    1
    34    33    31    1
    35    33    32    1
    36    35    32    1
    37    32    34    1
    38    32    36    1
    39    37    36    1
    40    36    38    1
    41    39    38    2
    42    38    40   am
    43    40    41    1
    44    42    41    1
    45    42    43    1
    46    45    43   am
    47    45    46    1
    48    43    44    2
    49    46    47    1
    50    47    48    1
