@<TRIPOS>MOLECULE
2nu9_COA_A_1.pdb
 48 50 0 0 0
SMALL
GASTEIGER

@<TRIPOS>ATOM
      1  N1A       48.2900   30.3970  129.9180 N.2   300  COA300      0.0021
      2  C2A       47.5620   31.3130  129.2610 C.3   300  COA300      0.5254
      3  N3A       46.3830   31.8480  129.5850 N.2   300  COA300     -0.0055
      4  C4A       45.9320   31.3370  130.7450 C.2   300  COA300      0.3518
      5  C5A       46.5550   30.3880  131.5350 C.2   300  COA300      0.2526
      6  C6A       47.8110   29.9070  131.0870 C.2   300  COA300      0.4393
      7  N6A       48.5490   29.0080  131.7530 N.pl3 300  COA300      0.2180
      8  N7A       45.7820   30.1020  132.6530 N.2   300  COA300     -0.2095
      9  C8A       44.7340   30.8790  132.5190 C.3   300  COA300      0.3377
     10  N9A       44.7660   31.6590  131.3930 N.pl3 300  COA300     -0.1439
     11  C1B       43.8270   32.6650  130.9070 C.3   300  COA300      0.3185
     12  C2B       42.3440   32.3300  130.7000 C.3   300  COA300      0.2543
     13  O2B       42.1260   32.2630  129.3100 O.3   300  COA300     -0.2131
     14  C3B       41.6310   33.5040  131.4030 C.3   300  COA300      0.1928
     15  O3B       40.5500   34.1510  130.6810 O.3   300  COA300     -0.2673
     16  P3B       39.5480   33.3200  129.7180 P.3   300  COA300      0.5327
     17  O7A       39.9300   33.7880  128.3250 O.2   300  COA300     -0.2224
     18  O8A       39.7150   31.8260  129.9640 O.3   300  COA300     -0.1145
     19  O9A       38.1950   33.8620  130.1350 O.3   300  COA300     -0.1145
     20  C4B       42.7190   34.5650  131.5530 C.3   300  COA300      0.1795
     21  O4B       43.9310   33.8170  131.6980 O.3   300  COA300     -0.3136
     22  C5B       42.5680   35.5050  132.7200 C.3   300  COA300      0.1812
     23  O5B       41.4480   36.3510  132.5160 O.3   300  COA300     -0.3112
     24  P1A       40.5860   36.8900  133.7370 P.3   300  COA300      0.2189
     25  O1A       39.6690   37.9380  133.2070 O.2   300  COA300     -0.5170
     26  O2A       40.0240   35.7270  134.4680 O.3   300  COA300     -0.4371
     27  O3A       41.6720   37.5590  134.7240 O.3   300  COA300     -0.2703
     28  P2A       41.9720   39.1460  134.7200 P.3   300  COA300      0.2188
     29  O4A       42.4760   39.4120  133.2990 O.2   300  COA300     -0.5170
     30  O5A       40.6510   39.8190  135.0950 O.3   300  COA300     -0.4371
     31  O6A       43.0390   39.2880  135.7980 O.3   300  COA300     -0.3138
     32  CBP       45.3990   39.5960  136.1850 C.3   300  COA300      0.0645
     33  CCP       44.3110   38.6720  135.6500 C.3   300  COA300      0.1519
     34  CDP       45.1990   40.9820  135.5480 C.3   300  COA300      0.0056
     35  CEP       46.7270   38.9440  135.7340 C.3   300  COA300      0.0056
     36  CAP       45.2420   39.7600  137.7540 C.3   300  COA300      0.2312
     37  OAP       45.4140   38.4950  138.4950 O.3   300  COA300     -0.2131
     38  C9P       46.3420   40.7010  138.2720 C.2   300  COA300      0.2719
     39  O9P       47.5230   40.3560  138.3980 O.2   300  COA300     -0.2706
     40  N8P       45.9000   41.9330  138.5710 N.am  300  COA300     -0.2028
     41  C7P       46.8290   42.9330  139.0850 C.3   300  COA300      0.1248
     42  C6P       47.4580   43.7530  137.9700 C.3   300  COA300      0.1102
     43  C5P       48.3620   44.8020  138.6080 C.2   300  COA300      0.2432
     44  O5P       47.8590   45.6120  139.3880 O.2   300  COA300     -0.2733
     45  N4P       49.6700   44.7930  138.2890 N.am  300  COA300     -0.2044
     46  C3P       50.6960   45.7090  138.7970 C.3   300  COA300      0.1276
     47  C2P       50.5350   47.0800  138.1590 C.3   300  COA300      0.0920
     48  S1P       51.9260   48.1810  138.5420 S.3   300  COA300     -0.0802
@<TRIPOS>BOND
     1    17    16    2
     2     2     3    1
     3     2     1    1
     4    13    12    1
     5     3     4    2
     6    16    18    1
     7    16    19    1
     8    16    15    1
     9     1     6    2
    10    15    14    1
    11    12    11    1
    12    12    14    1
    13     4    10    1
    14     4     5    1
    15    11    10    1
    16    11    21    1
    17     6     5    1
    18     6     7    1
    19    10     9    1
    20    14    20    1
    21     5     8    2
    22    20    21    1
    23    20    22    1
    24    23    22    1
    25    23    24    1
    26     9     8    1
    27    25    24    2
    28    29    28    2
    29    24    26    1
    30    24    27    1
    31    28    27    1
    32    28    30    1
    33    28    31    1
    34    34    32    1
    35    33    31    1
    36    33    32    1
    37    35    32    1
    38    32    36    1
    39    36    38    1
    40    36    37    1
    41    42    43    1
    42    42    41    1
    43    47    48    1
    44    47    46    1
    45    38    39    2
    46    38    40   am
    47    45    43   am
    48    45    46    1
    49    40    41    1
    50    43    44    2
