@<TRIPOS>MOLECULE
2nua_COA_A_1.pdb
 48 50 0 0 0
SMALL
GASTEIGER

@<TRIPOS>ATOM
      1  N1A       30.3510   61.4170   47.8170 N.2   1300  COA1300     0.0021
      2  C2A       29.6300   62.5130   48.0640 C.3   1300  COA1300     0.5254
      3  N3A       28.4400   62.6190   48.6390 N.2   1300  COA1300    -0.0055
      4  C4A       27.9690   61.4080   48.9860 C.2   1300  COA1300     0.3518
      5  C5A       28.5810   60.1920   48.7900 C.2   1300  COA1300     0.2526
      6  C6A       29.8470   60.2140   48.1780 C.2   1300  COA1300     0.4393
      7  N6A       30.5790   59.1210   47.9450 N.pl3 1300  COA1300     0.2180
      8  N7A       27.7870   59.1610   49.2760 N.2   1300  COA1300    -0.2095
      9  C8A       26.7360   59.7760   49.7630 C.3   1300  COA1300     0.3377
     10  N9A       26.8000   61.1370   49.6490 N.pl3 1300  COA1300    -0.1439
     11  C1B       25.9230   62.1900   50.1400 C.3   1300  COA1300     0.3185
     12  C2B       24.4550   62.3140   49.7290 C.3   1300  COA1300     0.2543
     13  O2B       24.3350   63.4610   48.9220 O.3   1300  COA1300    -0.2131
     14  C3B       23.7520   62.5370   51.0710 C.3   1300  COA1300     0.1928
     15  O3B       22.8200   63.6300   50.9750 O.3   1300  COA1300    -0.2673
     16  P3B       21.6830   63.6510   49.8220 P.3   1300  COA1300     0.5327
     17  O7A       22.0150   64.8580   48.9610 O.2   1300  COA1300    -0.2224
     18  O8A       21.7060   62.3160   49.0810 O.3   1300  COA1300    -0.1145
     19  O9A       20.4210   63.8510   50.6380 O.3   1300  COA1300    -0.1145
     20  C4B       24.8800   62.9630   52.0100 C.3   1300  COA1300     0.1795
     21  O4B       26.0200   62.2530   51.5270 O.3   1300  COA1300    -0.3136
     22  C5B       24.7130   62.6230   53.4670 C.3   1300  COA1300     0.1812
     23  O5B       23.6830   63.4120   54.0300 O.3   1300  COA1300    -0.3112
     24  P1A       22.7400   62.8220   55.1590 P.3   1300  COA1300     0.2189
     25  O1A       21.7950   63.8960   55.5310 O.3   1300  COA1300    -0.4371
     26  O2A       22.2200   61.5190   54.6730 O.2   1300  COA1300    -0.5170
     27  O3A       23.7270   62.5580   56.4010 O.3   1300  COA1300    -0.2703
     28  P2A       23.9620   63.6640   57.5470 P.3   1300  COA1300     0.2188
     29  O4A       24.2960   64.9600   56.8270 O.2   1300  COA1300    -0.5170
     30  O5A       22.6290   63.6800   58.2820 O.3   1300  COA1300    -0.4371
     31  O6A       25.1180   63.0930   58.3680 O.3   1300  COA1300    -0.3138
     32  CBP       27.4110   62.6550   58.8360 C.3   1300  COA1300     0.0645
     33  CCP       26.3430   62.6610   57.8050 C.3   1300  COA1300     0.1519
     34  CDP       27.3550   64.0630   59.4070 C.3   1300  COA1300     0.0056
     35  CEP       28.7750   62.4470   58.1530 C.3   1300  COA1300     0.0056
     36  CAP       27.1280   61.5460   59.9220 C.3   1300  COA1300     0.2312
     37  OAP       27.2390   60.2190   59.3640 O.3   1300  COA1300    -0.2131
     38  C9P       28.2240   61.4960   61.0020 C.2   1300  COA1300     0.2719
     39  O9P       29.2730   60.8720   60.8220 O.2   1300  COA1300    -0.2706
     40  N8P       27.9620   62.1770   62.1340 N.am  1300  COA1300    -0.2028
     41  C7P       28.9010   62.2140   63.2530 C.3   1300  COA1300     0.1248
     42  C6P       29.9190   63.3050   62.9950 C.3   1300  COA1300     0.1102
     43  C5P       30.6920   63.5900   64.2610 C.2   1300  COA1300     0.2432
     44  O5P       30.0820   63.4020   65.3120 O.2   1300  COA1300    -0.2733
     45  N4P       31.9670   64.0230   64.2230 N.am  1300  COA1300    -0.2044
     46  C3P       32.7680   64.3180   65.4220 C.3   1300  COA1300     0.1276
     47  C2P       33.0910   65.8050   65.4490 C.3   1300  COA1300     0.0920
     48  S1P       33.3660   66.1800   67.1740 S.3   1300  COA1300    -0.0802
@<TRIPOS>BOND
     1     1     2    1
     2     1     6    2
     3     7     6    1
     4     2     3    1
     5     6     5    1
     6     3     4    2
     7     5     4    1
     8     5     8    2
     9    13    12    1
    10    17    16    2
    11     4    10    1
    12    18    16    1
    13     8     9    1
    14    10     9    1
    15    10    11    1
    16    12    11    1
    17    12    14    1
    18    16    19    1
    19    16    15    1
    20    11    21    1
    21    15    14    1
    22    14    20    1
    23    21    20    1
    24    20    22    1
    25    22    23    1
    26    23    24    1
    27    26    24    2
    28    24    25    1
    29    24    27    1
    30    27    28    1
    31    29    28    2
    32    28    30    1
    33    28    31    1
    34    33    31    1
    35    33    32    1
    36    35    32    1
    37    32    34    1
    38    32    36    1
    39    37    36    1
    40    36    38    1
    41    39    38    2
    42    38    40   am
    43    40    41    1
    44    42    41    1
    45    42    43    1
    46    45    43   am
    47    45    46    1
    48    43    44    2
    49    46    47    1
    50    47    48    1
