@<TRIPOS>MOLECULE
2nuc_THP_A_1.pdb
 26 27 0 0 0
SMALL
GASTEIGER

@<TRIPOS>ATOM
      1  P2         6.3990   14.1280   20.4560 P.3   151  THP151      0.5327
      2  O4P        5.3500   14.1520   19.3860 O.2   151  THP151     -0.2224
      3  O5P        7.6510   14.8580   20.0050 O.3   151  THP151     -0.1145
      4  O6P        6.5520   12.7970   21.0570 O.3   151  THP151     -0.1145
      5  P1         4.9390   11.9430   26.0540 P.3   151  THP151      0.5326
      6  O1P        4.7350   11.8050   27.5000 O.3   151  THP151     -0.1145
      7  O2P        6.3110   11.8970   25.5480 O.3   151  THP151     -0.1145
      8  O3P        3.9700   11.2020   25.2170 O.2   151  THP151     -0.2224
      9  O5'        5.7450   14.9690   21.5980 O.3   151  THP151     -0.2675
     10  C5'        4.6830   14.4400   22.3620 C.3   151  THP151      0.1857
     11  C4'        5.1290   14.4240   23.8270 C.3   151  THP151      0.1750
     12  O4'        5.4550   15.7520   24.2850 O.3   151  THP151     -0.3327
     13  C3'        3.9750   14.0260   24.6950 C.3   151  THP151      0.1602
     14  O3'        4.5270   13.5000   25.9030 O.3   151  THP151     -0.2700
     15  C2'        3.2250   15.2740   24.9710 C.3   151  THP151      0.0867
     16  C1'        4.3400   16.2890   25.0450 C.3   151  THP151      0.2106
     17  N1         3.8840   17.6540   24.6350 N.ar  151  THP151     -0.2574
     18  C2         3.4770   18.4860   25.6590 C.ar  151  THP151      0.3322
     19  O2         3.6410   18.2460   26.8460 O.2   151  THP151     -0.2464
     20  N3         2.9120   19.6470   25.2850 N.ar  151  THP151     -0.2746
     21  C4         2.7170   20.0580   23.9880 C.ar  151  THP151      0.2584
     22  O4         2.1370   21.1160   23.8210 O.2   151  THP151     -0.2674
     23  C5         3.2250   19.1800   22.9490 C.ar  151  THP151      0.0515
     24  C5M        3.0740   19.5700   21.4420 C.3   151  THP151      0.0376
     25  C6         3.8260   18.0460   23.3100 C.ar  151  THP151      0.0823
     26  H3         2.6010   20.2750   26.0130 H     151  THP151      0.1734
@<TRIPOS>BOND
     1     2     1    2
     2     3     1    1
     3     1     4    1
     4     1     9    1
     5    24    23    1
     6     9    10    1
     7    10    11    1
     8    23    25   ar
     9    23    21   ar
    10    25    17   ar
    11    22    21    2
    12    11    12    1
    13    11    13    1
    14    21    20   ar
    15    12    16    1
    16    17    16    1
    17    17    18   ar
    18    13    15    1
    19    13    14    1
    20    15    16    1
    21     8     5    2
    22    20    18   ar
    23    20    26    1
    24     7     5    1
    25    18    19    2
    26    14     5    1
    27     5     6    1
