@<TRIPOS>MOLECULE
2nun_ADP_A_1.pdb
 27 29 0 0 0
SMALL
GASTEIGER

@<TRIPOS>ATOM
      1  PB       -83.6720   40.2870   -5.7880 P.3   600  ADP600      0.5373
      2  O1B      -82.6170   39.4970   -5.0930 O.3   600  ADP600     -0.1143
      3  O2B      -83.9660   39.7890   -7.1610 O.2   600  ADP600     -0.2221
      4  O3B      -84.9470   40.4250   -4.8730 O.3   600  ADP600     -0.1143
      5  PA       -83.0480   43.1420   -5.5530 P.3   600  ADP600      0.2231
      6  O1A      -84.3970   43.7140   -5.7100 O.2   600  ADP600     -0.5169
      7  O2A      -82.4640   43.2970   -4.1960 O.3   600  ADP600     -0.4370
      8  O3A      -82.9380   41.6430   -5.9950 O.3   600  ADP600     -0.2261
      9  O5'      -82.3110   43.7690   -6.8040 O.3   600  ADP600     -0.3111
     10  C5'      -80.9360   43.4600   -7.1580 C.3   600  ADP600      0.1813
     11  C4'      -80.1810   44.6830   -7.6430 C.3   600  ADP600      0.1821
     12  O4'      -79.8900   44.7050   -9.0850 O.3   600  ADP600     -0.3135
     13  C3'      -80.8460   46.0440   -7.4220 C.3   600  ADP600      0.2184
     14  O3'      -79.7640   46.9810   -7.2720 O.3   600  ADP600     -0.2174
     15  C2'      -81.6870   46.1640   -8.6950 C.3   600  ADP600      0.2570
     16  O2'      -82.1680   47.4800   -8.9980 O.3   600  ADP600     -0.2130
     17  C1'      -80.7170   45.6440   -9.7720 C.3   600  ADP600      0.3186
     18  N9       -81.3920   45.0360  -10.9750 N.pl3 600  ADP600     -0.1439
     19  C8       -82.4960   44.2340  -11.0300 C.3   600  ADP600      0.3377
     20  N7       -82.8220   43.8840  -12.2930 N.2   600  ADP600     -0.2095
     21  C5       -81.8790   44.4930  -13.0550 C.2   600  ADP600      0.2526
     22  C6       -81.6710   44.5070  -14.4930 C.2   600  ADP600      0.4393
     23  N6       -82.3980   43.9050  -15.3750 N.pl3 600  ADP600      0.2180
     24  N1       -80.5750   45.2600  -14.8970 N.2   600  ADP600      0.0021
     25  C2       -79.7380   45.9440  -14.0100 C.3   600  ADP600      0.5254
     26  N3       -79.9170   45.9380  -12.6820 N.2   600  ADP600     -0.0055
     27  C4       -80.9840   45.2110  -12.2570 C.2   600  ADP600      0.3518
@<TRIPOS>BOND
     1    23    22    1
     2    24    22    2
     3    24    25    1
     4    22    21    1
     5    25    26    1
     6    21    20    2
     7    21    27    1
     8    26    27    2
     9    20    19    1
    10    27    18    1
    11    19    18    1
    12    18    17    1
    13    17    12    1
    14    17    15    1
    15    12    11    1
    16    16    15    1
    17    15    13    1
    18    11    13    1
    19    11    10    1
    20    13    14    1
    21     3     1    2
    22    10     9    1
    23     9     5    1
    24     8     1    1
    25     8     5    1
    26     1     2    1
    27     1     4    1
    28     6     5    2
    29     5     7    1
