@<TRIPOS>MOLECULE
2nuo_BGC_A_1.pdb
 12 12 0 0 0
SMALL
GASTEIGER

@<TRIPOS>ATOM
      1  C2       -31.1790   -7.8680   15.4180 C.3   301  BGC301      0.2434
      2  C3       -30.0260   -8.7440   15.8240 C.3   301  BGC301      0.2199
      3  C4       -28.7680   -7.8670   16.0100 C.3   301  BGC301      0.2144
      4  C5       -29.1190   -6.6900   16.8790 C.3   301  BGC301      0.1836
      5  C6       -27.9760   -5.6710   17.0980 C.3   301  BGC301      0.2142
      6  C1       -31.3900   -6.8040   16.4670 C.3   301  BGC301      0.3024
      7  O1       -32.4810   -5.9970   16.1300 O.3   301  BGC301     -0.1869
      8  O2       -32.3880   -8.6260   15.2510 O.3   301  BGC301     -0.2148
      9  O3       -29.7520   -9.7670   14.9630 O.3   301  BGC301     -0.2174
     10  O4       -27.6800   -8.5710   16.5720 O.3   301  BGC301     -0.2176
     11  O5       -30.2610   -5.9240   16.5170 O.3   301  BGC301     -0.3236
     12  O6       -27.7550   -4.9570   15.8630 O.3   301  BGC301     -0.2176
@<TRIPOS>BOND
     1     9     2    1
     2     8     1    1
     3     1     2    1
     4     1     6    1
     5     2     3    1
     6    12     5    1
     7     3    10    1
     8     3     4    1
     9     7     6    1
    10     6    11    1
    11    11     4    1
    12     4     5    1
