@<TRIPOS>MOLECULE
2nuu_ADP_G_1.pdb
 27 29 0 0 0
SMALL
GASTEIGER

@<TRIPOS>ATOM
      1  PB        29.1670    4.2080   -1.6560 P.3   1200  ADP1200     0.5373
      2  O1B       28.3040    3.1850   -2.3540 O.3   1200  ADP1200    -0.1143
      3  O2B       30.4360    3.6140   -1.0830 O.3   1200  ADP1200    -0.1143
      4  O3B       29.3400    5.5000   -2.4170 O.2   1200  ADP1200    -0.2221
      5  PA        26.8770    5.2710   -0.2560 P.3   1200  ADP1200     0.2231
      6  O1A       26.5180    5.1800    1.2090 O.3   1200  ADP1200    -0.4370
      7  O2A       25.9390    4.6390   -1.2460 O.2   1200  ADP1200    -0.5169
      8  O3A       28.3650    4.6440   -0.3390 O.3   1200  ADP1200    -0.2261
      9  O5'       27.0950    6.8060   -0.7070 O.3   1200  ADP1200    -0.3111
     10  C5'       28.0780    7.6490   -0.0810 C.3   1200  ADP1200     0.1813
     11  C4'       27.5140    9.0350    0.2370 C.3   1200  ADP1200     0.1821
     12  O4'       27.3440    9.7700   -0.9760 O.3   1200  ADP1200    -0.3135
     13  C3'       26.1240    9.0270    0.8710 C.3   1200  ADP1200     0.2184
     14  O3'       26.1430    8.9940    2.2920 O.3   1200  ADP1200    -0.2174
     15  C2'       25.4700   10.2890    0.3730 C.3   1200  ADP1200     0.2570
     16  O2'       25.8730   11.4160    1.1480 O.3   1200  ADP1200    -0.2130
     17  C1'       26.0940   10.4880   -0.9780 C.3   1200  ADP1200     0.3186
     18  N9        25.2590    9.9680   -2.0850 N.pl3 1200  ADP1200    -0.1439
     19  C8        24.9870    8.6740   -2.3400 C.3   1200  ADP1200     0.3377
     20  N7        24.2320    8.5520   -3.4550 N.2   1200  ADP1200    -0.2095
     21  C5        24.0230    9.7890   -3.9410 C.2   1200  ADP1200     0.2526
     22  C6        23.3060   10.3760   -5.0940 C.2   1200  ADP1200     0.4393
     23  N6        22.6440    9.5900   -5.9810 N.pl3 1200  ADP1200     0.2180
     24  N1        23.3310   11.7210   -5.2300 N.2   1200  ADP1200     0.0021
     25  C2        23.9820   12.5180   -4.3660 C.3   1200  ADP1200     0.5254
     26  N3        24.6460   12.0490   -3.2970 N.2   1200  ADP1200    -0.0055
     27  C4        24.7020   10.7200   -3.0350 C.2   1200  ADP1200     0.3518
@<TRIPOS>BOND
     1    23    22    1
     2    24    22    2
     3    24    25    1
     4    22    21    1
     5    25    26    1
     6    21    20    2
     7    21    27    1
     8    20    19    1
     9    26    27    2
    10    27    18    1
    11     4     1    2
    12     2     1    1
    13    19    18    1
    14    18    17    1
    15     1     3    1
    16     1     8    1
    17     7     5    2
    18    17    12    1
    19    17    15    1
    20    12    11    1
    21     9     5    1
    22     9    10    1
    23     8     5    1
    24     5     6    1
    25    10    11    1
    26    11    13    1
    27    15    13    1
    28    15    16    1
    29    13    14    1
