@<TRIPOS>MOLECULE
2nuv_2TN_A_1.pdb
 19 19 0 0 0
SMALL
GASTEIGER

@<TRIPOS>ATOM
      1  O1        16.0460   19.2320   12.9930 O.2   2001  2TN2001    -0.2713
      2  C11       15.1090   18.4560   12.5610 C.2   2001  2TN2001     0.2652
      3  N2        14.8580   18.3620   11.2760 N.am  2001  2TN2001    -0.0875
      4  C10       14.2990   17.6340   13.5310 C.3   2001  2TN2001     0.1148
      5  C7        14.1340   18.3210   14.8860 C.ar  2001  2TN2001    -0.0128
      6  C8        14.6000   17.8300   16.1130 C.ar  2001  2TN2001    -0.0007
      7  C9        14.3700   18.5760   17.3240 C.ar  2001  2TN2001     0.0372
      8  C4        13.6990   19.8370   17.5320 C.ar  2001  2TN2001     0.1456
      9  C5        13.2370   20.2800   16.2950 C.ar  2001  2TN2001     0.0372
     10  C6        13.4630   19.5530   15.0740 C.ar  2001  2TN2001    -0.0007
     11  O2        13.5550   20.3030   18.8070 O.3   2001  2TN2001    -0.4473
     12  C1        12.7080   21.3750   19.1010 C.2   2001  2TN2001     0.2182
     13  C2        12.8900   22.4080   20.1760 C.2   2001  2TN2001     0.2278
     14  O3        14.0070   22.3750   21.0810 O.2   2001  2TN2001    -0.2864
     15  C3        11.6790   23.3320   20.1980 C.3   2001  2TN2001     0.1609
     16  N1        11.7550   24.1960   21.3240 N.3   2001  2TN2001    -0.2112
     17  C12       10.6950   25.1390   21.6300 C.3   2001  2TN2001     0.0734
     18  C14       10.1070   26.0080   20.5270 C.3   2001  2TN2001     0.0188
     19  C13        9.6380   24.3130   22.4220 C.3   2001  2TN2001     0.0188
@<TRIPOS>BOND
     1     3     2   am
     2     2     1    2
     3     2     4    1
     4     4     5    1
     5     5    10   ar
     6     5     6   ar
     7    10     9   ar
     8     6     7   ar
     9     9     8   ar
    10     7     8   ar
    11     8    11    1
    12    11    12    1
    13    12    13    2
    14    13    15    1
    15    13    14    1
    16    15    16    1
    17    18    17    1
    18    16    17    1
    19    17    19    1
