@<TRIPOS>MOLECULE
2nv2_GLN_B_1.pdb
 10 9 0 0 0
SMALL
GASTEIGER

@<TRIPOS>ATOM
      1  N         34.5470   50.3880   55.6680 N.3   6004  GLN6004    -0.1208
      2  CA        34.5250   51.2080   54.4200 C.3   6004  GLN6004     0.1948
      3  C         35.9170   51.7890   54.1710 C.2   6004  GLN6004     0.3819
      4  O         36.6870   51.8470   55.1420 O.co2 6004  GLN6004    -0.2441
      5  CB        33.4550   52.3090   54.4790 C.3   6004  GLN6004     0.0403
      6  CG        32.0180   51.7510   54.6360 C.3   6004  GLN6004     0.0906
      7  CD        30.9370   52.7660   54.3570 C.2   6004  GLN6004     0.2608
      8  OE1       30.9980   53.5010   53.3650 O.2   6004  GLN6004    -0.2717
      9  NE2       29.9250   52.8220   55.2360 N.am  6004  GLN6004    -0.0878
     10  OXT       36.2890   52.1570   53.0350 O.co2 6004  GLN6004    -0.2441
@<TRIPOS>BOND
     1    10     3   ar
     2     8     7    2
     3     3     2    1
     4     3     4   ar
     5     7     6    1
     6     7     9   am
     7     2     5    1
     8     2     1    1
     9     5     6    1
