@<TRIPOS>MOLECULE
2nv4_SAM_A_1.pdb
 27 29 0 0 0
SMALL
GASTEIGER

@<TRIPOS>ATOM
      1  N         18.0820   38.8020   26.7470 N.3   201  SAM201     -0.1208
      2  CA        17.4240   39.3800   25.5670 C.3   201  SAM201      0.1952
      3  C         17.8270   38.6220   24.3590 C.2   201  SAM201      0.3819
      4  O         17.3790   38.9500   23.2760 O.co2 201  SAM201     -0.2441
      5  OXT       18.5860   37.6880   24.4450 O.co2 201  SAM201     -0.2441
      6  CB        17.8500   40.8080   25.3560 C.3   201  SAM201      0.0414
      7  CG        17.4050   41.6540   26.5130 C.3   201  SAM201      0.0503
      8  SD        17.9040   43.3410   26.1580 S.3   201  SAM201     -0.1761
      9  CE        19.6900   43.2470   26.4930 C.3   201  SAM201      0.0590
     10  C5'       17.2020   44.2680   27.5260 C.3   201  SAM201      0.0806
     11  C4'       17.5030   45.7160   27.2520 C.3   201  SAM201      0.1622
     12  O4'       16.9520   46.0770   25.9530 O.3   201  SAM201     -0.3153
     13  C3'       16.9190   46.6280   28.3370 C.3   201  SAM201      0.2168
     14  O3'       17.9120   47.2590   29.1510 O.3   201  SAM201     -0.2175
     15  C2'       16.0240   47.6370   27.5670 C.3   201  SAM201      0.2569
     16  O2'       16.4870   48.9790   27.7720 O.3   201  SAM201     -0.2130
     17  C1'       16.1100   47.2470   26.0560 C.3   201  SAM201      0.3185
     18  N9        14.7330   47.0240   25.5020 N.pl3 201  SAM201     -0.1439
     19  C8        13.7410   46.2050   25.9950 C.3   201  SAM201      0.3377
     20  N7        12.6720   46.2940   25.2540 N.2   201  SAM201     -0.2095
     21  C5        12.8870   47.1590   24.2450 C.2   201  SAM201      0.2526
     22  C6        12.1120   47.6620   23.1550 C.2   201  SAM201      0.4393
     23  N6        10.8060   47.2610   22.9580 N.pl3 201  SAM201      0.2180
     24  N1        12.6850   48.5540   22.3060 N.2   201  SAM201      0.0021
     25  C2        13.9480   48.9680   22.4730 C.3   201  SAM201      0.5254
     26  N3        14.6960   48.5300   23.4800 N.2   201  SAM201     -0.0055
     27  C4        14.2190   47.6390   24.3790 C.2   201  SAM201      0.3518
@<TRIPOS>BOND
     1    24    25    1
     2    24    22    2
     3    25    26    1
     4    23    22    1
     5    22    21    1
     6     4     3   ar
     7    26    27    2
     8    21    27    1
     9    21    20    2
    10     3     5   ar
    11     3     2    1
    12    27    18    1
    13    20    19    1
    14     6     2    1
    15     6     7    1
    16    18    19    1
    17    18    17    1
    18     2     1    1
    19    12    17    1
    20    12    11    1
    21    17    15    1
    22     8     9    1
    23     8     7    1
    24     8    10    1
    25    11    10    1
    26    11    13    1
    27    15    16    1
    28    15    13    1
    29    13    14    1
