@<TRIPOS>MOLECULE
2nv7_555_A_1.pdb
 20 22 0 0 0
SMALL
GASTEIGER

@<TRIPOS>ATOM
      1  C1        31.0300   39.4930   36.7750 C.ar  501  555501     -0.0000
      2  C2        29.8190   39.6440   37.4490 C.ar  501  555501     -0.0000
      3  C3        29.3950   38.6500   38.3290 C.ar  501  555501     -0.0000
      4  C4        30.1720   37.4270   38.5940 C.ar  501  555501     -0.0003
      5  C5        31.4610   37.2830   37.8730 C.ar  501  555501     -0.0025
      6  C6        31.8240   38.3530   36.9790 C.ar  501  555501     -0.0003
      7  C7        32.2760   36.0860   38.1070 C.ar  501  555501     -0.0021
      8  C8        31.8290   35.0790   39.0110 C.ar  501  555501     -0.0028
      9  C9        30.5950   35.2080   39.6850 C.ar  501  555501     -0.0003
     10  C10       29.7340   36.3480   39.5150 C.ar  501  555501     -0.0000
     11  C11       28.4380   36.3050   40.3220 C.ar  501  555501      0.0002
     12  C12       28.4910   36.1420   41.7510 C.ar  501  555501      0.0033
     13  C13       27.3050   36.0800   42.5170 C.ar  501  555501      0.0420
     14  C14       26.0450   36.1800   41.8780 C.ar  501  555501      0.1957
     15  C15       25.9460   36.3420   40.4780 C.ar  501  555501      0.0420
     16  C16       27.1200   36.3940   39.7030 C.ar  501  555501      0.0033
     17  O1        24.8930   36.1110   42.5910 O.3   501  555501     -0.2866
     18  C17       33.5920   35.8110   37.4300 C.3   501  555501      0.1510
     19  N1        34.4010   36.7320   36.9950 N.4   501  555501     -0.0429
     20  O2        35.5230   36.1340   36.4080 O.3   501  555501     -0.0998
@<TRIPOS>BOND
     1    20    19    1
     2     1     6   ar
     3     1     2   ar
     4     6     5   ar
     5    19    18    1
     6    18     7    1
     7     2     3   ar
     8     5     7   ar
     9     5     4   ar
    10     7     8   ar
    11     3     4   ar
    12     4    10   ar
    13     8     9   ar
    14    10     9   ar
    15    10    11    1
    16    16    11   ar
    17    16    15   ar
    18    11    12   ar
    19    15    14   ar
    20    12    13   ar
    21    14    13   ar
    22    14    17    1
