@<TRIPOS>MOLECULE
2nv9_PLP_A_1.pdb
 16 16 0 0 0
SMALL
GASTEIGER

@<TRIPOS>ATOM
      1  N1       113.4900   72.6230   49.4090 N.ar  2001  PLP2001    -0.2452
      2  C2       114.6510   73.0830   48.9230 C.ar  2001  PLP2001     0.0982
      3  C2A      115.8750   72.1520   48.8910 C.3   2001  PLP2001     0.0555
      4  C3       114.7050   74.3920   48.4460 C.ar  2001  PLP2001     0.2120
      5  O3       115.8460   74.8650   47.9410 O.3   2001  PLP2001    -0.2852
      6  C4       113.5860   75.2260   48.4790 C.ar  2001  PLP2001     0.0822
      7  C4A      113.6530   76.6960   47.8940 C.2   2001  PLP2001     0.2372
      8  O4A      114.2340   77.0100   46.8230 O.2   2001  PLP2001    -0.2830
      9  C5       112.4000   74.7050   49.0130 C.ar  2001  PLP2001     0.0333
     10  C6       112.3940   73.3810   49.4600 C.ar  2001  PLP2001     0.0969
     11  C5A      111.0550   75.4390   49.1380 C.3   2001  PLP2001     0.1819
     12  O4P      110.6510   75.9880   47.8840 O.3   2001  PLP2001    -0.2653
     13  P        109.2060   76.5760   47.7110 P.3   2001  PLP2001     0.5329
     14  O1P      109.0300   77.1140   46.3250 O.2   2001  PLP2001    -0.2224
     15  O2P      108.1150   75.4480   47.9670 O.3   2001  PLP2001    -0.1145
     16  O3P      109.0560   77.7540   48.8360 O.3   2001  PLP2001    -0.1145
@<TRIPOS>BOND
     1    14    13    2
     2     8     7    2
     3    13    12    1
     4    13    15    1
     5    13    16    1
     6    12    11    1
     7     7     6    1
     8     5     4    1
     9     4     6   ar
    10     4     2   ar
    11     6     9   ar
    12     3     2    1
    13     2     1   ar
    14     9    11    1
    15     9    10   ar
    16     1    10   ar
