@<TRIPOS>MOLECULE
2nva_PL2_A_1.pdb
 24 24 0 0 0
SMALL
GASTEIGER

@<TRIPOS>ATOM
      1  N1       113.3310   72.4340   49.3450 N.ar  2001  PL22001    -0.2452
      2  C2       114.5430   72.8600   48.9530 C.ar  2001  PL22001     0.0978
      3  C2A      115.7690   71.9350   49.0880 C.3   2001  PL22001     0.0555
      4  C3       114.6600   74.1520   48.4230 C.ar  2001  PL22001     0.2062
      5  O3       115.8940   74.5530   48.0180 O.3   2001  PL22001    -0.2856
      6  C4       113.5430   75.0010   48.2890 C.ar  2001  PL22001     0.0353
      7  C4A      113.6330   76.4470   47.7170 C.3   2001  PL22001     0.1180
      8  C5       112.3070   74.4780   48.7190 C.ar  2001  PL22001     0.0275
      9  C6       112.2380   73.2000   49.2420 C.ar  2001  PL22001     0.0965
     10  P        109.1770   76.4470   47.4460 P.3   2001  PL22001     0.5329
     11  N        114.7590   76.6170   46.7710 N.3   2001  PL22001    -0.2132
     12  CA       115.3560   77.9550   46.8830 C.3   2001  PL22001     0.0892
     13  CG       114.9590   80.4460   46.6660 C.3   2001  PL22001     0.0484
     14  OP2      108.9780   77.1230   46.0040 O.2   2001  PL22001    -0.2224
     15  OP3      109.0750   77.6550   48.5320 O.3   2001  PL22001    -0.1145
     16  OP1      108.1740   75.3700   47.6970 O.3   2001  PL22001    -0.1145
     17  OP4      110.7010   75.9300   47.4130 O.3   2001  PL22001    -0.2653
     18  C5M      111.0190   75.3200   48.6140 C.3   2001  PL22001     0.1816
     19  CB       114.3060   79.0620   46.6510 C.3   2001  PL22001     0.0225
     20  CD       113.9160   81.5570   46.3980 C.3   2001  PL22001     0.2205
     21  NE       114.6360   82.8430   46.5350 N.pl3 2001  PL22001    -0.0865
     22  CZ       114.0730   84.0540   46.6620 C.cat 2001  PL22001     0.5346
     23  NH2      114.8730   85.1400   46.7940 N.pl3 2001  PL22001     0.1354
     24  NH1      112.7440   84.1940   46.6530 N.pl3 2001  PL22001     0.1354
@<TRIPOS>BOND
     1    14    10    2
     2    20    21    1
     3    20    13    1
     4    21    22    2
     5    19    13    1
     6    19    12    1
     7    24    22    1
     8    22    23    1
     9    11    12    1
    10    11     7    1
    11    17    10    1
    12    17    18    1
    13    10    16    1
    14    10    15    1
    15     7     6    1
    16     5     4    1
    17     6     4   ar
    18     6     8   ar
    19     4     2   ar
    20    18     8    1
    21     8     9   ar
    22     2     3    1
    23     2     1   ar
    24     9     1   ar
