@<TRIPOS>MOLECULE
2nvb_NAP_A_1.pdb
 48 52 0 0 0
SMALL
GASTEIGER

@<TRIPOS>ATOM
      1  PA        36.2660   42.6970   19.1950 P.3   353  NAP353      0.2189
      2  O1A       37.0430   42.8850   20.4610 O.3   353  NAP353     -0.4371
      3  O2A       35.1310   41.7650   19.1020 O.2   353  NAP353     -0.5170
      4  O5B       37.3850   42.4970   17.9920 O.3   353  NAP353     -0.3112
      5  C5B       36.8410   42.1440   16.7320 C.3   353  NAP353      0.1813
      6  C4B       37.8310   41.9950   15.6300 C.3   353  NAP353      0.1820
      7  O4B       38.8450   41.0130   15.9390 O.3   353  NAP353     -0.3136
      8  C3B       37.1310   41.5060   14.4100 C.3   353  NAP353      0.2157
      9  O3B       37.7910   41.8550   13.2040 O.3   353  NAP353     -0.2175
     10  C2B       37.2880   40.0120   14.6430 C.3   353  NAP353      0.2314
     11  O2B       36.9460   39.0910   13.5750 O.3   353  NAP353     -0.2630
     12  C1B       38.7560   40.0530   14.9140 C.3   353  NAP353      0.3158
     13  N9A       39.4620   38.8280   15.3510 N.pl3 353  NAP353     -0.1439
     14  C8A       39.1800   37.9080   16.3520 C.3   353  NAP353      0.3377
     15  N7A       40.0670   36.9510   16.3980 N.2   353  NAP353     -0.2095
     16  C5A       40.9600   37.2480   15.4060 C.2   353  NAP353      0.2526
     17  C6A       42.1210   36.5920   14.9650 C.2   353  NAP353      0.4393
     18  N6A       42.5250   35.4690   15.5380 N.pl3 353  NAP353      0.2180
     19  N1A       42.8310   37.1480   13.9210 N.2   353  NAP353      0.0021
     20  C2A       42.4070   38.3020   13.3410 C.3   353  NAP353      0.5254
     21  N3A       41.3060   38.9840   13.7000 N.2   353  NAP353     -0.0055
     22  C4A       40.6220   38.3800   14.7600 C.2   353  NAP353      0.3518
     23  O3        35.8190   44.2400   18.9160 O.3   353  NAP353     -0.2703
     24  PN        36.3300   45.7100   19.4010 P.3   353  NAP353      0.2189
     25  O1N       35.1660   46.5960   19.3530 O.3   353  NAP353     -0.4371
     26  O2N       37.4790   45.9910   18.4370 O.2   353  NAP353     -0.5170
     27  O5D       37.0020   45.6310   20.8690 O.3   353  NAP353     -0.3112
     28  C5D       37.5930   46.7950   21.5410 C.3   353  NAP353      0.1813
     29  C4D       39.0130   47.0490   21.0020 C.3   353  NAP353      0.1799
     30  O4D       39.3390   48.4520   21.0770 O.3   353  NAP353     -0.3327
     31  C3D       40.0920   46.3680   21.7840 C.3   353  NAP353      0.2158
     32  O3D       41.2100   45.9440   20.9600 O.3   353  NAP353     -0.2175
     33  C2D       40.4940   47.3950   22.8410 C.3   353  NAP353      0.2309
     34  O2D       41.8590   47.3610   23.1460 O.3   353  NAP353     -0.2158
     35  C1D       40.2260   48.7320   22.1390 C.3   353  NAP353      0.2263
     36  N1N       39.6950   49.7760   23.0650 N.pl3 353  NAP353     -0.2787
     37  C2N       40.2090   49.7560   24.4080 C.3   353  NAP353      0.1244
     38  C3N       39.7260   50.7650   25.3020 C.2   353  NAP353      0.0544
     39  C7N       40.1550   50.8650   26.7070 C.2   353  NAP353      0.2818
     40  O7N       39.7160   51.7430   27.4670 O.2   353  NAP353     -0.2670
     41  N7N       41.0450   50.0000   27.2280 N.am  353  NAP353     -0.0839
     42  C4N       38.8030   51.6830   24.7990 C.2   353  NAP353      0.0033
     43  C5N       38.3400   51.6770   23.5220 C.2   353  NAP353      0.0157
     44  C6N       38.7750   50.7350   22.6590 C.2   353  NAP353      0.0633
     45  P2B       35.4920   38.3610   13.5920 P.3   353  NAP353      0.5328
     46  O1X       34.5200   39.2850   12.9450 O.3   353  NAP353     -0.1145
     47  O2X       35.3190   38.1430   15.0350 O.3   353  NAP353     -0.1145
     48  O3X       35.6640   37.0670   12.9150 O.2   353  NAP353     -0.2224
@<TRIPOS>BOND
     1    48    45    2
     2    46    45    1
     3     9     8    1
     4    20    21    1
     5    20    19    1
     6    11    45    1
     7    11    10    1
     8    45    47    1
     9    21    22    2
    10    19    17    2
    11     8    10    1
    12     8     6    1
    13    10    12    1
    14    22    13    1
    15    22    16    1
    16    12    13    1
    17    12     7    1
    18    17    16    1
    19    17    18    1
    20    13    14    1
    21    16    15    2
    22     6     7    1
    23     6     5    1
    24    14    15    1
    25     5     4    1
    26     4     1    1
    27    26    24    2
    28    23     1    1
    29    23    24    1
    30     3     1    2
    31     1     2    1
    32    25    24    1
    33    24    27    1
    34    27    28    1
    35    32    31    1
    36    29    30    1
    37    29    28    1
    38    29    31    1
    39    30    35    1
    40    31    33    1
    41    35    33    1
    42    35    36    1
    43    44    36    1
    44    44    43    2
    45    33    34    1
    46    36    37    1
    47    43    42    1
    48    37    38    1
    49    42    38    2
    50    38    39    1
    51    39    41   am
    52    39    40    2
