@<TRIPOS>MOLECULE
2nvc_ITA_A_1.pdb
 27 29 0 0 0
SMALL
GASTEIGER

@<TRIPOS>ATOM
      1  C1       -22.2450    7.4240  -10.4400 C.ar  600  ITA600      0.0004
      2  C2       -23.0640    6.4850   -9.8120 C.ar  600  ITA600      0.0000
      3  C3       -23.2870    5.2500  -10.4490 C.ar  600  ITA600      0.0000
      4  C4       -22.7040    4.9520  -11.6830 C.ar  600  ITA600      0.0000
      5  C5       -21.8780    5.8960  -12.3170 C.ar  600  ITA600      0.0002
      6  C6       -21.6620    7.1200  -11.6800 C.ar  600  ITA600      0.0057
      7  C7       -20.8470    8.0900  -12.2640 C.ar  600  ITA600      0.0742
      8  C8       -20.0900    8.0640  -13.5750 C.2   600  ITA600      0.2693
      9  N9       -19.4190    9.2010  -13.7830 N.am  600  ITA600     -0.1446
     10  C10      -18.9530    9.3510  -15.1540 C.3   600  ITA600      0.2323
     11  C11      -17.6810    8.5580  -15.3570 C.2   600  ITA600      0.3866
     12  O12      -17.0350    8.2560  -14.2400 O.co2 600  ITA600     -0.2437
     13  O13      -17.2940    8.2300  -16.4610 O.co2 600  ITA600     -0.2437
     14  S14      -19.5330   10.2780  -12.7060 S.O2  600  ITA600      0.0797
     15  O15      -20.0860   11.4900  -13.2370 O.2   600  ITA600     -0.1496
     16  O16      -18.2410   10.3200  -12.0370 O.2   600  ITA600     -0.1496
     17  C17      -20.6060    9.3230  -11.6720 C.ar  600  ITA600      0.1361
     18  C18      -21.1880    9.6270  -10.4350 C.ar  600  ITA600      0.0946
     19  C19      -20.9670   10.9440   -9.7370 C.2   600  ITA600      0.3431
     20  O20      -21.7610   11.2750   -8.7020 O.3   600  ITA600     -0.4329
     21  C21      -21.4220   12.5860   -8.2360 C.3   600  ITA600      0.3215
     22  C22      -20.4480   12.5730   -7.0990 C.2   600  ITA600      0.4086
     23  O23      -19.9650   11.4050   -6.7000 O.co2 600  ITA600     -0.2415
     24  O24      -20.0940   13.6080   -6.5380 O.co2 600  ITA600     -0.2415
     25  O25      -20.0750   11.6890  -10.1190 O.2   600  ITA600     -0.2448
     26  C26      -22.0130    8.6650   -9.8230 C.ar  600  ITA600      0.0078
     27  O27      -20.1370    7.0890  -14.3050 O.2   600  ITA600     -0.2683
@<TRIPOS>BOND
     1    13    11   ar
     2    11    10    1
     3    11    12   ar
     4    10     9    1
     5    27     8    2
     6     9     8   am
     7     9    14    1
     8     8     7    1
     9    15    14    2
    10    14    16    2
    11    14    17    1
    12     5     4   ar
    13     5     6   ar
    14     7     6   ar
    15     7    17   ar
    16     4     3   ar
    17     6     1   ar
    18    17    18   ar
    19     3     2   ar
    20     1    26   ar
    21     1     2   ar
    22    18    26   ar
    23    18    19    1
    24    25    19    2
    25    19    20    1
    26    20    21    1
    27    21    22    1
    28    22    23   ar
    29    22    24   ar
