@<TRIPOS>MOLECULE
2nvc_NAP_A_1.pdb
 48 52 0 0 0
SMALL
GASTEIGER

@<TRIPOS>ATOM
      1  PA       -22.0390   14.4280  -24.0280 P.3   500  NAP500      0.2189
      2  O1A      -21.4280   15.7540  -23.8440 O.3   500  NAP500     -0.4371
      3  O2A      -21.5750   13.4730  -25.0650 O.2   500  NAP500     -0.5170
      4  O5B      -23.6220   14.6660  -24.1840 O.3   500  NAP500     -0.3112
      5  C5B      -24.5150   13.5780  -24.2200 C.3   500  NAP500      0.1813
      6  C4B      -25.9440   14.1790  -24.2590 C.3   500  NAP500      0.1820
      7  O4B      -26.0790   14.8640  -25.4740 O.3   500  NAP500     -0.3136
      8  C3B      -27.0500   13.0870  -24.2870 C.3   500  NAP500      0.2157
      9  O3B      -28.1120   13.6000  -23.4790 O.3   500  NAP500     -0.2175
     10  C2B      -27.4330   13.0310  -25.7710 C.3   500  NAP500      0.2314
     11  O2B      -28.8240   12.6430  -25.9070 O.3   500  NAP500     -0.2630
     12  C1B      -27.1860   14.4420  -26.2230 C.3   500  NAP500      0.3158
     13  N9A      -26.8670   14.4740  -27.6280 N.pl3 500  NAP500     -0.1439
     14  C8A      -25.9970   13.7380  -28.4120 C.3   500  NAP500      0.3377
     15  N7A      -25.9430   14.1330  -29.6650 N.2   500  NAP500     -0.2095
     16  C5A      -26.8280   15.1910  -29.7090 C.2   500  NAP500      0.2526
     17  C6A      -27.1650   15.9980  -30.8290 C.2   500  NAP500      0.4393
     18  N6A      -26.6830   15.8760  -32.0570 N.pl3 500  NAP500      0.2180
     19  N1A      -28.1210   17.0070  -30.5580 N.2   500  NAP500      0.0021
     20  C2A      -28.6480   17.1840  -29.2900 C.3   500  NAP500      0.5254
     21  N3A      -28.3260   16.3860  -28.1990 N.2   500  NAP500     -0.0055
     22  C4A      -27.3800   15.3880  -28.4660 C.2   500  NAP500      0.3518
     23  O3       -22.0100   13.7450  -22.5610 O.3   500  NAP500     -0.2703
     24  PN       -21.2800   12.5540  -21.8060 P.3   500  NAP500      0.2189
     25  O1N      -22.0190   11.2590  -21.9950 O.2   500  NAP500     -0.5170
     26  O2N      -21.0550   13.0200  -20.4040 O.3   500  NAP500     -0.4371
     27  O5D      -19.7830   12.4560  -22.4010 O.3   500  NAP500     -0.3112
     28  C5D      -19.4820   11.6890  -23.6320 C.3   500  NAP500      0.1813
     29  C4D      -18.9030   10.3490  -23.1670 C.3   500  NAP500      0.1799
     30  O4D      -17.6000   10.5910  -22.5160 O.3   500  NAP500     -0.3327
     31  C3D      -19.6720    9.5070  -22.1040 C.3   500  NAP500      0.2158
     32  O3D      -20.8140    8.8450  -22.6250 O.3   500  NAP500     -0.2175
     33  C2D      -18.5020    8.6020  -21.6350 C.3   500  NAP500      0.2309
     34  O2D      -18.2740    7.6230  -22.6630 O.3   500  NAP500     -0.2158
     35  C1D      -17.3370    9.5440  -21.5440 C.3   500  NAP500      0.2263
     36  N1N      -17.1420   10.2410  -20.2010 N.pl3 500  NAP500     -0.2787
     37  C2N      -16.0090    9.7940  -19.4790 C.3   500  NAP500      0.1244
     38  C3N      -15.8590   10.2550  -18.1480 C.2   500  NAP500      0.0544
     39  C7N      -14.6480    9.8320  -17.2630 C.2   500  NAP500      0.2818
     40  O7N      -14.6410   10.2800  -16.1090 O.2   500  NAP500     -0.2670
     41  N7N      -13.6220    9.4160  -17.9990 N.am  500  NAP500     -0.0839
     42  C4N      -16.8360   11.1200  -17.6010 C.2   500  NAP500      0.0033
     43  C5N      -17.9590   11.5660  -18.3420 C.2   500  NAP500      0.0157
     44  C6N      -18.1460   11.1320  -19.6890 C.2   500  NAP500      0.0633
     45  P2B      -29.2990   11.1660  -26.4260 P.3   500  NAP500      0.5328
     46  O1X      -29.3960   11.2780  -27.9630 O.2   500  NAP500     -0.2224
     47  O2X      -28.2660   10.2200  -25.8990 O.3   500  NAP500     -0.1145
     48  O3X      -30.6420   11.0070  -25.7010 O.3   500  NAP500     -0.1145
@<TRIPOS>BOND
     1    18    17    1
     2    17    19    2
     3    17    16    1
     4    19    20    1
     5    16    15    2
     6    16    22    1
     7    15    14    1
     8    20    21    1
     9    22    21    2
    10    22    13    1
    11    14    13    1
    12    46    45    2
    13    13    12    1
    14    45    11    1
    15    45    47    1
    16    45    48    1
    17    12    10    1
    18    12     7    1
    19    11    10    1
    20    10     8    1
    21     7     6    1
    22     3     1    2
    23     8     6    1
    24     8     9    1
    25     6     5    1
    26     5     4    1
    27     4     1    1
    28     1     2    1
    29     1    23    1
    30    28    29    1
    31    28    27    1
    32    29    30    1
    33    29    31    1
    34    34    33    1
    35    32    31    1
    36    23    24    1
    37    30    35    1
    38    27    24    1
    39    31    33    1
    40    25    24    2
    41    24    26    1
    42    33    35    1
    43    35    36    1
    44    36    44    1
    45    36    37    1
    46    44    43    2
    47    37    38    1
    48    43    42    1
    49    38    42    2
    50    38    39    1
    51    41    39   am
    52    39    40    2
