@<TRIPOS>MOLECULE
2nvd_ITB_A_1.pdb
 23 25 0 0 0
SMALL
GASTEIGER

@<TRIPOS>ATOM
      1  C1        19.8410   -7.6060   17.8070 C.ar  600  ITB600      0.0057
      2  C10       18.5640   -7.7920   17.2890 C.ar  600  ITB600      0.0742
      3  C14       18.1520   -8.4940   16.0210 C.2   600  ITB600      0.2693
      4  O19       19.0520   -8.8920   15.2770 O.2   600  ITB600     -0.2683
      5  N15       16.8210   -8.4450   15.8300 N.am  600  ITB600     -0.1446
      6  C20       16.2290   -9.6320   15.2150 C.3   600  ITB600      0.2323
      7  C21       16.3040  -10.9670   15.8770 C.2   600  ITB600      0.3866
      8  O23       16.7830  -11.1320   17.1170 O.co2 600  ITB600     -0.2437
      9  O22       15.9140  -11.9900   15.2800 O.co2 600  ITB600     -0.2437
     10  S16       15.9550   -7.8040   16.9280 S.O2  600  ITB600      0.0797
     11  O18       15.3920   -6.5870   16.3580 O.2   600  ITB600     -0.1496
     12  O17       15.0970   -8.7270   17.6390 O.2   600  ITB600     -0.1496
     13  C9        17.3860   -7.3950   17.8880 C.ar  600  ITB600      0.1362
     14  C8        17.4130   -6.7580   19.1170 C.ar  600  ITB600      0.0987
     15  C11       16.2300   -6.2390   19.8810 C.2   600  ITB600      0.3891
     16  O13       15.2200   -5.9520   19.0520 O.co2 600  ITB600     -0.2405
     17  O12       16.0870   -6.0430   21.0620 O.co2 600  ITB600     -0.2405
     18  C7        18.7000   -6.6170   19.5790 C.ar  600  ITB600      0.0079
     19  C6        19.9150   -6.9540   19.0530 C.ar  600  ITB600      0.0004
     20  C5        21.1040   -6.6730   19.7520 C.ar  600  ITB600      0.0000
     21  C4        22.2680   -7.0800   19.1080 C.ar  600  ITB600      0.0000
     22  C3        22.2290   -7.7320   17.8630 C.ar  600  ITB600      0.0000
     23  C2        21.0230   -7.9990   17.2120 C.ar  600  ITB600      0.0002
@<TRIPOS>BOND
     1     6     5    1
     2     6     7    1
     3     4     3    2
     4     9     7   ar
     5     5     3   am
     6     5    10    1
     7     7     8   ar
     8     3     2    1
     9    11    10    2
    10    10    12    2
    11    10    13    1
    12    23     1   ar
    13    23    22   ar
    14     2     1   ar
    15     2    13   ar
    16     1    19   ar
    17    22    21   ar
    18    13    14   ar
    19    16    15   ar
    20    19    18   ar
    21    19    20   ar
    22    21    20   ar
    23    14    18   ar
    24    14    15    1
    25    15    17   ar
