@<TRIPOS>MOLECULE
2nvd_NAP_A_1.pdb
 48 52 0 0 0
SMALL
GASTEIGER

@<TRIPOS>ATOM
      1  PA        22.8400   -4.7790   26.8460 P.3   500  NAP500      0.2189
      2  O1A       23.8060   -3.7530   26.3660 O.2   500  NAP500     -0.5170
      3  O2A       21.7880   -4.4590   27.8050 O.3   500  NAP500     -0.4371
      4  O5B       23.7500   -5.9910   27.3750 O.3   500  NAP500     -0.3112
      5  C5B       23.1090   -7.1360   27.8820 C.3   500  NAP500      0.1813
      6  C4B       24.2950   -8.1280   28.1460 C.3   500  NAP500      0.1820
      7  O4B       25.0230   -7.5630   29.2760 O.3   500  NAP500     -0.3136
      8  C3B       23.7930   -9.5170   28.6350 C.3   500  NAP500      0.2157
      9  O3B       24.7200  -10.4750   28.1210 O.3   500  NAP500     -0.2175
     10  C2B       23.9460   -9.3710   30.1940 C.3   500  NAP500      0.2314
     11  O2B       24.2560  -10.6460   30.7610 O.3   500  NAP500     -0.2630
     12  C1B       25.1510   -8.4480   30.3460 C.3   500  NAP500      0.3158
     13  N9A       25.0920   -7.7210   31.5740 N.pl3 500  NAP500     -0.1439
     14  C8A       24.0680   -7.0220   32.1550 C.3   500  NAP500      0.3377
     15  N7A       24.3710   -6.4150   33.2550 N.2   500  NAP500     -0.2095
     16  C5A       25.7130   -6.7380   33.4290 C.2   500  NAP500      0.2526
     17  C6A       26.5180   -6.3100   34.4890 C.2   500  NAP500      0.4393
     18  N6A       26.1410   -5.5370   35.5120 N.pl3 500  NAP500      0.2180
     19  N1A       27.8060   -6.7930   34.3920 N.2   500  NAP500      0.0021
     20  C2A       28.1820   -7.5880   33.3290 C.3   500  NAP500      0.5254
     21  N3A       27.4050   -8.0040   32.2790 N.2   500  NAP500     -0.0055
     22  C4A       26.1260   -7.5290   32.3940 C.2   500  NAP500      0.3518
     23  O3        22.2810   -5.4770   25.4990 O.3   500  NAP500     -0.2703
     24  PN        20.8880   -5.5690   24.6960 P.3   500  NAP500      0.2189
     25  O1N       20.0860   -6.7000   25.2970 O.3   500  NAP500     -0.4371
     26  O2N       21.1740   -5.5930   23.2370 O.2   500  NAP500     -0.5170
     27  O5D       20.1390   -4.1930   24.9360 O.3   500  NAP500     -0.3112
     28  C5D       19.3130   -3.9050   26.1040 C.3   500  NAP500      0.1813
     29  C4D       17.8560   -4.0380   25.6920 C.3   500  NAP500      0.1799
     30  O4D       17.4700   -3.0350   24.7150 O.3   500  NAP500     -0.3327
     31  C3D       17.3830   -5.3590   25.0050 C.3   500  NAP500      0.2158
     32  O3D       17.3230   -6.5090   25.7970 O.3   500  NAP500     -0.2175
     33  C2D       16.0490   -4.8910   24.3950 C.3   500  NAP500      0.2309
     34  O2D       15.1140   -4.8740   25.4700 O.3   500  NAP500     -0.2158
     35  C1D       16.3080   -3.4560   23.9710 C.3   500  NAP500      0.2263
     36  N1N       16.7610   -3.3570   22.5160 N.pl3 500  NAP500     -0.2787
     37  C2N       15.8660   -2.9400   21.5680 C.3   500  NAP500      0.1244
     38  C3N       16.3150   -2.9360   20.2490 C.2   500  NAP500      0.0544
     39  C7N       15.3710   -2.4710   19.1400 C.2   500  NAP500      0.2818
     40  O7N       15.6870   -2.6780   17.9770 O.2   500  NAP500     -0.2670
     41  N7N       14.5900   -1.5010   19.5450 N.am  500  NAP500     -0.0839
     42  C4N       17.6350   -3.3430   19.8930 C.2   500  NAP500      0.0033
     43  C5N       18.4940   -3.7580   20.9290 C.2   500  NAP500      0.0157
     44  C6N       18.0890   -3.7680   22.2490 C.2   500  NAP500      0.0633
     45  P2B       23.1670  -11.5640   31.5920 P.3   500  NAP500      0.5328
     46  O1X       23.3430  -11.1160   33.0700 O.3   500  NAP500     -0.1145
     47  O2X       21.7970  -11.3880   31.0440 O.2   500  NAP500     -0.2224
     48  O3X       23.8110  -12.9400   31.3380 O.3   500  NAP500     -0.1145
@<TRIPOS>BOND
     1    40    39    2
     2    39    41   am
     3    39    38    1
     4    42    38    2
     5    42    43    1
     6    38    37    1
     7    43    44    2
     8    37    36    1
     9    44    36    1
    10    36    35    1
    11    26    24    2
    12    35    33    1
    13    35    30    1
    14    33    31    1
    15    33    34    1
    16    24    27    1
    17    24    25    1
    18    24    23    1
    19    30    29    1
    20    27    28    1
    21    31    29    1
    22    31    32    1
    23    23     1    1
    24    29    28    1
    25     2     1    2
    26     1     4    1
    27     1     3    1
    28     4     5    1
    29     5     6    1
    30     9     8    1
    31     6     8    1
    32     6     7    1
    33     8    10    1
    34     7    12    1
    35    10    12    1
    36    10    11    1
    37    12    13    1
    38    11    45    1
    39    47    45    2
    40    48    45    1
    41    13    14    1
    42    13    22    1
    43    45    46    1
    44    14    15    1
    45    21    22    2
    46    21    20    1
    47    22    16    1
    48    15    16    2
    49    20    19    1
    50    16    17    1
    51    19    17    2
    52    17    18    1
