@<TRIPOS>MOLECULE
2nvk_NAP_X_1.pdb
 39 42 0 0 0
SMALL
GASTEIGER

@<TRIPOS>ATOM
      1  PA       111.6160   18.6600   51.1520 P.3   490  NAP490      0.2189
      2  O1A      112.5360   19.5440   51.9320 O.3   490  NAP490     -0.4371
      3  O2A      110.5500   19.4460   50.4820 O.2   490  NAP490     -0.5170
      4  O5B      112.4940   17.8830   50.0460 O.3   490  NAP490     -0.3112
      5  C5B      113.2960   16.7640   50.3610 C.3   490  NAP490      0.1813
      6  C4B      113.8610   16.1950   49.0640 C.3   490  NAP490      0.1820
      7  O4B      114.6370   15.0380   49.3200 O.3   490  NAP490     -0.3136
      8  C3B      112.7640   15.7780   48.0990 C.3   490  NAP490      0.2157
      9  O3B      113.1480   16.1890   46.8040 O.3   490  NAP490     -0.2175
     10  C2B      112.7020   14.2670   48.2300 C.3   490  NAP490      0.2314
     11  O2B      112.4280   13.6120   47.0150 O.3   490  NAP490     -0.2630
     12  C1B      114.0920   13.8890   48.6920 C.3   490  NAP490      0.3158
     13  N9A      114.0670   12.7620   49.6380 N.pl3 490  NAP490     -0.1439
     14  C8A      113.1940   12.5570   50.6790 C.3   490  NAP490      0.3377
     15  N7A      113.5330   11.4030   51.3040 N.2   490  NAP490     -0.2095
     16  C5A      114.6120   10.8780   50.6770 C.2   490  NAP490      0.2526
     17  C6A      115.3620    9.7290   50.9110 C.2   490  NAP490      0.4393
     18  N6A      115.3030    9.1660   52.1160 N.pl3 490  NAP490      0.2180
     19  N1A      116.4370    9.4490   50.0830 N.2   490  NAP490      0.0021
     20  C2A      116.7670   10.2990   49.0400 C.3   490  NAP490      0.5254
     21  N3A      116.0210   11.4420   48.8200 N.2   490  NAP490     -0.0055
     22  C4A      114.9590   11.7220   49.6260 C.2   490  NAP490      0.3518
     23  O3       111.0100   17.4430   52.0430 O.3   490  NAP490     -0.2703
     24  PN       109.6970   17.4910   52.9970 P.3   490  NAP490      0.2189
     25  O1N      109.2650   16.0900   53.2410 O.2   490  NAP490     -0.5170
     26  O2N      109.9750   18.3670   54.1650 O.3   490  NAP490     -0.4371
     27  O5D      108.5580   18.1740   52.0800 O.3   490  NAP490     -0.3112
     28  C5D      107.2270   18.3250   52.5430 C.3   490  NAP490      0.1812
     29  C4D      106.2440   18.1080   51.3930 C.3   490  NAP490      0.1780
     30  O4D      106.6530   18.8200   50.2300 O.3   490  NAP490     -0.3482
     31  C3D      106.1370   16.6310   51.0240 C.3   490  NAP490      0.2140
     32  O3D      104.8680   16.1270   51.3900 O.3   490  NAP490     -0.2176
     33  C2D      106.3700   16.5700   49.5220 C.3   490  NAP490      0.2140
     34  O2D      105.1700   16.2900   48.8360 O.3   490  NAP490     -0.2176
     35  C1D      106.8610   17.9570   49.1210 C.3   490  NAP490      0.1777
     36  P2B      110.9980   12.9330   46.7320 P.3   490  NAP490      0.5328
     37  O1X      110.1320   12.8760   47.9650 O.3   490  NAP490     -0.1145
     38  O2X      111.2410   11.5170   46.2830 O.3   490  NAP490     -0.1145
     39  O3X      110.3100   13.7290   45.6540 O.2   490  NAP490     -0.2224
@<TRIPOS>BOND
     1    39    36    2
     2    38    36    1
     3    36    11    1
     4    36    37    1
     5     9     8    1
     6    11    10    1
     7     8    10    1
     8     8     6    1
     9    10    12    1
    10    12     7    1
    11    12    13    1
    12    21    20    1
    13    21    22    2
    14    34    33    1
    15    20    19    1
    16     6     7    1
    17     6     5    1
    18    35    33    1
    19    35    30    1
    20    33    31    1
    21    22    13    1
    22    22    16    1
    23    13    14    1
    24     4     5    1
    25     4     1    1
    26    19    17    2
    27    30    29    1
    28     3     1    2
    29    16    17    1
    30    16    15    2
    31    14    15    1
    32    17    18    1
    33    31    32    1
    34    31    29    1
    35     1     2    1
    36     1    23    1
    37    29    28    1
    38    23    24    1
    39    27    28    1
    40    27    24    1
    41    24    25    2
    42    24    26    1
