@<TRIPOS>MOLECULE
2nvq_DUT_T_1.pdb
 29 29 0 0 0
SMALL
GASTEIGER

@<TRIPOS>ATOM
      1  N1        -0.7370  -48.2640   55.6810 N.am   29  DUT29      -0.1790
      2  N1         7.5210  -39.3620   49.0440 N.3    29  DUT29       0.0000
      3  C2        -1.0090  -49.5540   55.4410 C.1    29  DUT29       0.2844
      4  N3        -0.3750  -50.5690   56.1680 N.2    29  DUT29      -0.2452
      5  C4         0.5520  -50.2330   57.1620 C.1    29  DUT29       0.2182
      6  C5         0.8300  -48.8960   57.4210 C.2    29  DUT29       0.1242
      7  C6         0.1830  -47.9160   56.6780 C.2    29  DUT29       0.0928
      8  O2        -1.8220  -49.8720   54.5750 O.2    29  DUT29      -0.1918
      9  O4         1.1090  -51.1200   57.8090 O.2    29  DUT29      -0.2085
     10  C1'       -1.4280  -47.2060   54.9110 C.3    29  DUT29       0.2090
     11  C2'       -2.4760  -46.5260   55.7770 C.3    29  DUT29       0.0874
     12  C3'       -2.7360  -45.2460   54.9990 C.3    29  DUT29       0.1857
     13  C4'       -1.3690  -44.9390   54.4100 C.3    29  DUT29       0.1773
     14  O4'       -0.5780  -46.1350   54.4750 O.3    29  DUT29      -0.3339
     15  O3'       -3.6690  -45.4760   53.9340 O.3    29  DUT29      -0.2203
     16  C5'       -0.8570  -43.7950   55.2700 C.3    29  DUT29       0.1812
     17  O5'        0.5660  -43.8570   55.3970 O.3    29  DUT29      -0.3112
     18  PA         1.4990  -42.7020   54.7740 P.3    29  DUT29       0.2189
     19  O1A        0.8240  -41.3980   54.9620 O.2    29  DUT29      -0.5170
     20  O2A        2.8580  -42.8950   55.3280 O.3    29  DUT29      -0.4371
     21  O3A        1.5360  -43.0930   53.2130 O.3    29  DUT29      -0.2700
     22  PB         0.2770  -43.0070   52.2120 P.3    29  DUT29       0.2277
     23  O1B       -0.9630  -42.7050   52.9620 O.3    29  DUT29      -0.4368
     24  O2B        0.3320  -44.2070   51.3470 O.2    29  DUT29      -0.5168
     25  O3B        0.6170  -41.6830   51.3610 O.3    29  DUT29      -0.2258
     26  PG         1.8270  -41.5790   50.3040 P.3    29  DUT29       0.5373
     27  O1G        1.9370  -42.7290   49.3790 O.2    29  DUT29      -0.2221
     28  O2G        3.1800  -41.3970   51.1580 O.3    29  DUT29      -0.1143
     29  O3G        1.6330  -40.2140   49.4710 O.3    29  DUT29      -0.1143
@<TRIPOS>BOND
     1    27    26    2
     2    29    26    1
     3    26    28    1
     4    26    25    1
     5    24    22    2
     6    25    22    1
     7    22    23    1
     8    22    21    1
     9    21    18    1
    10    15    12    1
    11    13    14    1
    12    13    12    1
    13    13    16    1
    14    14    10    1
    15     8     3    2
    16    18    19    2
    17    18    20    1
    18    18    17    1
    19    10     1    1
    20    10    11    1
    21    12    11    1
    22    16    17    1
    23     3     1   am
    24     3     4    2
    25     1     7    1
    26     4     5    2
    27     7     6    2
    28     5     6    1
    29     5     9    2
