@<TRIPOS>MOLECULE
2nvt_G2P_T_1.pdb
 32 34 0 0 0
SMALL
GASTEIGER

@<TRIPOS>ATOM
      1  PG        -1.0410  -43.0240   52.7450 P.3   3000  G2P3000     0.5389
      2  O1G       -0.4020  -43.5100   51.4550 O.2   3000  G2P3000    -0.2220
      3  O2G       -1.3620  -44.2340   53.5980 O.3   3000  G2P3000    -0.1143
      4  O3G       -2.3250  -42.2570   52.4700 O.3   3000  G2P3000    -0.1143
      5  O3B        0.0440  -42.0500   53.4610 O.3   3000  G2P3000    -0.2026
      6  PB         0.0140  -40.4480   53.1910 P.3   3000  G2P3000     0.3895
      7  O1B       -1.2860  -39.9240   53.7600 O.3   3000  G2P3000    -0.1388
      8  O2B        1.1960  -39.6450   53.7320 O.2   3000  G2P3000    -0.2544
      9  C3A       -0.2260  -40.2910   51.3580 C.3   3000  G2P3000     0.2357
     10  PA         1.2710  -40.4010   50.3190 P.3   3000  G2P3000     0.3820
     11  O1A        1.7900  -38.9920   50.2160 O.3   3000  G2P3000    -0.1392
     12  O2A        0.8730  -40.9360   48.9630 O.2   3000  G2P3000    -0.2548
     13  O5'        2.3840  -41.2930   51.0750 O.3   3000  G2P3000    -0.2896
     14  C5'        2.9250  -42.4930   50.5710 C.3   3000  G2P3000     0.1836
     15  C4'        4.2600  -42.3960   49.7730 C.3   3000  G2P3000     0.1800
     16  O4'        4.5530  -41.2220   49.0380 O.3   3000  G2P3000    -0.3326
     17  C3'        5.5480  -42.6090   50.5630 C.3   3000  G2P3000     0.2158
     18  O3'        5.7020  -43.9230   51.0270 O.3   3000  G2P3000    -0.2175
     19  C2'        6.6170  -42.2560   49.5600 C.3   3000  G2P3000     0.2310
     20  O2'        6.8590  -43.2960   48.6690 O.3   3000  G2P3000    -0.2158
     21  C1'        5.9540  -41.2020   48.7310 C.3   3000  G2P3000     0.2293
     22  N9         6.5850  -39.9230   49.1110 N.pl3 3000  G2P3000    -0.2354
     23  C8         5.8680  -38.8400   49.5420 C.3   3000  G2P3000     0.2246
     24  N7         6.7120  -37.8260   49.8120 N.2   3000  G2P3000    -0.2322
     25  C5         7.9670  -38.2310   49.5580 C.2   3000  G2P3000     0.2182
     26  C6         9.1730  -37.5600   49.6810 C.1   3000  G2P3000     0.2372
     27  O6         9.2030  -36.4000   50.0780 O.2   3000  G2P3000    -0.2069
     28  N1        10.3430  -38.1920   49.3620 N.2   3000  G2P3000    -0.2485
     29  C2        10.2940  -39.4870   48.9200 C.1   3000  G2P3000     0.2531
     30  N2        11.4470  -40.0730   48.6170 N.pl3 3000  G2P3000    -0.0226
     31  N3         9.0770  -40.1510   48.7980 N.2   3000  G2P3000    -0.3074
     32  C4         7.9150  -39.5420   49.1140 C.2   3000  G2P3000     0.2300
@<TRIPOS>BOND
     1    30    29    1
     2    20    19    1
     3    21    16    1
     4    21    22    1
     5    21    19    1
     6    31    29    2
     7    31    32    2
     8    29    28    2
     9    12    10    2
    10    16    15    1
    11    22    32    1
    12    22    23    1
    13    32    25    1
    14    28    26    2
    15    23    24    1
    16    25    26    1
    17    25    24    2
    18    19    17    1
    19    26    27    2
    20    15    17    1
    21    15    14    1
    22    11    10    1
    23    10    13    1
    24    10     9    1
    25    17    18    1
    26    14    13    1
    27     9     6    1
    28     2     1    2
    29     4     1    1
    30     1     5    1
    31     1     3    1
    32     6     5    1
    33     6     8    2
    34     6     7    1
