@<TRIPOS>MOLECULE
2nvu_ATP_B_1.pdb
 31 33 0 0 0
SMALL
GASTEIGER

@<TRIPOS>ATOM
      1  PG        84.8690  -28.1650  -19.6710 P.3   103  ATP103      0.5373
      2  O1G       85.5460  -27.6320  -20.8800 O.2   103  ATP103     -0.2221
      3  O2G       83.3540  -27.9280  -19.6830 O.3   103  ATP103     -0.1143
      4  O3G       85.1680  -29.6410  -19.5970 O.3   103  ATP103     -0.1143
      5  PB        86.9180  -27.2990  -17.7710 P.3   103  ATP103      0.2277
      6  O1B       87.7030  -26.4810  -18.7180 O.2   103  ATP103     -0.5168
      7  O2B       87.5710  -28.6230  -17.4220 O.3   103  ATP103     -0.4368
      8  O3B       85.4460  -27.4400  -18.3520 O.3   103  ATP103     -0.2258
      9  PA        85.7650  -26.7120  -15.2350 P.3   103  ATP103      0.2189
     10  O1A       84.8850  -25.5870  -14.9880 O.3   103  ATP103     -0.4371
     11  O2A       85.0080  -28.0240  -15.3780 O.2   103  ATP103     -0.5170
     12  O3A       86.5790  -26.4000  -16.5290 O.3   103  ATP103     -0.2700
     13  O5'       86.9050  -26.7300  -14.1590 O.3   103  ATP103     -0.3112
     14  C5'       87.2480  -27.8450  -13.3870 C.3   103  ATP103      0.1813
     15  C4'       88.7650  -27.8010  -13.2690 C.3   103  ATP103      0.1821
     16  O4'       89.2340  -28.8770  -12.5000 O.3   103  ATP103     -0.3135
     17  C3'       89.4200  -27.8820  -14.6250 C.3   103  ATP103      0.2184
     18  O3'       90.1120  -26.6590  -14.8540 O.3   103  ATP103     -0.2174
     19  C2'       90.2820  -29.1010  -14.5270 C.3   103  ATP103      0.2570
     20  O2'       91.4550  -29.1510  -15.2250 O.3   103  ATP103     -0.2130
     21  C1'       90.4710  -29.2730  -13.0550 C.3   103  ATP103      0.3186
     22  N9        90.7190  -30.6720  -12.5520 N.pl3 103  ATP103     -0.1439
     23  C8        89.8800  -31.7610  -12.7460 C.3   103  ATP103      0.3377
     24  N7        90.4450  -32.8060  -12.1810 N.2   103  ATP103     -0.2095
     25  C5        91.6220  -32.4680  -11.5950 C.2   103  ATP103      0.2526
     26  C6        92.6800  -33.1120  -10.8940 C.2   103  ATP103      0.4393
     27  N6        92.7200  -34.3750  -10.5540 N.pl3 103  ATP103      0.2180
     28  N1        93.7750  -32.3700  -10.4590 N.2   103  ATP103      0.0021
     29  C2        93.8950  -31.0190  -10.7300 C.3   103  ATP103      0.5254
     30  N3        92.8980  -30.3750  -11.4230 N.2   103  ATP103     -0.0055
     31  C4        91.8000  -31.0860  -11.8720 C.2   103  ATP103      0.3518
@<TRIPOS>BOND
     1     2     1    2
     2     3     1    1
     3     1     4    1
     4     1     8    1
     5     6     5    2
     6     8     5    1
     7     5     7    1
     8     5    12    1
     9    12     9    1
    10    11     9    2
    11     9    10    1
    12     9    13    1
    13    20    19    1
    14    18    17    1
    15    17    19    1
    16    17    15    1
    17    19    21    1
    18    13    14    1
    19    14    15    1
    20    15    16    1
    21    21    22    1
    22    21    16    1
    23    23    22    1
    24    23    24    1
    25    22    31    1
    26    24    25    2
    27    31    25    1
    28    31    30    2
    29    25    26    1
    30    30    29    1
    31    26    27    1
    32    26    28    2
    33    29    28    1
