@<TRIPOS>MOLECULE
2nvx_DUT_B_1.pdb
 29 29 0 0 0
SMALL
GASTEIGER

@<TRIPOS>ATOM
      1  N1        -0.5930   -8.0070   54.3860 N.am  1308  DUT1308    -0.1790
      2  N1         6.3360    0.1620   49.6550 N.3   1308  DUT1308     0.0000
      3  C2        -0.6510   -9.3580   54.2590 C.1   1308  DUT1308     0.2844
      4  N3        -0.3170  -10.1700   55.3150 N.2   1308  DUT1308    -0.2452
      5  C4         0.0840   -9.6520   56.5120 C.1   1308  DUT1308     0.2182
      6  C5         0.1500   -8.2730   56.6600 C.2   1308  DUT1308     0.1242
      7  C6        -0.1960   -7.4700   55.5690 C.2   1308  DUT1308     0.0928
      8  O2        -1.0120   -9.8720   53.1640 O.2   1308  DUT1308    -0.1918
      9  O4         0.3910  -10.3840   57.4820 O.2   1308  DUT1308    -0.2085
     10  C1'       -0.9560   -7.1270   53.2430 C.3   1308  DUT1308     0.2090
     11  C2'       -2.3440   -6.5030   53.4220 C.3   1308  DUT1308     0.0874
     12  C3'       -2.0950   -5.0240   53.7320 C.3   1308  DUT1308     0.1857
     13  C4'       -0.6450   -4.7650   53.3510 C.3   1308  DUT1308     0.1773
     14  O4'       -0.0220   -6.0410   53.1040 O.3   1308  DUT1308    -0.3339
     15  O3'       -2.9800   -4.1720   52.9870 O.3   1308  DUT1308    -0.2203
     16  C5'        0.0870   -4.0290   54.4690 C.3   1308  DUT1308     0.1812
     17  O5'        1.4850   -4.0620   54.1800 O.3   1308  DUT1308    -0.3112
     18  PA         2.2280   -2.8210   53.4260 P.3   1308  DUT1308     0.2189
     19  O1A        1.4080   -1.5640   53.6760 O.2   1308  DUT1308    -0.5170
     20  O2A        3.6770   -2.8790   53.9040 O.3   1308  DUT1308    -0.4371
     21  O3A        2.1840   -3.1230   51.8060 O.3   1308  DUT1308    -0.2700
     22  PB         0.9490   -2.7980   50.7500 P.3   1308  DUT1308     0.2277
     23  O1B       -0.0940   -1.9330   51.4220 O.3   1308  DUT1308    -0.4368
     24  O2B        0.4780   -4.1190   50.1690 O.2   1308  DUT1308    -0.5168
     25  O3B        1.5680   -1.8930   49.5470 O.3   1308  DUT1308    -0.2258
     26  PG         2.9360   -2.2050   48.7100 P.3   1308  DUT1308     0.5373
     27  O1G        3.5110   -3.5040   49.2870 O.3   1308  DUT1308    -0.1143
     28  O2G        3.8630   -0.9900   48.9480 O.3   1308  DUT1308    -0.1143
     29  O3G        2.3620   -2.3460   47.2750 O.2   1308  DUT1308    -0.2221
@<TRIPOS>BOND
     1    29    26    2
     2    26    28    1
     3    26    27    1
     4    26    25    1
     5    25    22    1
     6    24    22    2
     7    22    23    1
     8    22    21    1
     9    21    18    1
    10    15    12    1
    11    14    10    1
    12    14    13    1
    13     8     3    2
    14    10    11    1
    15    10     1    1
    16    13    12    1
    17    13    16    1
    18    11    12    1
    19    18    19    2
    20    18    20    1
    21    18    17    1
    22    17    16    1
    23     3     1   am
    24     3     4    2
    25     1     7    1
    26     4     5    2
    27     7     6    2
    28     5     6    1
    29     5     9    2
