@<TRIPOS>MOLECULE
2nvz_UTP_B_1.pdb
 29 30 0 0 0
SMALL
GASTEIGER

@<TRIPOS>ATOM
      1  PA         0.4760   -2.2550   49.1010 P.3   3000  UTP3000     0.2189
      2  O1A       -0.2060   -1.2490   48.2650 O.2   3000  UTP3000    -0.5170
      3  O2A        1.3350   -3.2660   48.4450 O.3   3000  UTP3000    -0.4371
      4  O3A       -0.5750   -3.0850   50.0300 O.3   3000  UTP3000    -0.2700
      5  O5'        1.3330   -1.4300   50.1770 O.3   3000  UTP3000    -0.3112
      6  PB        -1.2020   -2.5330   51.4240 P.3   3000  UTP3000     0.2277
      7  O1B       -0.1150   -2.4840   52.4330 O.3   3000  UTP3000    -0.4368
      8  O2B       -2.4450   -3.2830   51.7320 O.2   3000  UTP3000    -0.5168
      9  O3B       -1.6060   -1.0420   50.9750 O.3   3000  UTP3000    -0.2258
     10  PG        -2.8510   -0.7740   49.9750 P.3   3000  UTP3000     0.5373
     11  O1G       -4.1300   -0.5360   50.6840 O.3   3000  UTP3000    -0.1143
     12  O2G       -2.4340    0.4950   49.0800 O.3   3000  UTP3000    -0.1143
     13  O3G       -2.9620   -1.9890   48.9140 O.2   3000  UTP3000    -0.2221
     14  C5'        2.5050   -0.7870   49.7430 C.3   3000  UTP3000     0.1813
     15  C4'        3.4620   -1.8470   49.2090 C.3   3000  UTP3000     0.1799
     16  O4'        4.3420   -1.3100   48.1920 O.3   3000  UTP3000    -0.3320
     17  C1'        5.7200   -1.3880   48.6690 C.3   3000  UTP3000     0.2401
     18  C2'        5.7210   -2.4490   49.7800 C.3   3000  UTP3000     0.2319
     19  O2'        5.9610   -3.7390   49.1990 O.3   3000  UTP3000    -0.2157
     20  C3'        4.3130   -2.3330   50.3790 C.3   3000  UTP3000     0.2158
     21  O3'        3.7990   -3.5880   50.8400 O.3   3000  UTP3000    -0.2175
     22  N1         6.1890   -0.0130   49.0590 N.am  3000  UTP3000    -0.1766
     23  C6         5.3120    0.8880   49.7160 C.2   3000  UTP3000     0.0929
     24  C2         7.5050    0.4130   48.7590 C.1   3000  UTP3000     0.2845
     25  O2         8.3040   -0.3290   48.1850 O.2   3000  UTP3000    -0.1918
     26  N3         7.9080    1.7110   49.1300 N.2   3000  UTP3000    -0.2452
     27  C4         7.0100    2.5820   49.7890 C.1   3000  UTP3000     0.2182
     28  O4         7.3570    3.7170   50.1130 O.2   3000  UTP3000    -0.2085
     29  C5         5.7150    2.1670   50.0790 C.2   3000  UTP3000     0.1242
@<TRIPOS>BOND
     1    25    24    2
     2    16    17    1
     3    16    15    1
     4     2     1    2
     5     3     1    1
     6    17    22    1
     7    17    18    1
     8    24    22   am
     9    24    26    2
    10    13    10    2
    11    22    23    1
    12    12    10    1
    13     1     4    1
    14     1     5    1
    15    26    27    2
    16    19    18    1
    17    15    14    1
    18    15    20    1
    19    23    29    2
    20    14     5    1
    21    18    20    1
    22    27    29    1
    23    27    28    2
    24    10    11    1
    25    10     9    1
    26     4     6    1
    27    20    21    1
    28     9     6    1
    29     6     8    2
    30     6     7    1
