@<TRIPOS>MOLECULE
2nw4_8NH_A_1.pdb
 21 23 0 0 0
SMALL
GASTEIGER

@<TRIPOS>ATOM
      1 CL1        23.5170    5.2630    4.3990 Cl      1  8NH1       -0.0818
      2  C2        25.2700    4.7920    4.3180 C.ar    1  8NH1        0.0645
      3  C3        25.6300    3.4270    4.4080 C.ar    1  8NH1        0.0035
      4  C4        26.9740    3.0660    4.2280 C.ar    1  8NH1        0.0591
      5  C5        27.9910    4.0090    4.0300 C.ar    1  8NH1        0.0158
      6  C7        27.6510    5.3530    4.0520 C.ar    1  8NH1        0.0124
      7  C9        26.3010    5.7540    4.1350 C.ar    1  8NH1        0.0787
      8  C10       26.0640    7.1350    3.8860 C.1     1  8NH1        0.1013
      9  N11       25.8750    8.2290    3.5750 N.1     1  8NH1       -0.1908
     10  N12       27.3620    1.7870    4.2660 N.am    1  8NH1       -0.1912
     11  C13       27.1360    0.8600    3.3060 C.2     1  8NH1        0.3172
     12  N14       27.5890   -0.3110    3.7430 N.am    1  8NH1       -0.2545
     13  C15       28.3210   -0.1870    4.9710 C.3     1  8NH1        0.1846
     14  C17       29.7020   -0.4300    4.4160 C.3     1  8NH1        0.1807
     15  C19       29.5120   -1.5100    3.3320 C.3     1  8NH1        0.0567
     16  C22       28.0410   -1.3920    2.9240 C.3     1  8NH1        0.0982
     17  O25       30.0600    0.8200    3.8300 O.3     1  8NH1       -0.2208
     18  C27       28.2090    1.3320    5.1920 C.2     1  8NH1        0.2570
     19  O28       28.8140    1.9890    6.0400 O.2     1  8NH1       -0.2722
     20  O29       26.6280    1.0840    2.2060 O.2     1  8NH1       -0.2516
     21  C30       24.6180    2.3820    4.7120 C.3     1  8NH1        0.0333
@<TRIPOS>BOND
     1    20    11    2
     2    16    15    1
     3    16    12    1
     4    11    12   am
     5    11    10   am
     6    15    14    1
     7     9     8    3
     8    12    13    1
     9    17    14    1
    10     8     7    1
    11     5     6   ar
    12     5     4   ar
    13     6     7   ar
    14     7     2   ar
    15     4    10    1
    16     4     3   ar
    17    10    18   am
    18     2     1    1
    19     2     3   ar
    20     3    21    1
    21    14    13    1
    22    13    18    1
    23    18    19    2
