@<TRIPOS>MOLECULE
2nw6_POT_A_1.pdb
 15 15 0 0 0
SMALL
GASTEIGER

@<TRIPOS>ATOM
      1  P         10.4640   27.3230   21.4270 P.3   612  POT612      0.2206
      2  C1         9.0310   28.2360   21.1180 C.3   612  POT612      0.0904
      3  O1        11.7360   28.0180   20.8180 O.3   612  POT612     -0.1774
      4  O2        10.5980   27.0460   23.0270 O.3   612  POT612     -0.3160
      5  C2         9.7950   26.4200   24.0760 C.3   612  POT612      0.1647
      6  C3        10.7260   25.7470   25.0840 C.3   612  POT612      0.0339
      7  C4        11.4350   24.6130   24.4000 C.3   612  POT612      0.0027
      8  C5         8.9500   27.4020   24.8810 C.3   612  POT612      0.2350
      9  O3         9.0760   28.7560   24.3470 O.3   612  POT612     -0.4728
     10  C6         8.0760   31.3690   26.8850 C.ar  612  POT612      0.0031
     11  C7         7.0500   32.0850   26.1620 C.ar  612  POT612      0.0002
     12  C8         6.6880   31.6910   24.8270 C.ar  612  POT612      0.0031
     13  C9         7.3540   30.5800   24.2120 C.ar  612  POT612      0.0369
     14  C10        8.3930   29.8430   24.9210 C.ar  612  POT612      0.1387
     15  C11        8.7420   30.2550   26.2670 C.ar  612  POT612      0.0369
@<TRIPOS>BOND
     1     3     1    1
     2     2     1    1
     3     1     4    1
     4     4     5    1
     5     5     8    1
     6     5     6    1
     7    13    12   ar
     8    13    14   ar
     9     9     8    1
    10     9    14    1
    11     7     6    1
    12    12    11   ar
    13    14    15   ar
    14    11    10   ar
    15    15    10   ar
