@<TRIPOS>MOLECULE
2nw7_HEM_A_1.pdb
 43 50 0 0 0
SMALL
GASTEIGER

@<TRIPOS>ATOM
      1 FE         29.7990   96.2410  116.4360 Fe    401  HEM401      0.0000
      2  CHA       31.1360   96.9370  119.5200 C.2   401  HEM401      0.0000
      3  CHB       27.3230   94.4680  118.0990 C.2   401  HEM401      0.0000
      4  CHC       28.5200   95.0400  113.4260 C.2   401  HEM401      0.0000
      5  CHD       32.4100   97.5580  114.8570 C.2   401  HEM401      0.0000
      6  NA        29.3170   95.7430  118.4760 N.2   401  HEM401      0.0000
      7  C1A       29.9940   96.1530  119.5600 C.2   401  HEM401      0.0000
      8  C2A       29.3920   95.6560  120.7520 C.2   401  HEM401      0.0000
      9  C3A       28.3020   94.9600  120.3460 C.2   401  HEM401      0.0000
     10  C4A       28.2840   95.0280  118.9140 C.2   401  HEM401      0.0000
     11  CMA       27.3010   94.2030  121.2050 C.3   401  HEM401      0.0000
     12  CAA       29.9060   95.8980  122.1370 C.3   401  HEM401      0.0000
     13  CBA       31.2590   95.3650  122.6150 C.3   401  HEM401      0.0000
     14  CGA       31.3920   93.9440  123.1850 C.2   401  HEM401      0.0000
     15  O1A       32.1030   93.1000  122.5160 O.co2 401  HEM401      0.0000
     16  O2A       30.7700   93.6460  124.2650 O.co2 401  HEM401      0.0000
     17  NB        28.2310   94.9600  115.8740 N.ar  401  HEM401      0.0000
     18  C1B       27.2820   94.4480  116.6990 C.ar  401  HEM401      0.0000
     19  C2B       26.1980   93.8600  115.9490 C.ar  401  HEM401      0.0000
     20  C3B       26.5000   93.9890  114.5890 C.ar  401  HEM401      0.0000
     21  C4B       27.7940   94.6920  114.5690 C.ar  401  HEM401      0.0000
     22  CMB       24.9450   93.1930  116.5960 C.3   401  HEM401      0.0000
     23  CAB       25.6870   93.5280  113.4830 C.3   401  HEM401      0.0000
     24  CBB       25.3610   92.1820  113.1870 C.3   401  HEM401      0.0000
     25  NC        30.3820   96.2410  114.4640 N.2   401  HEM401      0.0000
     26  C1C       29.7460   95.7500  113.3840 C.2   401  HEM401      0.0000
     27  C2C       30.5050   96.0660  112.1580 C.2   401  HEM401      0.0000
     28  C3C       31.6060   96.7910  112.5530 C.2   401  HEM401      0.0000
     29  C4C       31.4990   96.8810  114.0180 C.2   401  HEM401      0.0000
     30  CMC       30.1250   95.6800  110.7110 C.3   401  HEM401      0.0000
     31  CAC       32.6230   97.3160  111.7230 C.3   401  HEM401      0.0000
     32  CBC       33.3090   98.4840  112.0130 C.3   401  HEM401      0.0000
     33  ND        31.4530   97.0610  117.0750 N.ar  401  HEM401      0.0000
     34  C1D       32.3760   97.6510  116.2830 C.ar  401  HEM401      0.0000
     35  C2D       33.3240   98.3780  117.0890 C.ar  401  HEM401      0.0000
     36  C3D       32.9830   98.2140  118.3980 C.ar  401  HEM401      0.0000
     37  C4D       31.8030   97.3830  118.3690 C.ar  401  HEM401      0.0000
     38  CMD       34.5160   99.1710  116.5590 C.3   401  HEM401      0.0000
     39  CAD       33.6770   98.8050  119.6490 C.3   401  HEM401      0.0000
     40  CBD       34.1330  100.2430  119.7040 C.3   401  HEM401      0.0000
     41  CGD       34.1280  101.0670  121.0080 C.2   401  HEM401      0.0000
     42  O1D       34.9310  100.7030  121.8820 O.co2 401  HEM401      0.0000
     43  O2D       33.3380  102.0290  121.1740 O.co2 401  HEM401      0.0000
@<TRIPOS>BOND
     1    30    27    1
     2    31    32    1
     3    31    28    1
     4    27    28    2
     5    27    26    1
     6    28    29    1
     7    24    23    1
     8    26     4    2
     9    26    25    1
    10     4    21    1
    11    23    20    1
    12    29    25    2
    13    29     5    1
    14    25     1    1
    15    21    20   ar
    16    21    17   ar
    17    20    19   ar
    18     5    34    2
    19    17     1    1
    20    17    18   ar
    21    19    22    1
    22    19    18   ar
    23    34    33   ar
    24    34    35   ar
    25     1    33    1
    26     1     6    1
    27    38    35    1
    28    18     3    1
    29    33    37   ar
    30    35    36   ar
    31     3    10    2
    32    37    36   ar
    33    37     2    2
    34    36    39    1
    35     6    10    1
    36     6     7    2
    37    10     9    1
    38     2     7    1
    39     7     8    1
    40    39    40    1
    41    40    41    1
    42     9     8    2
    43     9    11    1
    44     8    12    1
    45    41    43   ar
    46    41    42   ar
    47    12    13    1
    48    15    14   ar
    49    13    14    1
    50    14    16   ar
