@<TRIPOS>MOLECULE
2nw8_TRP_A_1.pdb
 15 16 0 0 0
SMALL
GASTEIGER

@<TRIPOS>ATOM
      1  N         11.5200  -24.6730   35.1820 N.3   307  TRP307     -0.1205
      2  CA        10.9530  -26.0080   35.0320 C.3   307  TRP307      0.1984
      3  C          9.4280  -26.0110   34.9590 C.2   307  TRP307      0.3822
      4  O          8.8310  -27.0800   35.2140 O.co2 307  TRP307     -0.2440
      5  CB        11.4090  -26.9040   36.1840 C.3   307  TRP307      0.0549
      6  CG        12.8260  -27.3600   36.0550 C.2   307  TRP307     -0.0138
      7  CD1       13.4470  -27.7750   34.9140 C.2   307  TRP307      0.0907
      8  CD2       13.7770  -27.5240   37.1130 C.3   307  TRP307      0.0819
      9  NE1       14.7250  -28.1920   35.1950 N.2   307  TRP307     -0.2482
     10  CE2       14.9530  -28.0510   36.5380 C.2   307  TRP307      0.0665
     11  CE3       13.7480  -27.2830   38.4930 C.2   307  TRP307     -0.0164
     12  CZ2       16.0930  -28.3410   37.2940 C.2   307  TRP307      0.0153
     13  CZ3       14.8830  -27.5730   39.2450 C.2   307  TRP307     -0.0038
     14  CH2       16.0380  -28.0970   38.6420 C.2   307  TRP307      0.0009
     15  OXT        8.8490  -24.9600   34.6210 O.co2 307  TRP307     -0.2440
@<TRIPOS>BOND
     1    15     3   ar
     2     7     9    1
     3     7     6    2
     4     3     2    1
     5     3     4   ar
     6     2     1    1
     7     2     5    1
     8     9    10    2
     9     6     5    1
    10     6     8    1
    11    10     8    1
    12    10    12    1
    13     8    11    1
    14    12    14    2
    15    11    13    2
    16    14    13    1
