@<TRIPOS>MOLECULE
2nw8_HEM_A_1.pdb
 43 50 0 0 0
SMALL
GASTEIGER

@<TRIPOS>ATOM
      1  CHA       15.0900  -22.4660   31.3210 C.2   401  HEM401      0.0000
      2  CHB       11.5420  -25.8580   31.5570 C.2   401  HEM401      0.0000
      3  CHC       14.7920  -29.5160   31.3210 C.2   401  HEM401      0.0000
      4  CHD       18.3210  -26.1180   31.1190 C.2   401  HEM401      0.0000
      5  C1A       13.8350  -23.0820   31.4110 C.2   401  HEM401      0.0000
      6  C2A       12.4920  -22.3600   31.4990 C.2   401  HEM401      0.0000
      7  C3A       11.5220  -23.3300   31.5610 C.2   401  HEM401      0.0000
      8  C4A       12.1720  -24.6210   31.5180 C.2   401  HEM401      0.0000
      9  CMA        9.9800  -23.1010   31.6640 C.3   401  HEM401      0.0000
     10  CAA       12.3090  -20.7950   31.5200 C.3   401  HEM401      0.0000
     11  CBA       12.5750  -20.0640   32.8620 C.3   401  HEM401      0.0000
     12  CGA       11.4500  -20.3840   33.8260 C.2   401  HEM401      0.0000
     13  O1A       11.5860  -21.3720   34.5640 O.co2 401  HEM401      0.0000
     14  O2A       10.4490  -19.6510   33.8310 O.co2 401  HEM401      0.0000
     15  C1B       12.0700  -27.1510   31.5200 C.ar  401  HEM401      0.0000
     16  C2B       11.2960  -28.4040   31.5690 C.ar  401  HEM401      0.0000
     17  C3B       12.1900  -29.4550   31.5010 C.ar  401  HEM401      0.0000
     18  C4B       13.5540  -28.8400   31.4140 C.ar  401  HEM401      0.0000
     19  CMB        9.7260  -28.4180   31.6770 C.3   401  HEM401      0.0000
     20  CAB       11.9390  -31.0140   31.5140 C.2   401  HEM401      0.0000
     21  CBB       11.0600  -31.6710   32.3230 C.2   401  HEM401      0.0000
     22  C1C       16.0820  -28.9390   31.2500 C.2   401  HEM401      0.0000
     23  C2C       17.3550  -29.6370   31.1620 C.2   401  HEM401      0.0000
     24  C3C       18.3500  -28.6890   31.1070 C.2   401  HEM401      0.0000
     25  C4C       17.7120  -27.3940   31.1630 C.2   401  HEM401      0.0000
     26  CMC       17.5330  -31.1940   31.1400 C.3   401  HEM401      0.0000
     27  CAC       19.8890  -29.0300   31.0130 C.3   401  HEM401      0.0000
     28  CBC       20.6540  -28.7450   32.1500 C.3   401  HEM401      0.0000
     29  C1D       17.8050  -24.8250   31.1640 C.ar  401  HEM401      0.0000
     30  C2D       18.5560  -23.5750   31.1050 C.ar  401  HEM401      0.0000
     31  C3D       17.6350  -22.3340   31.1520 C.ar  401  HEM401      0.0000
     32  C4D       16.3360  -23.0500   31.2500 C.ar  401  HEM401      0.0000
     33  CMD       20.0880  -23.5160   31.0090 C.3   401  HEM401      0.0000
     34  CAD       18.1260  -20.9150   31.1100 C.3   401  HEM401      0.0000
     35  CBD       18.1020  -20.4260   29.6160 C.3   401  HEM401      0.0000
     36  CGD       18.2940  -19.1560   29.3330 C.2   401  HEM401      0.0000
     37  O1D       18.2460  -18.9320   28.1060 O.co2 401  HEM401      0.0000
     38  O2D       18.5150  -18.2740   30.3690 O.co2 401  HEM401      0.0000
     39  NA        13.5480  -24.4090   31.4240 N.2   401  HEM401      0.0000
     40  NB        13.4160  -27.4900   31.4250 N.ar  401  HEM401      0.0000
     41  NC        16.3280  -27.6070   31.2380 N.2   401  HEM401      0.0000
     42  ND        16.4780  -24.4390   31.2410 N.ar  401  HEM401      0.0000
     43 FE         14.9900  -25.9590   31.0020 Fe    401  HEM401      0.0000
@<TRIPOS>BOND
     1    37    36   ar
     2    36    35    1
     3    36    38   ar
     4    35    34    1
     5    43    41    1
     6    43    42    1
     7    43    39    1
     8    43    40    1
     9    33    30    1
    10    27    24    1
    11    27    28    1
    12    30    31   ar
    13    30    29   ar
    14    24    23    2
    15    24    25    1
    16    34    31    1
    17     4    25    1
    18     4    29    2
    19    26    23    1
    20    31    32   ar
    21    23    22    1
    22    25    41    2
    23    29    42   ar
    24    41    22    1
    25    42    32   ar
    26    22     3    2
    27    32     1    2
    28     1     5    1
    29     3    18    1
    30     5    39    2
    31     5     6    1
    32    18    40   ar
    33    18    17   ar
    34    39     8    1
    35    40    15   ar
    36     6    10    1
    37     6     7    2
    38    17    20    1
    39    17    16   ar
    40    20    21    2
    41     8     2    2
    42     8     7    1
    43    15     2    1
    44    15    16   ar
    45    10    11    1
    46     7     9    1
    47    16    19    1
    48    11    12    1
    49    12    14   ar
    50    12    13   ar
