@<TRIPOS>MOLECULE
2nw9_FT6_A_1.pdb
 16 17 0 0 0
SMALL
GASTEIGER

@<TRIPOS>ATOM
      1  N         15.6440  -22.2790   -2.8380 N.3   307  FT6307     -0.1205
      2  CA        17.1100  -22.5300   -2.9230 C.3   307  FT6307      0.1987
      3  C         17.8550  -21.1860   -2.8830 C.2   307  FT6307      0.3822
      4  OXT       19.0870  -21.1270   -2.9870 O.co2 307  FT6307     -0.2440
      5  CB        17.4070  -23.3310   -4.2000 C.3   307  FT6307      0.0585
      6  CG        17.2420  -24.8380   -3.9660 C.2   307  FT6307      0.0001
      7  CD2       16.9370  -25.7910   -4.9330 C.2   307  FT6307      0.0116
      8  CD1       17.3810  -25.4720   -2.8090 C.2   307  FT6307      0.0942
      9  NE1       17.1840  -26.8010   -2.9760 N.2   307  FT6307     -0.2481
     10  CE2       16.9020  -27.0340   -4.2720 C.2   307  FT6307      0.0655
     11  CZ2       16.6320  -28.2130   -4.9930 C.3   307  FT6307      0.1022
     12  CH2       16.4010  -28.1110   -6.3840 C.2   307  FT6307      0.1236
     13  FAP       16.1410  -29.2250   -7.1020 F     307  FT6307     -0.2085
     14  CZ3       16.4410  -26.8790   -7.0470 C.2   307  FT6307      0.0256
     15  CE3       16.7140  -25.7010   -6.3230 C.2   307  FT6307      0.0029
     16  O         17.2230  -20.1450   -2.7290 O.co2 307  FT6307     -0.2440
@<TRIPOS>BOND
     1    13    12    1
     2    14    12    2
     3    14    15    1
     4    12    11    1
     5    15     7    2
     6    11    10    1
     7     7    10    1
     8     7     6    1
     9    10     9    2
    10     5     6    1
    11     5     2    1
    12     6     8    2
    13     4     3   ar
    14     9     8    1
    15     2     3    1
    16     2     1    1
    17     3    16   ar
