@<TRIPOS>MOLECULE
2nw9_HEM_A_1.pdb
 43 50 0 0 0
SMALL
GASTEIGER

@<TRIPOS>ATOM
      1  CHA       12.1100  -24.3020    0.7350 C.2   401  HEM401      0.0000
      2  CHB       16.8460  -22.9780    0.5390 C.2   401  HEM401      0.0000
      3  CHC       18.3450  -27.6330    0.7550 C.2   401  HEM401      0.0000
      4  CHD       13.6330  -28.9320    0.9160 C.2   401  HEM401      0.0000
      5  C1A       13.2900  -23.5490    0.6650 C.ar  401  HEM401      0.0000
      6  C2A       13.3490  -22.0300    0.5850 C.ar  401  HEM401      0.0000
      7  C3A       14.6710  -21.6790    0.5360 C.ar  401  HEM401      0.0000
      8  C4A       15.4590  -22.8970    0.5740 C.ar  401  HEM401      0.0000
      9  CMA       15.2460  -20.2320    0.4470 C.3   401  HEM401      0.0000
     10  CAA       12.0950  -21.0930    0.5640 C.3   401  HEM401      0.0000
     11  CBA       11.3540  -20.9460   -0.7750 C.3   401  HEM401      0.0000
     12  CGA       12.2180  -20.1100   -1.6790 C.2   401  HEM401      0.0000
     13  O1A       13.0110  -20.7050   -2.4230 O.co2 401  HEM401      0.0000
     14  O2A       12.1030  -18.8750   -1.6260 O.co2 401  HEM401      0.0000
     15  C1B       17.6850  -24.0980    0.5740 C.2   401  HEM401      0.0000
     16  C2B       19.1570  -24.0790    0.5290 C.2   401  HEM401      0.0000
     17  C3B       19.5930  -25.3760    0.5900 C.2   401  HEM401      0.0000
     18  C4B       18.3780  -26.2310    0.6730 C.2   401  HEM401      0.0000
     19  CMB       19.9810  -22.7540    0.4330 C.3   401  HEM401      0.0000
     20  CAB       21.0530  -25.9540    0.5790 C.2   401  HEM401      0.0000
     21  CBB       22.0000  -25.6100   -0.3310 C.2   401  HEM401      0.0000
     22  C1C       17.2020  -28.4440    0.8250 C.ar  401  HEM401      0.0000
     23  C2C       17.1590  -29.8910    0.9100 C.ar  401  HEM401      0.0000
     24  C3C       15.8470  -30.2630    0.9500 C.ar  401  HEM401      0.0000
     25  C4C       15.0470  -29.0520    0.8960 C.ar  401  HEM401      0.0000
     26  CMC       18.4040  -30.8370    0.9460 C.3   401  HEM401      0.0000
     27  CAC       15.3710  -31.7500    1.0450 C.3   401  HEM401      0.0000
     28  CBC       14.8160  -32.2750   -0.1200 C.3   401  HEM401      0.0000
     29  C1D       12.7680  -27.8290    0.8800 C.2   401  HEM401      0.0000
     30  C2D       11.3020  -27.8580    0.9240 C.2   401  HEM401      0.0000
     31  C3D       10.6860  -26.4330    0.8820 C.2   401  HEM401      0.0000
     32  C4D       11.9700  -25.6700    0.8010 C.2   401  HEM401      0.0000
     33  CMD       10.4860  -29.1650    1.0130 C.3   401  HEM401      0.0000
     34  CAD        9.2090  -26.1440    0.9250 C.3   401  HEM401      0.0000
     35  CBD        8.7820  -25.8940    2.4020 C.3   401  HEM401      0.0000
     36  CGD        7.6080  -25.3810    2.6560 C.2   401  HEM401      0.0000
     37  O1D        7.4130  -25.2420    3.8810 O.co2 401  HEM401      0.0000
     38  O2D        6.7770  -25.0780    1.5850 O.co2 401  HEM401      0.0000
     39  NA        14.5760  -23.9790    0.6530 N.ar  401  HEM401      0.0000
     40  NB        17.2860  -25.4250    0.6590 N.2   401  HEM401      0.0000
     41  NC        15.9370  -27.9710    0.8200 N.ar  401  HEM401      0.0000
     42  ND        13.0950  -26.4900    0.8040 N.2   401  HEM401      0.0000
     43 FE         15.1650  -26.0030    1.1230 Fe    401  HEM401      0.0000
@<TRIPOS>BOND
     1    13    12   ar
     2    12    14   ar
     3    12    11    1
     4    11    10    1
     5    21    20    2
     6    28    27    1
     7    19    16    1
     8     9     7    1
     9    16    15    1
    10    16    17    2
    11     7     8   ar
    12     7     6   ar
    13     2     8    2
    14     2    15    1
    15    10     6    1
    16     8    39   ar
    17    15    40    2
    18    20    17    1
    19     6     5   ar
    20    17    18    1
    21    39     5   ar
    22    39    43    1
    23    40    18    1
    24    40    43    1
    25     5     1    2
    26    18     3    2
    27     1    32    1
    28     3    22    1
    29    32    42    2
    30    32    31    1
    31    42    29    1
    32    42    43    1
    33    41    22   ar
    34    41    25   ar
    35    41    43    1
    36    22    23   ar
    37    29     4    2
    38    29    30    1
    39    31    30    2
    40    31    34    1
    41    25     4    1
    42    25    24   ar
    43    23    26    1
    44    23    24   ar
    45    30    33    1
    46    34    35    1
    47    24    27    1
    48    38    36   ar
    49    35    36    1
    50    36    37   ar
