@<TRIPOS>MOLECULE
2nwb_HEM_A_1.pdb
 43 50 0 0 0
SMALL
GASTEIGER

@<TRIPOS>ATOM
      1  CHA      119.8120   70.1900   89.1850 C.2   401  HEM401      0.0000
      2  CHB      116.4490   67.6620   91.3720 C.2   401  HEM401      0.0000
      3  CHC      114.1460   66.9090   87.1620 C.2   401  HEM401      0.0000
      4  CHD      117.3380   69.8870   85.0380 C.2   401  HEM401      0.0000
      5  C1A      119.1250   69.5190   90.1720 C.2   401  HEM401      0.0000
      6  C2A      119.5100   69.4900   91.5650 C.2   401  HEM401      0.0000
      7  C3A      118.5880   68.7050   92.1600 C.2   401  HEM401      0.0000
      8  C4A      117.6070   68.3920   91.1650 C.2   401  HEM401      0.0000
      9  CMA      118.3850   68.5240   93.6810 C.3   401  HEM401      0.0000
     10  CAA      120.7440   70.1180   92.1330 C.3   401  HEM401      0.0000
     11  CBA      122.1500   69.6070   91.8090 C.3   401  HEM401      0.0000
     12  CGA      122.9060   68.6980   92.7900 C.2   401  HEM401      0.0000
     13  O1A      123.1550   67.4900   92.4080 O.co2 401  HEM401      0.0000
     14  O2A      123.2200   69.1540   93.9460 O.co2 401  HEM401      0.0000
     15  C1B      115.5270   67.2560   90.4150 C.ar  401  HEM401      0.0000
     16  C2B      114.3680   66.4140   90.7360 C.ar  401  HEM401      0.0000
     17  C3B      113.7230   66.0890   89.5460 C.ar  401  HEM401      0.0000
     18  C4B      114.4710   66.8340   88.5200 C.ar  401  HEM401      0.0000
     19  CMB      114.1360   65.7640   92.1550 C.3   401  HEM401      0.0000
     20  CAB      112.5120   65.3060   89.4150 C.3   401  HEM401      0.0000
     21  CBB      111.4330   65.2720   90.3310 C.3   401  HEM401      0.0000
     22  C1C      114.8290   67.6530   86.1670 C.2   401  HEM401      0.0000
     23  C2C      114.4800   67.6770   84.7330 C.2   401  HEM401      0.0000
     24  C3C      115.3620   68.5420   84.1280 C.2   401  HEM401      0.0000
     25  C4C      116.3020   68.9320   85.1900 C.2   401  HEM401      0.0000
     26  CMC      113.3320   66.9010   84.0490 C.3   401  HEM401      0.0000
     27  CAC      115.4130   68.8870   82.7570 C.3   401  HEM401      0.0000
     28  CBC      116.5800   68.8540   82.0110 C.3   401  HEM401      0.0000
     29  C1D      118.2010   70.4000   86.0590 C.ar  401  HEM401      0.0000
     30  C2D      119.2480   71.3690   85.8480 C.ar  401  HEM401      0.0000
     31  C3D      120.0270   71.3560   86.9220 C.ar  401  HEM401      0.0000
     32  C4D      119.3560   70.4920   87.8680 C.ar  401  HEM401      0.0000
     33  CMD      119.5700   72.0400   84.4860 C.3   401  HEM401      0.0000
     34  CAD      121.1090   72.4770   87.3210 C.3   401  HEM401      0.0000
     35  CBD      120.9090   73.8800   87.8390 C.3   401  HEM401      0.0000
     36  CGD      120.9960   75.1220   86.9290 C.2   401  HEM401      0.0000
     37  O1D      119.9940   75.8540   86.9150 O.co2 401  HEM401      0.0000
     38  O2D      122.0140   75.3550   86.2310 O.co2 401  HEM401      0.0000
     39  NA       117.9930   68.8970   90.0000 N.2   401  HEM401      0.0000
     40  NB       115.5550   67.4960   89.0970 N.ar  401  HEM401      0.0000
     41  NC       115.9490   68.4200   86.3590 N.2   401  HEM401      0.0000
     42  ND       118.2010   70.0040   87.3460 N.ar  401  HEM401      0.0000
     43 FE        116.8930   68.8380   88.2400 Fe    401  HEM401      0.0000
@<TRIPOS>BOND
     1    28    27    1
     2    27    24    1
     3    26    23    1
     4    24    23    2
     5    24    25    1
     6    33    30    1
     7    23    22    1
     8     4    25    1
     9     4    29    2
    10    25    41    2
    11    30    29   ar
    12    30    31   ar
    13    29    42   ar
    14    22    41    1
    15    22     3    2
    16    38    36   ar
    17    41    43    1
    18    37    36   ar
    19    31    34    1
    20    31    32   ar
    21    36    35    1
    22     3    18    1
    23    34    35    1
    24    42    32   ar
    25    42    43    1
    26    32     1    2
    27    43    40    1
    28    43    39    1
    29    18    40   ar
    30    18    17   ar
    31    40    15   ar
    32     1     5    1
    33    20    17    1
    34    20    21    1
    35    17    16   ar
    36    39     5    2
    37    39     8    1
    38     5     6    1
    39    15    16   ar
    40    15     2    1
    41    16    19    1
    42     8     2    2
    43     8     7    1
    44     6    10    1
    45     6     7    2
    46    11    10    1
    47    11    12    1
    48     7     9    1
    49    13    12   ar
    50    12    14   ar
