@<TRIPOS>MOLECULE
2nwg_H1S_A_1.pdb
 35 36 0 0 0
SMALL
GASTEIGER

@<TRIPOS>ATOM
      1  C1       -20.7200   -0.5930    9.0830 C.3    68  H1S68       0.1803
      2  C2       -21.2570    0.6150    8.2360 C.3    68  H1S68       0.1795
      3  O3       -21.4480   -1.7080    8.4810 O.3    68  H1S68      -0.3158
      4  C4       -19.1640   -0.7670    9.1670 C.3    68  H1S68       0.2042
      5  O5       -20.4760    1.8450    8.4920 O.3    68  H1S68      -0.3246
      6  C6       -22.8090    0.7420    8.4350 C.3    68  H1S68       0.2045
      7  C7       -21.2470   -3.1150    8.8810 C.3    68  H1S68       0.3214
      8  C8       -18.4240    0.5420    9.0810 C.3    68  H1S68       0.1857
      9  O9       -18.8440   -1.2760   10.4550 O.3    68  H1S68      -0.2187
     10  C10      -19.4730    1.5550    9.5620 C.3    68  H1S68       0.2895
     11  O11      -23.5980    0.4000    7.2210 O.3    68  H1S68      -0.2384
     12  C12      -20.5340   -4.0030    7.8110 C.3    68  H1S68       0.2471
     13  O13      -20.5620   -3.4750   10.1280 O.2    68  H1S68      -0.4439
     14  N14      -17.8630    0.8050    7.7130 N.3    68  H1S68      -0.1129
     15  O15      -18.7650    2.6110   10.2440 O.3    68  H1S68      -0.1882
     16  S16      -24.9180    1.0510    6.9670 S.3    68  H1S68      -0.0001
     17  C17      -21.0710   -5.4680    8.0360 C.3    68  H1S68       0.2129
     18  O18      -20.6180   -3.4640    6.4200 O.3    68  H1S68      -0.2341
     19  C19      -20.9190   -4.7390   10.5450 C.2    68  H1S68       0.2189
     20  S20      -16.4820    1.7800    7.8360 S.3    68  H1S68      -0.1288
     21  O21      -25.8020    0.9370    8.2000 O.3    68  H1S68      -0.2682
     22  O22      -25.6190    0.4150    5.7930 O.2    68  H1S68      -0.3452
     23  O23      -24.7220    2.5140    6.6240 O.2    68  H1S68      -0.3452
     24  C24      -21.1770   -5.7420    9.5770 C.2    68  H1S68       0.0528
     25  O25      -20.2690   -6.5180    7.4080 O.3    68  H1S68      -0.2152
     26  S26      -19.7690   -2.2880    5.9630 S.3    68  H1S68       0.0001
     27  C27      -21.0160   -5.0110   12.0880 C.2    68  H1S68       0.4209
     28  O28      -16.9830    3.2000    7.9060 O.3    68  H1S68      -0.2918
     29  O29      -15.4980    1.6720    6.7040 O.3    68  H1S68      -0.2918
     30  O30      -15.7920    1.3660    9.1130 O.3    68  H1S68      -0.2918
     31  O31      -18.4740   -2.1890    6.7500 O.3    68  H1S68      -0.2682
     32  O32      -19.4830   -2.3770    4.4730 O.2    68  H1S68      -0.3452
     33  O33      -20.5460   -1.0030    6.1120 O.2    68  H1S68      -0.3452
     34  O34      -21.3310   -6.1450   12.5230 O.co2  68  H1S68      -0.2371
     35  O35      -20.7680   -4.0570   12.8380 O.co2  68  H1S68      -0.2371
@<TRIPOS>BOND
     1    32    26    2
     2    22    16    2
     3    26    33    2
     4    26    18    1
     5    26    31    1
     6    18    12    1
     7    23    16    2
     8    29    20    1
     9    16    11    1
    10    16    21    1
    11    11     6    1
    12    25    17    1
    13    14    20    1
    14    14     8    1
    15    12    17    1
    16    12     7    1
    17    20    28    1
    18    20    30    1
    19    17    24    1
    20     2     6    1
    21     2     5    1
    22     2     1    1
    23     3     7    1
    24     3     1    1
    25     5    10    1
    26     7    13    1
    27     8     4    1
    28     8    10    1
    29     1     4    1
    30     4     9    1
    31    10    15    1
    32    24    19    2
    33    13    19    1
    34    19    27    1
    35    27    34   ar
    36    27    35   ar
