@<TRIPOS>MOLECULE
2nwr_PEP_A_1.pdb
 10 9 0 0 0
SMALL
GASTEIGER

@<TRIPOS>ATOM
      1  C1        32.3800   51.7560   22.3870 C.2   1268  PEP1268     0.4216
      2  O1        33.1520   52.4270   23.1470 O.co2 1268  PEP1268    -0.2371
      3  O2'       31.2100   51.7820   22.6190 O.co2 1268  PEP1268    -0.2371
      4  C2        33.0690   50.9520   21.2770 C.2   1268  PEP1268     0.2283
      5  C3        34.3940   50.6990   21.1450 C.2   1268  PEP1268     0.0477
      6  O2        32.0480   50.5190   20.4270 O.2   1268  PEP1268    -0.3930
      7  P         32.1550   49.5230   19.2040 P.3   1268  PEP1268     0.5889
      8  O1P       32.7020   48.2790   19.7560 O.3   1268  PEP1268    -0.1039
      9  O2P       32.9580   50.1930   18.1560 O.2   1268  PEP1268    -0.2114
     10  O3P       30.6580   49.2990   18.8280 O.3   1268  PEP1268    -0.1039
@<TRIPOS>BOND
     1     9     7    2
     2    10     7    1
     3     7     8    1
     4     7     6    1
     5     6     4    1
     6     5     4    2
     7     4     1    1
     8     1     3   ar
     9     1     2   ar
