@<TRIPOS>MOLECULE
2nws_PEP_A_1.pdb
 10 9 0 0 0
SMALL
GASTEIGER

@<TRIPOS>ATOM
      1  C1        32.5240   51.6920   22.4310 C.2   1268  PEP1268     0.4216
      2  O1        33.3720   52.3500   23.1350 O.co2 1268  PEP1268    -0.2371
      3  O2'       31.3430   51.7000   22.5820 O.co2 1268  PEP1268    -0.2371
      4  C2        33.1410   50.8210   21.3160 C.2   1268  PEP1268     0.2283
      5  C3        34.4650   50.5250   21.2250 C.2   1268  PEP1268     0.0477
      6  O2        32.1200   50.3360   20.4890 O.2   1268  PEP1268    -0.3930
      7  P         32.1560   49.4660   19.1790 P.3   1268  PEP1268     0.5889
      8  O1P       32.9140   48.2350   19.4710 O.3   1268  PEP1268    -0.1039
      9  O2P       32.7690   50.1760   18.0460 O.2   1268  PEP1268    -0.2114
     10  O3P       30.6770   49.2780   18.7580 O.3   1268  PEP1268    -0.1039
@<TRIPOS>BOND
     1     9     7    2
     2    10     7    1
     3     7     8    1
     4     7     6    1
     5     6     4    1
     6     5     4    2
     7     4     1    1
     8     1     3   ar
     9     1     2   ar
