@<TRIPOS>MOLECULE
2nws_A5P_A_1.pdb
 14 13 0 0 0
SMALL
GASTEIGER

@<TRIPOS>ATOM
      1  C1        35.7120   51.7370   18.0540 C.2   1269  A5P1269     0.2427
      2  O1        35.0440   50.8200   18.1580 O.2   1269  A5P1269    -0.2854
      3  C2        35.4010   53.1490   18.5150 C.3   1269  A5P1269     0.2486
      4  O2        34.9070   53.7190   19.7890 O.3   1269  A5P1269    -0.2118
      5  C3        36.9040   53.3830   18.3690 C.3   1269  A5P1269     0.2224
      6  O3        37.7210   53.2020   19.5480 O.3   1269  A5P1269    -0.2171
      7  C4        37.0280   54.6460   17.5530 C.3   1269  A5P1269     0.2151
      8  O4        35.9920   55.3540   16.8310 O.3   1269  A5P1269    -0.2176
      9  C5        38.2010   54.0690   16.7740 C.3   1269  A5P1269     0.1892
     10  O5        38.4740   55.2520   16.1900 O.3   1269  A5P1269    -0.2674
     11  P         39.5940   55.6690   15.4150 P.3   1269  A5P1269     0.5327
     12  O1P       39.3850   55.0910   14.0800 O.2   1269  A5P1269    -0.2224
     13  O2P       39.4080   57.1490   15.5230 O.3   1269  A5P1269    -0.1145
     14  O3P       40.8550   55.1910   16.0610 O.3   1269  A5P1269    -0.1145
@<TRIPOS>BOND
     1    12    11    2
     2    11    13    1
     3    11    14    1
     4    11    10    1
     5    10     9    1
     6     9     7    1
     7     8     7    1
     8     7     5    1
     9     1     2    2
    10     1     3    1
    11     5     3    1
    12     5     6    1
    13     3     4    1
