@<TRIPOS>MOLECULE
2nww_TB1_A_1.pdb
 17 17 0 0 0
SMALL
GASTEIGER

@<TRIPOS>ATOM
      1  C2        13.1380    4.4620    5.0560 C.ar  423  TB1423     -0.0019
      2  C5        14.5140    4.5240    4.8510 C.ar  423  TB1423     -0.0002
      3  C8        15.3850    4.7700    5.9070 C.ar  423  TB1423     -0.0000
      4  C6        14.8730    4.9600    7.1820 C.ar  423  TB1423     -0.0002
      5  C3        13.4950    4.9050    7.3920 C.ar  423  TB1423     -0.0019
      6  C1        12.6150    4.6500    6.3340 C.ar  423  TB1423      0.0073
      7  C4        11.2200    4.5950    6.5420 C.3   423  TB1423      0.1693
      8  O2        10.4670    3.3340    6.5860 O.3   423  TB1423     -0.3387
      9  C11       10.9840    2.4540    7.6280 C.3   423  TB1423      0.2469
     10  C9        11.1120    1.0270    7.1310 C.2   423  TB1423      0.3934
     11  O5        12.3170    0.5650    7.1040 O.co2 423  TB1423     -0.2429
     12  O1        10.0060    0.4000    6.7950 O.co2 423  TB1423     -0.2429
     13  C7        10.1140    2.4080    8.8820 C.3   423  TB1423      0.2323
     14  C10       10.7670    3.2760    9.9500 C.2   423  TB1423      0.3849
     15  O4        11.3450    2.6760   10.8830 O.co2 423  TB1423     -0.2439
     16  O3        10.6710    4.5170    9.8100 O.co2 423  TB1423     -0.2439
     17  N          8.7680    2.9010    8.5760 N.3   423  TB1423     -0.1175
@<TRIPOS>BOND
     1     2     1   ar
     2     2     3   ar
     3     1     6   ar
     4     3     4   ar
     5     6     7    1
     6     6     5   ar
     7     7     8    1
     8     8     9    1
     9    12    10   ar
    10    11    10   ar
    11    10     9    1
    12     4     5   ar
    13     9    13    1
    14    17    13    1
    15    13    14    1
    16    16    14   ar
    17    14    15   ar
