@<TRIPOS>MOLECULE
2nx0_HEM_A_1.pdb
 43 50 0 0 0
SMALL
GASTEIGER

@<TRIPOS>ATOM
      1 FE          0.0310   -0.0330   14.8910 Fe    148  HEM148      0.0000
      2  CHA       -3.3620    0.2960   14.6870 C.2   148  HEM148      0.0000
      3  CHB        0.4170    2.6080   12.7480 C.2   148  HEM148      0.0000
      4  CHC        3.3850   -0.3190   15.1280 C.2   148  HEM148      0.0000
      5  CHD       -0.3660   -2.6920   16.9620 C.2   148  HEM148      0.0000
      6  NA        -1.2050    1.1590   13.9440 N.ar  148  HEM148      0.0000
      7  C1A       -2.5880    1.1940   13.9660 C.ar  148  HEM148      0.0000
      8  C2A       -3.1290    2.2690   13.1470 C.ar  148  HEM148      0.0000
      9  C3A       -2.0530    2.8900   12.6200 C.ar  148  HEM148      0.0000
     10  C4A       -0.8780    2.2040   13.0770 C.ar  148  HEM148      0.0000
     11  CMA       -2.0410    4.0890   11.6920 C.3   148  HEM148      0.0000
     12  CAA       -4.6000    2.6370   13.0150 C.3   148  HEM148      0.0000
     13  CBA       -4.9390    3.9610   13.7610 C.3   148  HEM148      0.0000
     14  CGA       -4.6580    3.7770   15.2230 C.2   148  HEM148      0.0000
     15  O1A       -5.3750    2.9480   15.8160 O.co2 148  HEM148      0.0000
     16  O2A       -3.7210    4.4190   15.7720 O.co2 148  HEM148      0.0000
     17  NB         1.5700    0.9350   14.1260 N.2   148  HEM148      0.0000
     18  C1B        1.5400    1.9960   13.2470 C.2   148  HEM148      0.0000
     19  C2B        2.8910    2.4250   12.9060 C.2   148  HEM148      0.0000
     20  C3B        3.7090    1.5920   13.5390 C.2   148  HEM148      0.0000
     21  C4B        2.8990    0.6800   14.3100 C.2   148  HEM148      0.0000
     22  CMB        3.1640    3.5670   11.9380 C.3   148  HEM148      0.0000
     23  CAB        5.2190    1.5790   13.5130 C.2   148  HEM148      0.0000
     24  CBB        5.8930    2.7760   13.5590 C.2   148  HEM148      0.0000
     25  NC         1.2590   -1.1870   15.8790 N.ar  148  HEM148      0.0000
     26  C1C        2.6290   -1.2180   15.8200 C.ar  148  HEM148      0.0000
     27  C2C        3.1490   -2.3540   16.5680 C.ar  148  HEM148      0.0000
     28  C3C        2.1090   -3.0340   17.0530 C.ar  148  HEM148      0.0000
     29  C4C        0.9070   -2.2990   16.6390 C.ar  148  HEM148      0.0000
     30  CMC        4.6420   -2.5960   16.6880 C.3   148  HEM148      0.0000
     31  CAC        2.1110   -4.2830   17.8760 C.2   148  HEM148      0.0000
     32  CBC        3.1680   -5.1180   17.8310 C.2   148  HEM148      0.0000
     33  ND        -1.5120   -0.9470   15.6660 N.2   148  HEM148      0.0000
     34  C1D       -1.4980   -2.0500   16.5210 C.2   148  HEM148      0.0000
     35  C2D       -2.8130   -2.5270   16.8180 C.2   148  HEM148      0.0000
     36  C3D       -3.7210   -1.6690   16.1310 C.2   148  HEM148      0.0000
     37  C4D       -2.8490   -0.7290   15.4520 C.2   148  HEM148      0.0000
     38  CMD       -3.1710   -3.6950   17.6740 C.3   148  HEM148      0.0000
     39  CAD       -5.2100   -1.7630   16.1230 C.3   148  HEM148      0.0000
     40  CBD       -5.6670   -2.7250   15.0250 C.3   148  HEM148      0.0000
     41  CGD       -7.1750   -2.7670   14.9320 C.2   148  HEM148      0.0000
     42  O1D       -7.8660   -2.9340   15.9680 O.co2 148  HEM148      0.0000
     43  O2D       -7.6900   -2.6200   13.8120 O.co2 148  HEM148      0.0000
@<TRIPOS>BOND
     1    11     9    1
     2    22    19    1
     3     9    10   ar
     4     9     8   ar
     5     3    10    2
     6     3    18    1
     7    19    18    1
     8    19    20    2
     9    12     8    1
    10    12    13    1
    11    10     6   ar
    12     8     7   ar
    13    18    17    2
    14    23    20    1
    15    23    24    2
    16    20    21    1
    17    13    14    1
    18    43    41   ar
    19     6     7   ar
    20     6     1    1
    21     7     2    2
    22    17    21    1
    23    17     1    1
    24    21     4    2
    25     2    37    1
    26     1    33    1
    27     1    25    1
    28    41    40    1
    29    41    42   ar
    30    40    39    1
    31     4    26    1
    32    14    16   ar
    33    14    15   ar
    34    37    33    2
    35    37    36    1
    36    33    34    1
    37    26    25   ar
    38    26    27   ar
    39    25    29   ar
    40    39    36    1
    41    36    35    2
    42    34    35    1
    43    34     5    2
    44    27    30    1
    45    27    28   ar
    46    29     5    1
    47    29    28   ar
    48    35    38    1
    49    28    31    1
    50    32    31    2
