@<TRIPOS>MOLECULE
2nx1_RP5_A_1.pdb
 14 14 0 0 0
SMALL
GASTEIGER

@<TRIPOS>ATOM
      1  C1'       35.1040   52.6660   18.2250 C.3   1269  RP51269     0.3023
      2  O1'       35.7060   53.3710   17.1240 O.3   1269  RP51269    -0.3237
      3  C2'       35.8340   53.1830   19.5490 C.3   1269  RP51269     0.2433
      4  O2'       35.0820   54.2340   20.1860 O.3   1269  RP51269    -0.2148
      5  C3'       37.2760   53.5920   19.0770 C.3   1269  RP51269     0.2168
      6  O3'       37.8250   54.7700   19.6800 O.3   1269  RP51269    -0.2175
      7  C4'       36.9830   53.9480   17.5720 C.3   1269  RP51269     0.1809
      8  C5'       38.2770   53.5650   16.7450 C.3   1269  RP51269     0.1859
      9  O5'       38.2140   54.7480   15.9720 O.3   1269  RP51269    -0.2675
     10  P'        39.4440   55.4160   15.3790 P.3   1269  RP51269     0.5327
     11  O1X       40.8230   55.1850   16.0220 O.3   1269  RP51269    -0.1145
     12  O2X       39.4390   54.9310   13.9600 O.2   1269  RP51269    -0.2224
     13  O3X       39.0890   56.8950   15.5590 O.3   1269  RP51269    -0.1145
     14  O1        35.3940   51.2660   18.0770 O.3   1269  RP51269    -0.1869
@<TRIPOS>BOND
     1    12    10    2
     2    10    13    1
     3    10     9    1
     4    10    11    1
     5     9     8    1
     6     8     7    1
     7     2     7    1
     8     2     1    1
     9     7     5    1
    10    14     1    1
    11     1     3    1
    12     5     3    1
    13     5     6    1
    14     3     4    1
