@<TRIPOS>MOLECULE
2nx1_PEP_A_1.pdb
 10 9 0 0 0
SMALL
GASTEIGER

@<TRIPOS>ATOM
      1  C1        32.6850   51.4930   22.4500 C.2   1268  PEP1268     0.4216
      2  O1        33.4060   52.1300   23.2860 O.co2 1268  PEP1268    -0.2371
      3  O2'       31.5060   51.5280   22.6250 O.co2 1268  PEP1268    -0.2371
      4  C2        33.3230   50.8020   21.2350 C.2   1268  PEP1268     0.2283
      5  C3        34.5890   50.3320   21.2860 C.2   1268  PEP1268     0.0477
      6  O2        32.3290   50.3450   20.3650 O.2   1268  PEP1268    -0.3930
      7  P         32.2970   49.3080   19.1660 P.3   1268  PEP1268     0.5889
      8  O1P       32.9880   48.1100   19.6690 O.3   1268  PEP1268    -0.1039
      9  O2P       33.1130   49.9910   18.1130 O.2   1268  PEP1268    -0.2114
     10  O3P       30.7780   49.2380   18.8390 O.3   1268  PEP1268    -0.1039
@<TRIPOS>BOND
     1     9     7    2
     2    10     7    1
     3     7     8    1
     4     7     6    1
     5     6     4    1
     6     4     5    2
     7     4     1    1
     8     1     3   ar
     9     1     2   ar
