@<TRIPOS>MOLECULE
2nx3_1NT_D_1.pdb
 25 24 0 0 0
SMALL
GASTEIGER

@<TRIPOS>ATOM
      1  O2P       19.2340  -37.1150   16.1000 O.3   268  1NT268     -0.1145
      2  P         20.2120  -37.7300   14.9790 P.3   268  1NT268      0.5348
      3  O3P       21.4520  -38.3610   15.7890 O.3   268  1NT268     -0.1145
      4  O1P       19.5320  -38.7140   14.1070 O.2   268  1NT268     -0.2223
      5  O2        20.8170  -36.4800   14.1630 O.3   268  1NT268     -0.2361
      6  C2        20.5540  -35.1490   14.6130 C.3   268  1NT268      0.3228
      7  C1        21.2370  -34.1380   13.6910 C.2   268  1NT268      0.4183
      8  O1        22.4740  -34.2470   13.5400 O.co2 268  1NT268     -0.2401
      9  O2'       20.5100  -33.2740   13.1540 O.co2 268  1NT268     -0.2401
     10  O3        21.0390  -34.9910   15.9490 O.3   268  1NT268     -0.1826
     11  CI3       19.0390  -34.9370   14.5880 C.3   268  1NT268      0.1068
     12  CA1       18.6510  -33.8480   15.5880 C.3   268  1NT268      0.1903
     13  OA1       19.0000  -32.5640   15.0620 O.3   268  1NT268     -0.2201
     14  CA2       17.1420  -33.9080   15.8240 C.3   268  1NT268      0.2150
     15  OA2       16.7830  -35.2370   16.2110 O.3   268  1NT268     -0.2176
     16  CA3       16.7120  -32.9270   16.9150 C.3   268  1NT268      0.2173
     17  OA3       17.5530  -33.0840   18.0610 O.3   268  1NT268     -0.2175
     18  CA4       15.2600  -33.1990   17.3060 C.3   268  1NT268      0.2147
     19  OA4       14.4270  -33.0740   16.1510 O.3   268  1NT268     -0.2176
     20  CA5       14.7940  -32.2210   18.3850 C.3   268  1NT268      0.1892
     21  OP4       13.4530  -32.5230   18.7740 O.3   268  1NT268     -0.2674
     22  PA        12.6340  -31.4850   19.6900 P.3   268  1NT268      0.5327
     23  OP3       11.4030  -30.9660   18.7920 O.2   268  1NT268     -0.2224
     24  OP1       12.0100  -32.3770   20.8780 O.3   268  1NT268     -0.1145
     25  OP2       13.4810  -30.3800   20.1910 O.3   268  1NT268     -0.1145
@<TRIPOS>BOND
     1     9     7   ar
     2     8     7   ar
     3     7     6    1
     4     4     2    2
     5     5     6    1
     6     5     2    1
     7    11     6    1
     8    11    12    1
     9     6    10    1
    10     2     3    1
    11     2     1    1
    12    13    12    1
    13    12    14    1
    14    14    15    1
    15    14    16    1
    16    19    18    1
    17    16    18    1
    18    16    17    1
    19    18    20    1
    20    20    21    1
    21    21    22    1
    22    23    22    2
    23    22    25    1
    24    22    24    1
