@<TRIPOS>MOLECULE
2nx3_A5P_A_1.pdb
 14 13 0 0 0
SMALL
GASTEIGER

@<TRIPOS>ATOM
      1  C1        33.1390  -57.0960   46.0090 C.2   269  A5P269      0.2427
      2  O1        33.8720  -56.1100   45.9430 O.2   269  A5P269     -0.2854
      3  C2        31.6530  -56.9590   46.3470 C.3   269  A5P269      0.2486
      4  O2        31.1490  -55.7360   45.8030 O.3   269  A5P269     -0.2118
      5  C3        30.8810  -58.1310   45.7400 C.3   269  A5P269      0.2224
      6  O3        31.2700  -59.3410   46.3960 O.3   269  A5P269     -0.2171
      7  C4        31.1540  -58.2450   44.2390 C.3   269  A5P269      0.2151
      8  O4        30.9280  -56.9730   43.6240 O.3   269  A5P269     -0.2176
      9  C5        30.2650  -59.3050   43.5830 C.3   269  A5P269      0.1892
     10  O5        30.5280  -60.6010   44.1290 O.3   269  A5P269     -0.2674
     11  P         29.9140  -61.9340   43.4650 P.3   269  A5P269      0.5327
     12  O1P       29.5000  -62.8880   44.6930 O.3   269  A5P269     -0.1145
     13  O2P       28.5380  -61.5250   42.7350 O.3   269  A5P269     -0.1145
     14  O3P       30.8530  -62.6010   42.5350 O.2   269  A5P269     -0.2224
@<TRIPOS>BOND
     1    14    11    2
     2    13    11    1
     3    11    10    1
     4    11    12    1
     5     9    10    1
     6     9     7    1
     7     8     7    1
     8     7     5    1
     9     5     3    1
    10     5     6    1
    11     4     3    1
    12     2     1    2
    13     1     3    1
