@<TRIPOS>MOLECULE
2nx3_PEP_A_1.pdb
 10 9 0 0 0
SMALL
GASTEIGER

@<TRIPOS>ATOM
      1  C1        34.9990  -53.3820   47.1500 C.2   268  PEP268      0.3919
      2  O1        35.7020  -52.6110   46.4620 O.co2 268  PEP268     -0.2429
      3  O2'       35.4640  -54.2200   47.9540 O.co2 268  PEP268     -0.2429
      4  C2        33.4770  -53.2720   47.0170 C.3   268  PEP268      0.2285
      5  C3        32.6550  -54.1310   47.7370 C.3   268  PEP268      0.0450
      6  O2        32.9660  -52.3370   46.1710 O.3   268  PEP268     -0.2611
      7  P         31.3580  -52.2130   46.1680 P.3   268  PEP268      0.5330
      8  O1P       30.7570  -52.1530   47.5190 O.3   268  PEP268     -0.1145
      9  O2P       30.7840  -53.4110   45.2570 O.2   268  PEP268     -0.2224
     10  O3P       31.0930  -50.8700   45.3210 O.3   268  PEP268     -0.1145
@<TRIPOS>BOND
     1     9     7    2
     2    10     7    1
     3     7     6    1
     4     7     8    1
     5     6     4    1
     6     2     1   ar
     7     4     1    1
     8     4     5    1
     9     1     3   ar
