@<TRIPOS>MOLECULE
2nxe_SAM_A_1.pdb
 27 29 0 0 0
SMALL
GASTEIGER

@<TRIPOS>ATOM
      1  N          4.6180  -23.4910   18.3220 N.3   302  SAM302     -0.1159
      2  CA         5.8630  -22.6180   18.4320 C.3   302  SAM302      0.2168
      3  C          6.7860  -22.8900   17.2570 C.2   302  SAM302      0.3860
      4  O          6.4780  -23.7670   16.4520 O.co2 302  SAM302     -0.2437
      5  OXT        7.8740  -22.2810   17.1320 O.co2 302  SAM302     -0.2437
      6  CB         6.6470  -22.9880   19.6900 C.2   302  SAM302      0.0097
      7  CG         7.3150  -24.3590   19.6980 C.2   302  SAM302      0.0191
      8  SD         8.3660  -24.6970   21.1460 S.3   302  SAM302     -0.1536
      9  CE         9.4370  -25.9740   20.4790 C.3   302  SAM302      0.0636
     10  C5'        7.2930  -25.7050   22.2200 C.3   302  SAM302      0.0847
     11  C4'        6.3960  -24.8670   23.1290 C.3   302  SAM302      0.1625
     12  O4'        5.5640  -25.8370   23.7660 O.3   302  SAM302     -0.3153
     13  C3'        7.1230  -24.0960   24.2320 C.3   302  SAM302      0.2168
     14  O3'        6.6030  -22.7850   24.2710 O.3   302  SAM302     -0.2175
     15  C2'        6.7700  -24.8830   25.5130 C.3   302  SAM302      0.2569
     16  O2'        6.6620  -24.0410   26.6500 O.3   302  SAM302     -0.2130
     17  C1'        5.4510  -25.5510   25.1650 C.3   302  SAM302      0.3185
     18  N9         5.1910  -26.8620   25.7810 N.pl3 302  SAM302     -0.1439
     19  C8         6.0970  -27.8270   26.1730 C.3   302  SAM302      0.3377
     20  N7         5.3980  -28.9040   26.6420 N.2   302  SAM302     -0.2095
     21  C5         4.0670  -28.6270   26.5350 C.2   302  SAM302      0.2526
     22  C6         2.9040  -29.3180   26.8610 C.2   302  SAM302      0.4393
     23  N6         2.9750  -30.5520   27.3720 N.pl3 302  SAM302      0.2180
     24  N1         1.6630  -28.7490   26.6110 N.2   302  SAM302      0.0021
     25  C2         1.5290  -27.4750   26.0820 C.3   302  SAM302      0.5254
     26  N3         2.7000  -26.7980   25.7650 N.2   302  SAM302     -0.0055
     27  C4         3.9250  -27.3480   25.9870 C.2   302  SAM302      0.3518
@<TRIPOS>BOND
     1     4     3   ar
     2     5     3   ar
     3     3     2    1
     4     1     2    1
     5     2     6    1
     6     6     7    2
     7     7     8    1
     8     9     8    1
     9     8    10    1
    10    10    11    1
    11    11    12    1
    12    11    13    1
    13    12    17    1
    14    13    14    1
    15    13    15    1
    16    17    15    1
    17    17    18    1
    18    15    16    1
    19    26    27    2
    20    26    25    1
    21    18    27    1
    22    18    19    1
    23    27    21    1
    24    25    24    1
    25    19    20    1
    26    21    20    2
    27    21    22    1
    28    24    22    2
    29    22    23    1
