@<TRIPOS>MOLECULE
2nxg_A5P_A_1.pdb
 14 13 0 0 0
SMALL
GASTEIGER

@<TRIPOS>ATOM
      1  C1        35.3120   51.7080   18.7870 C.2   1269  A5P1269     0.2427
      2  O1        35.3610   51.2410   17.6500 O.2   1269  A5P1269    -0.2854
      3  C2        34.8280   53.1380   19.0420 C.3   1269  A5P1269     0.2486
      4  O2        35.3250   53.5770   20.3090 O.3   1269  A5P1269    -0.2118
      5  C3        35.3630   54.0610   17.9450 C.3   1269  A5P1269     0.2224
      6  O3        34.5750   53.8900   16.7650 O.3   1269  A5P1269    -0.2171
      7  C4        36.8270   53.7560   17.6230 C.3   1269  A5P1269     0.2151
      8  O4        37.5930   53.6910   18.8290 O.3   1269  A5P1269    -0.2176
      9  C5        37.4220   54.8100   16.6870 C.3   1269  A5P1269     0.1892
     10  O5        38.7850   54.4940   16.3920 O.3   1269  A5P1269    -0.2674
     11  P         39.7080   55.5170   15.5590 P.3   1269  A5P1269     0.5327
     12  O1P       39.5020   55.1550   14.0050 O.2   1269  A5P1269    -0.2224
     13  O2P       39.0830   56.9860   15.7630 O.3   1269  A5P1269    -0.1145
     14  O3P       41.1320   55.4560   15.9560 O.3   1269  A5P1269    -0.1145
@<TRIPOS>BOND
     1    12    11    2
     2    11    13    1
     3    11    14    1
     4    11    10    1
     5    10     9    1
     6     9     7    1
     7     6     5    1
     8     7     5    1
     9     7     8    1
    10     2     1    2
    11     5     3    1
    12     1     3    1
    13     3     4    1
