@<TRIPOS>MOLECULE
2nxg_1NT_B_1.pdb
 25 24 0 0 0
SMALL
GASTEIGER

@<TRIPOS>ATOM
      1  O2P       38.5720   34.2410    9.0890 O.3   2269  1NT2269    -0.1145
      2  P         40.1070   34.7230    9.1270 P.3   2269  1NT2269     0.5348
      3  O3P       40.3480   35.5080    7.7430 O.2   2269  1NT2269    -0.2223
      4  O1P       40.4140   35.5420   10.3210 O.3   2269  1NT2269    -0.1145
      5  O2        41.0220   33.3990    9.0390 O.3   2269  1NT2269    -0.2361
      6  C2        40.4330   32.1270    8.7570 C.3   2269  1NT2269     0.3228
      7  C1        41.5170   31.0460    8.7410 C.2   2269  1NT2269     0.4183
      8  O1        41.4430   30.1510    9.6110 O.co2 2269  1NT2269    -0.2401
      9  O2'       42.4020   31.1420    7.8630 O.co2 2269  1NT2269    -0.2401
     10  O3        39.7750   32.1700    7.4880 O.3   2269  1NT2269    -0.1826
     11  CI3       39.4140   31.8230    9.8560 C.3   2269  1NT2269     0.1068
     12  CA1       38.3020   30.9290    9.3060 C.3   2269  1NT2269     0.1903
     13  OA1       38.7530   29.5740    9.2390 O.3   2269  1NT2269    -0.2201
     14  CA2       37.1040   31.0080   10.2510 C.3   2269  1NT2269     0.2150
     15  OA2       36.7640   32.3860   10.4330 O.3   2269  1NT2269    -0.2176
     16  CA3       35.9040   30.2430    9.6920 C.3   2269  1NT2269     0.2173
     17  OA3       35.5570   30.7640    8.4070 O.3   2269  1NT2269    -0.2175
     18  CA4       34.7070   30.3970   10.6310 C.3   2269  1NT2269     0.2147
     19  OA4       35.0630   29.9290   11.9350 O.3   2269  1NT2269    -0.2176
     20  CA5       33.5010   29.6100   10.1170 C.3   2269  1NT2269     0.1892
     21  OP4       32.3790   29.8610   10.9640 O.3   2269  1NT2269    -0.2674
     22  PA        31.0560   28.9510   10.8710 P.3   2269  1NT2269     0.5327
     23  OP3       30.7470   28.4810   12.3790 O.3   2269  1NT2269    -0.1145
     24  OP1       29.8740   29.9530   10.4320 O.3   2269  1NT2269    -0.1145
     25  OP2       31.2060   27.8130    9.9380 O.2   2269  1NT2269    -0.2224
@<TRIPOS>BOND
     1    10     6    1
     2     3     2    2
     3     9     7   ar
     4    17    16    1
     5     7     6    1
     6     7     8   ar
     7     6     5    1
     8     6    11    1
     9     5     2    1
    10     1     2    1
    11     2     4    1
    12    13    12    1
    13    12    11    1
    14    12    14    1
    15    16    14    1
    16    16    18    1
    17    25    22    2
    18    20    18    1
    19    20    21    1
    20    14    15    1
    21    24    22    1
    22    18    19    1
    23    22    21    1
    24    22    23    1
