@<TRIPOS>MOLECULE
2nxg_PEP_A_1.pdb
 10 9 0 0 0
SMALL
GASTEIGER

@<TRIPOS>ATOM
      1  C1        32.3910   51.7510   22.1440 C.2   1268  PEP1268     0.3919
      2  O1        33.3300   52.2420   22.8070 O.co2 1268  PEP1268    -0.2429
      3  O2'       31.1810   51.9420   22.3940 O.co2 1268  PEP1268    -0.2429
      4  C2        32.7390   50.7630   21.0270 C.3   1268  PEP1268     0.2285
      5  C3        34.0010   50.1800   21.0240 C.3   1268  PEP1268     0.0450
      6  O2        31.7080   50.1740   20.3610 O.3   1268  PEP1268    -0.2611
      7  P         32.1750   49.1790   19.1810 P.3   1268  PEP1268     0.5330
      8  O1P       32.9390   48.0030   19.6530 O.3   1268  PEP1268    -0.1145
      9  O2P       32.9770   50.0670   18.1040 O.2   1268  PEP1268    -0.2224
     10  O3P       30.7990   48.7630   18.4570 O.3   1268  PEP1268    -0.1145
@<TRIPOS>BOND
     1     9     7    2
     2    10     7    1
     3     7     8    1
     4     7     6    1
     5     6     4    1
     6     5     4    1
     7     4     1    1
     8     1     3   ar
     9     1     2   ar
