@<TRIPOS>MOLECULE
2nxh_PEP_A_1.pdb
 10 9 0 0 0
SMALL
GASTEIGER

@<TRIPOS>ATOM
      1  C1        34.8240  -53.2260   46.9940 C.2   1268  PEP1268     0.4216
      2  O1        35.5360  -54.0850   47.5730 O.co2 1268  PEP1268    -0.2371
      3  O2'       35.3570  -52.2120   46.4560 O.co2 1268  PEP1268    -0.2371
      4  C2        33.3400  -53.4070   46.9540 C.2   1268  PEP1268     0.2283
      5  C3        32.7100  -54.3800   47.5970 C.2   1268  PEP1268     0.0477
      6  O2        32.7240  -52.4240   46.1980 O.2   1268  PEP1268    -0.3930
      7  P         31.1780  -52.0280   45.9650 P.3   1268  PEP1268     0.5889
      8  O1P       30.6200  -51.9010   47.3740 O.3   1268  PEP1268    -0.1039
      9  O2P       30.5380  -53.1590   45.1290 O.2   1268  PEP1268    -0.2114
     10  O3P       31.3110  -50.7280   45.1590 O.3   1268  PEP1268    -0.1039
@<TRIPOS>BOND
     1     9     7    2
     2    10     7    1
     3     7     6    1
     4     7     8    1
     5     6     4    1
     6     3     1   ar
     7     4     1    1
     8     4     5    2
     9     1     2   ar
