@<TRIPOS>MOLECULE
2nxi_PEP_A_1.pdb
 10 9 0 0 0
SMALL
GASTEIGER

@<TRIPOS>ATOM
      1  C1        35.1120  -53.6610   47.1180 C.2   268  PEP268      0.4216
      2  O1        35.8650  -54.4710   47.7180 O.co2 268  PEP268     -0.2371
      3  O2'       35.6120  -52.6440   46.5460 O.co2 268  PEP268     -0.2371
      4  C2        33.6320  -53.9060   47.0710 C.2   268  PEP268      0.2283
      5  C3        32.9910  -54.9090   47.6360 C.2   268  PEP268      0.0477
      6  O2        32.9930  -52.9550   46.3060 O.2   268  PEP268     -0.3930
      7  P         31.4770  -52.4660   46.1320 P.3   268  PEP268      0.5889
      8  O1P       30.8960  -52.1560   47.5230 O.3   268  PEP268     -0.1039
      9  O2P       30.7810  -53.5880   45.3670 O.3   268  PEP268     -0.1039
     10  O3P       31.8040  -51.2920   45.2310 O.2   268  PEP268     -0.2114
@<TRIPOS>BOND
     1    10     7    2
     2     9     7    1
     3     7     6    1
     4     7     8    1
     5     6     4    1
     6     3     1   ar
     7     4     1    1
     8     4     5    2
     9     1     2   ar
