@<TRIPOS>MOLECULE
2nxw_TPP_A_1.pdb
 26 27 0 0 0
SMALL
GASTEIGER

@<TRIPOS>ATOM
      1  N1'       29.2330   10.2960   43.1770 N.2   2002  TPP2002    -0.1861
      2  C2'       28.8280    9.8880   41.9640 C.1   2002  TPP2002     0.0663
      3  CM2       28.1450   10.8770   41.0320 C.3   2002  TPP2002     0.1291
      4  N3'       29.0250    8.6280   41.5640 N.2   2002  TPP2002    -0.3368
      5  C4'       29.6370    7.7040   42.3580 C.2   2002  TPP2002     0.2292
      6  N4'       29.8710    6.4540   41.8710 N.pl3 2002  TPP2002    -0.0925
      7  C5'       30.0290    8.0740   43.6850 C.2   2002  TPP2002     0.0654
      8  C6'       29.8260    9.4190   44.0560 C.2   2002  TPP2002     0.1115
      9  C7'       30.6860    7.0850   44.6750 C.3   2002  TPP2002     0.1237
     10  N3        29.7580    5.9540   45.1360 N.pl3 2002  TPP2002    -0.2970
     11  C2        29.8740    4.7590   44.5500 C.3   2002  TPP2002     0.1543
     12  S1        28.6930    3.7590   45.3750 S.3   2002  TPP2002    -0.0951
     13  C5        28.1000    4.9830   46.4930 C.2   2002  TPP2002     0.0164
     14  C4        28.8570    6.1060   46.1700 C.2   2002  TPP2002     0.0279
     15  CM4       28.6660    7.4460   46.9330 C.3   2002  TPP2002     0.0473
     16  C6        27.0430    4.7770   47.5030 C.3   2002  TPP2002     0.0661
     17  C7        25.6960    4.5370   46.7960 C.3   2002  TPP2002     0.1544
     18  O7        24.7350    4.5770   47.8200 O.3   2002  TPP2002    -0.3134
     19  PA        23.3250    4.0350   47.3450 P.3   2002  TPP2002     0.2230
     20  O1A       22.7740    4.7740   46.1290 O.2   2002  TPP2002    -0.5169
     21  O2A       22.4210    4.2180   48.5630 O.3   2002  TPP2002    -0.4370
     22  O3A       23.3780    2.4840   46.9870 O.3   2002  TPP2002    -0.2261
     23  PB        24.0650    1.3910   48.0230 P.3   2002  TPP2002     0.5373
     24  O1B       23.6150    1.6720   49.4580 O.3   2002  TPP2002    -0.1143
     25  O2B       23.5560    0.0180   47.4970 O.2   2002  TPP2002    -0.2221
     26  O3B       25.5810    1.4310   47.9010 O.3   2002  TPP2002    -0.1143
@<TRIPOS>BOND
     1     3     2    1
     2     4     2    2
     3     4     5    2
     4     6     5    1
     5     2     1    2
     6     5     7    1
     7     1     8    1
     8     7     8    2
     9     7     9    1
    10    11    10    1
    11    11    12    1
    12     9    10    1
    13    10    14    1
    14    12    13    1
    15    20    19    2
    16    14    13    2
    17    14    15    1
    18    13    16    1
    19    17    16    1
    20    17    18    1
    21    22    19    1
    22    22    23    1
    23    19    18    1
    24    19    21    1
    25    25    23    2
    26    26    23    1
    27    23    24    1
