@<TRIPOS>MOLECULE
2nxx_P1A_E_1.pdb
 33 36 0 0 0
SMALL
GASTEIGER

@<TRIPOS>ATOM
      1  C5        30.3770    5.0180   19.3700 C.3     5  P1A5        0.0649
      2  C10       28.8840    4.9680   18.7880 C.3     5  P1A5        0.0130
      3  C1        28.0840    3.8910   19.5510 C.3     5  P1A5        0.0363
      4  C2        28.7350    2.5090   19.4050 C.3     5  P1A5        0.1821
      5  C3        30.2380    2.4780   19.9470 C.3     5  P1A5        0.1825
      6  C4        31.0970    3.5940   19.1870 C.3     5  P1A5        0.0432
      7  C9        29.0000    4.6490   17.1550 C.3     5  P1A5        0.0212
      8  C19       28.1570    6.3380   19.0160 C.3     5  P1A5        0.0008
      9  C11       27.5290    4.6030   16.5450 C.3     5  P1A5        0.0042
     10  C8        29.9210    5.7850   16.4850 C.2     5  P1A5       -0.0146
     11  C12       27.3170    5.0380   15.0820 C.3     5  P1A5        0.0031
     12  C14       29.6250    6.1030   15.0280 C.3     5  P1A5        0.1417
     13  C13       28.0720    6.3590   14.6240 C.3     5  P1A5        0.0316
     14  C18       27.4780    7.6420   15.3480 C.3     5  P1A5        0.0028
     15  C17       28.3750    6.5910   13.0930 C.3     5  P1A5        0.0332
     16  O14       30.1240    4.9070   14.3220 O.3     5  P1A5       -0.2215
     17  C15       30.4270    7.2030   14.3130 C.3     5  P1A5        0.0344
     18  C20       27.2340    6.9800   12.0350 C.3     5  P1A5        0.1545
     19  C16       29.6240    7.5770   13.0790 C.3     5  P1A5        0.0055
     20  C22       27.8450    7.1420   10.6020 C.3     5  P1A5        0.1796
     21  O20       26.6700    8.2760   12.3720 O.3     5  P1A5       -0.2231
     22  C21       26.0350    5.9650   12.0510 C.3     5  P1A5        0.0356
     23  C6        31.2170    6.0910   18.6060 C.2     5  P1A5        0.1722
     24  C7        30.9330    6.4170   17.1970 C.2     5  P1A5        0.0313
     25  O3        30.2900    2.7670   21.3700 O.3     5  P1A5       -0.2204
     26  O2        27.9680    1.5280   20.1040 O.3     5  P1A5       -0.2204
     27  O22       26.7720    7.4930    9.7400 O.3     5  P1A5       -0.2205
     28  C23       28.5370    5.8710    9.9660 C.3     5  P1A5        0.0355
     29  C24       29.0690    6.2390    8.5760 C.3     5  P1A5        0.0027
     30  C25       29.9960    5.3490    7.9000 C.3     5  P1A5        0.0001
     31  C26       31.4260    5.4840    8.5660 C.3     5  P1A5        0.0000
     32  C27       30.0720    5.6920    6.4420 C.3     5  P1A5        0.0000
     33  O6        32.1180    6.6730   19.1560 O.2     5  P1A5       -0.2914
@<TRIPOS>BOND
     1    32    30    1
     2    30    31    1
     3    30    29    1
     4    29    28    1
     5    27    20    1
     6    28    20    1
     7    20    18    1
     8    18    22    1
     9    18    21    1
    10    18    15    1
    11    19    15    1
    12    19    17    1
    13    15    13    1
    14    17    12    1
    15    16    12    1
    16    13    12    1
    17    13    11    1
    18    13    14    1
    19    12    10    1
    20    11     9    1
    21    10     7    1
    22    10    24    2
    23     9     7    1
    24     7     2    1
    25    24    23    1
    26    23    33    2
    27    23     1    1
    28     2     8    1
    29     2     1    1
    30     2     3    1
    31     6     1    1
    32     6     5    1
    33     4     3    1
    34     4     5    1
    35     4    26    1
    36     5    25    1
