@<TRIPOS>MOLECULE
2nya_MGD_A_1.pdb
 47 52 0 0 0
SMALL
GASTEIGER

@<TRIPOS>ATOM
      1  PB        -0.7250    6.9920   47.3270 P.3   3001  MGD3001     0.2189
      2  O1B        0.6860    7.1310   47.8700 O.3   3001  MGD3001    -0.4371
      3  O2B       -1.0870    7.4740   45.9280 O.2   3001  MGD3001    -0.5170
      4  O3B       -1.1130    5.4340   47.3490 O.3   3001  MGD3001    -0.2703
      5  O3A       -0.4800    3.1760   48.1550 O.3   3001  MGD3001    -0.3109
      6  PA        -1.1080    4.5600   48.6830 P.3   3001  MGD3001     0.2189
      7  O1A       -2.5610    4.3470   49.0500 O.2   3001  MGD3001    -0.5170
      8  O2A       -0.1590    5.1130   49.7410 O.3   3001  MGD3001    -0.4371
      9  O5'       -1.6620    7.6200   48.4470 O.3   3001  MGD3001    -0.3112
     10  C5'       -1.2690    8.8160   49.1570 C.3   3001  MGD3001     0.1813
     11  C4'       -2.5060    9.7100   49.3360 C.3   3001  MGD3001     0.1799
     12  O4'       -2.3820   10.7780   50.2870 O.3   3001  MGD3001    -0.3326
     13  C3'       -2.8020   10.4080   48.0280 C.3   3001  MGD3001     0.2158
     14  O3'       -4.2180   10.2710   47.7970 O.3   3001  MGD3001    -0.2175
     15  C2'       -2.4490   11.8550   48.2740 C.3   3001  MGD3001     0.2310
     16  O2'       -3.4160   12.6010   47.5850 O.3   3001  MGD3001    -0.2158
     17  C1'       -2.7760   12.0420   49.7270 C.3   3001  MGD3001     0.2293
     18  N9        -1.9220   12.9210   50.5000 N.pl3 3001  MGD3001    -0.2354
     19  C8        -0.7930   13.5590   50.1560 C.3   3001  MGD3001     0.2246
     20  N7        -0.2860   14.2110   51.2450 N.2   3001  MGD3001    -0.2322
     21  C5        -1.0880   13.9740   52.3050 C.2   3001  MGD3001     0.2182
     22  C6        -1.1400   14.3200   53.7510 C.1   3001  MGD3001     0.2372
     23  O6        -0.2590   15.0350   54.2980 O.2   3001  MGD3001    -0.2069
     24  N1        -2.1840   13.8310   54.4600 N.2   3001  MGD3001    -0.2485
     25  C2        -3.1570   13.0550   53.9280 C.1   3001  MGD3001     0.2531
     26  N2        -4.1690   12.6130   54.6930 N.pl3 3001  MGD3001    -0.0226
     27  N3        -3.1490   12.6840   52.6380 N.2   3001  MGD3001    -0.3074
     28  C4        -2.1610   13.1050   51.7980 C.2   3001  MGD3001     0.2300
     29  C10        0.9180    2.8800   48.2730 C.3   3001  MGD3001     0.1837
     30  C11        1.1620    1.3700   48.2140 C.3   3001  MGD3001     0.1762
     31  O11        0.5560    0.8550   47.0280 O.3   3001  MGD3001    -0.3271
     32  C12        2.6150    0.9500   48.2800 C.2   3001  MGD3001     0.0473
     33  S12        3.7380    1.7610   49.2660 S.2   3001  MGD3001    -0.0526
     34  C13        3.0170   -0.1280   47.6290 C.2   3001  MGD3001     0.0449
     35  S13        4.6360   -0.5860   47.6920 S.2   3001  MGD3001    -0.0530
     36  C14        2.0820   -0.9920   46.8460 C.3   3001  MGD3001     0.1850
     37  N15        2.4670   -1.0140   45.4450 N.2   3001  MGD3001    -0.2411
     38  C16        1.6440   -1.5550   44.5310 C.2   3001  MGD3001     0.2467
     39  C17        2.0960   -2.1660   43.2530 C.1   3001  MGD3001     0.2441
     40  O17        3.3080   -2.1930   42.9460 O.2   3001  MGD3001    -0.2063
     41  N18        1.1830   -2.6840   42.4300 N.2   3001  MGD3001    -0.2474
     42  C19       -0.1370   -2.6410   42.7410 C.1   3001  MGD3001     0.2608
     43  N19       -1.0640   -3.1600   41.9150 N.pl3 3001  MGD3001    -0.0220
     44  N20       -0.5980   -2.0870   43.8850 N.2   3001  MGD3001    -0.2682
     45  C21        0.2090   -1.5560   44.8140 C.1   3001  MGD3001     0.1293
     46  N22       -0.2730   -1.0480   45.9790 N.2   3001  MGD3001    -0.1763
     47  C23        0.6120   -0.5690   47.0290 C.3   3001  MGD3001     0.2573
@<TRIPOS>BOND
     1    43    42    1
     2    41    42    2
     3    41    39    2
     4    42    44    2
     5    40    39    2
     6    39    38    1
     7    44    45    2
     8    38    45    1
     9    38    37    2
    10    45    46    2
    11    37    36    1
    12     3     1    2
    13    46    47    1
    14    36    47    1
    15    36    34    1
    16    31    47    1
    17    31    30    1
    18     1     4    1
    19     1     2    1
    20     1     9    1
    21     4     6    1
    22    16    15    1
    23    34    35    2
    24    34    32    1
    25    14    13    1
    26    13    15    1
    27    13    11    1
    28     5    29    1
    29     5     6    1
    30    30    29    1
    31    30    32    1
    32    15    17    1
    33    32    33    2
    34     9    10    1
    35     6     7    2
    36     6     8    1
    37    10    11    1
    38    11    12    1
    39    17    12    1
    40    17    18    1
    41    19    18    1
    42    19    20    1
    43    18    28    1
    44    20    21    2
    45    28    21    1
    46    28    27    2
    47    21    22    1
    48    27    25    2
    49    22    23    2
    50    22    24    2
    51    25    24    2
    52    25    26    1
