@<TRIPOS>MOLECULE
2nyg_COA_A_1.pdb
 42 44 0 0 0
SMALL
GASTEIGER

@<TRIPOS>ATOM
      1  N1A       38.0780   39.1980  114.1360 N.2   301  COA301      0.0021
      2  C2A       39.0430   40.1710  114.4260 C.3   301  COA301      0.5254
      3  N3A       39.5800   40.9090  113.3910 N.2   301  COA301     -0.0055
      4  C4A       39.1780   40.6930  112.0900 C.2   301  COA301      0.3518
      5  C5A       38.2070   39.7310  111.7540 C.2   301  COA301      0.2526
      6  C6A       37.6560   38.9680  112.7970 C.2   301  COA301      0.4393
      7  N6A       36.7400   38.0420  112.5460 N.pl3 301  COA301      0.2180
      8  N7A       38.0230   39.7570  110.4010 N.2   301  COA301     -0.2095
      9  C8A       38.8530   40.7140  109.8900 C.3   301  COA301      0.3377
     10  N9A       39.5730   41.2940  110.9550 N.pl3 301  COA301     -0.1439
     11  C1B       40.6040   42.3590  110.9420 C.3   301  COA301      0.3185
     12  C2B       41.2980   42.6710  109.5850 C.3   301  COA301      0.2543
     13  O2B       42.2260   41.6580  109.1410 O.3   301  COA301     -0.2131
     14  C3B       41.9730   44.0000  109.8710 C.3   301  COA301      0.1928
     15  O3B       43.2540   43.6210  110.4620 O.3   301  COA301     -0.2673
     16  P3B       44.7130   44.1920  109.9980 P.3   301  COA301      0.5327
     17  O7A       44.5450   45.2390  108.8690 O.2   301  COA301     -0.2224
     18  O8A       45.5360   43.0700  109.4110 O.3   301  COA301     -0.1145
     19  O9A       45.4050   44.7650  111.2090 O.3   301  COA301     -0.1145
     20  C4B       41.0220   44.7080  110.8740 C.3   301  COA301      0.1795
     21  O4B       40.2260   43.6500  111.4540 O.3   301  COA301     -0.3136
     22  C5B       40.0620   45.7630  110.2270 C.3   301  COA301      0.1812
     23  O5B       39.2610   46.3080  111.3180 O.3   301  COA301     -0.3112
     24  P1A       39.0710   47.8770  111.4570 P.3   301  COA301      0.2189
     25  O1A       38.2470   48.2120  112.6570 O.3   301  COA301     -0.4371
     26  O2A       38.4420   48.4490  110.1790 O.2   301  COA301     -0.5170
     27  O3A       40.5380   48.3680  111.5470 O.3   301  COA301     -0.2703
     28  P2A       41.4950   48.2910  112.8330 P.3   301  COA301      0.2188
     29  O4A       42.6890   47.4840  112.4670 O.2   301  COA301     -0.5170
     30  O5A       40.8230   47.6880  114.0630 O.3   301  COA301     -0.4371
     31  O6A       41.7620   49.8870  113.0190 O.3   301  COA301     -0.3138
     32  CBP       40.4800   51.9740  113.6730 C.3   301  COA301      0.0645
     33  CCP       41.1530   50.6300  114.0820 C.3   301  COA301      0.1519
     34  CDP       41.1050   52.5260  112.3680 C.3   301  COA301      0.0056
     35  CEP       38.9700   51.6820  113.5220 C.3   301  COA301      0.0056
     36  CAP       40.8420   53.0510  114.7520 C.3   301  COA301      0.2312
     37  OAP       41.7260   52.4200  115.7070 O.3   301  COA301     -0.2131
     38  C9P       39.6410   53.6530  115.5220 C.2   301  COA301      0.2719
     39  O9P       39.6570   53.4570  116.8700 O.2   301  COA301     -0.2706
     40  N8P       38.5900   54.3210  114.9790 N.am  301  COA301     -0.2033
     41  C7P       37.4010   54.6920  115.7790 C.3   301  COA301      0.1153
     42  C6P       36.0200   54.4550  115.1510 C.3   301  COA301      0.0253
@<TRIPOS>BOND
     1    17    16    2
     2    13    12    1
     3    18    16    1
     4    12    14    1
     5    12    11    1
     6    14    15    1
     7    14    20    1
     8     9     8    1
     9     9    10    1
    10    16    15    1
    11    16    19    1
    12    26    24    2
    13    22    20    1
    14    22    23    1
    15     8     5    2
    16    20    21    1
    17    11    10    1
    18    11    21    1
    19    10     4    1
    20    23    24    1
    21    24    27    1
    22    24    25    1
    23    27    28    1
    24     5     4    1
    25     5     6    1
    26     4     3    2
    27    34    32    1
    28    29    28    2
    29     7     6    1
    30     6     1    2
    31    28    31    1
    32    28    30    1
    33    31    33    1
    34     3     2    1
    35    35    32    1
    36    32    33    1
    37    32    36    1
    38     1     2    1
    39    36    38    1
    40    36    37    1
    41    40    38   am
    42    40    41    1
    43    42    41    1
    44    38    39    2
