@<TRIPOS>MOLECULE
2nyj_ATP_A_1.pdb
 31 33 0 0 0
SMALL
GASTEIGER

@<TRIPOS>ATOM
      1  PG       -15.3100  -30.4340  -32.3230 P.3     1  ATP1        0.5373
      2  O1G      -14.2080  -31.3350  -32.8580 O.3     1  ATP1       -0.1143
      3  O2G      -15.9550  -30.9000  -31.0360 O.3     1  ATP1       -0.1143
      4  O3G      -16.3350  -29.9920  -33.3490 O.2     1  ATP1       -0.2221
      5  PB       -12.9980  -29.0620  -31.3660 P.3     1  ATP1        0.2277
      6  O1B      -12.0340  -29.2950  -32.5050 O.2     1  ATP1       -0.5168
      7  O2B      -12.8460  -27.8040  -30.5410 O.3     1  ATP1       -0.4368
      8  O3B      -14.5270  -29.0790  -31.9050 O.3     1  ATP1       -0.2258
      9  PA       -13.0600  -30.2960  -28.8320 P.3     1  ATP1        0.2189
     10  O1A      -14.5460  -30.2550  -28.5360 O.2     1  ATP1       -0.5170
     11  O2A      -12.1190  -29.2430  -28.3000 O.3     1  ATP1       -0.4371
     12  O3A      -12.8840  -30.3720  -30.4290 O.3     1  ATP1       -0.2700
     13  O5'      -12.4670  -31.6990  -28.3440 O.3     1  ATP1       -0.3112
     14  C5'      -13.1830  -32.8850  -28.6330 C.3     1  ATP1        0.1813
     15  C4'      -12.3610  -33.6350  -29.6560 C.3     1  ATP1        0.1821
     16  O4'      -11.4750  -34.5460  -29.0070 O.3     1  ATP1       -0.3135
     17  C3'      -13.2790  -34.4250  -30.5610 C.3     1  ATP1        0.2184
     18  O3'      -12.9860  -34.0440  -31.9080 O.3     1  ATP1       -0.2174
     19  C2'      -12.9630  -35.8820  -30.2960 C.3     1  ATP1        0.2570
     20  O2'      -12.4640  -36.5310  -31.4610 O.3     1  ATP1       -0.2130
     21  C1'      -11.8770  -35.8950  -29.2400 C.3     1  ATP1        0.3186
     22  N9       -12.3980  -36.4870  -27.9820 N.pl3   1  ATP1       -0.1439
     23  C8       -13.6690  -36.4570  -27.5100 C.3     1  ATP1        0.3377
     24  N7       -13.7830  -37.1030  -26.3180 N.2     1  ATP1       -0.2095
     25  C5       -12.5550  -37.5550  -26.0250 C.2     1  ATP1        0.2526
     26  C6       -11.9450  -38.3200  -24.9230 C.2     1  ATP1        0.4393
     27  N6       -12.7140  -38.7270  -23.8910 N.pl3   1  ATP1        0.2180
     28  N1       -10.6130  -38.5910  -24.9850 N.2     1  ATP1        0.0021
     29  C2        -9.8470  -38.1860  -26.0200 C.3     1  ATP1        0.5254
     30  N3       -10.3350  -37.4840  -27.0570 N.2     1  ATP1       -0.0055
     31  C4       -11.6480  -37.1500  -27.1120 C.2     1  ATP1        0.3518
@<TRIPOS>BOND
     1     4     1    2
     2     2     1    1
     3     6     5    2
     4     1     8    1
     5     1     3    1
     6    18    17    1
     7     8     5    1
     8    20    19    1
     9     5     7    1
    10     5    12    1
    11    17    19    1
    12    17    15    1
    13    12     9    1
    14    19    21    1
    15    15    16    1
    16    15    14    1
    17    21    16    1
    18    21    22    1
    19     9    10    2
    20     9    13    1
    21     9    11    1
    22    14    13    1
    23    22    23    1
    24    22    31    1
    25    23    24    1
    26    31    30    2
    27    31    25    1
    28    30    29    1
    29    24    25    2
    30    25    26    1
    31    29    28    1
    32    28    26    2
    33    26    27    1
