@<TRIPOS>MOLECULE
2nyk_FUC_A_1.pdb
 10 10 0 0 0
SMALL
GASTEIGER

@<TRIPOS>ATOM
      1  C1         6.8530   42.2910   11.5530 C.3   306  FUC306      0.1776
      2  C2         5.4400   41.7550   11.7990 C.3   306  FUC306      0.2141
      3  C3         5.5430   40.3000   12.2580 C.3   306  FUC306      0.2172
      4  C4         6.3440   40.2420   13.5630 C.3   306  FUC306      0.2116
      5  C5         7.7220   40.8970   13.3510 C.3   306  FUC306      0.1483
      6  C6         8.5310   40.9920   14.6440 C.3   306  FUC306      0.0349
      7  O2         4.6520   41.8440   10.6310 O.3   306  FUC306     -0.2176
      8  O3         4.2540   39.7180   12.3760 O.3   306  FUC306     -0.2175
      9  O4         5.6390   40.8890   14.6010 O.3   306  FUC306     -0.2177
     10  O5         7.6080   42.1960   12.7580 O.3   306  FUC306     -0.3508
@<TRIPOS>BOND
     1     7     2    1
     2     1     2    1
     3     1    10    1
     4     2     3    1
     5     3     8    1
     6     3     4    1
     7    10     5    1
     8     5     4    1
     9     5     6    1
    10     4     9    1
