@<TRIPOS>MOLECULE
2nyu_SAM_A_1.pdb
 27 29 0 0 0
SMALL
GASTEIGER

@<TRIPOS>ATOM
      1  N         49.0840   19.5690   16.8950 N.3   201  SAM201     -0.1208
      2  CA        49.7500   18.2310   16.8910 C.3   201  SAM201      0.1952
      3  C         49.1990   17.3870   18.0010 C.2   201  SAM201      0.3819
      4  O         49.4660   16.1590   18.0570 O.co2 201  SAM201     -0.2441
      5  OXT       48.4220   17.9170   18.8460 O.co2 201  SAM201     -0.2441
      6  CB        51.2730   18.3220   17.0770 C.3   201  SAM201      0.0414
      7  CG        51.8550   18.9870   15.8180 C.3   201  SAM201      0.0503
      8  SD        53.6900   18.9540   15.7830 S.3   201  SAM201     -0.1761
      9  CE        54.0210   20.2150   17.0230 C.3   201  SAM201      0.0590
     10  C5'       54.1280   19.8490   14.2650 C.3   201  SAM201      0.0806
     11  C4'       53.7830   19.0050   13.0310 C.3   201  SAM201      0.1622
     12  O4'       53.7750   19.8220   11.8370 O.3   201  SAM201     -0.3153
     13  C3'       54.8020   17.8780   12.7540 C.3   201  SAM201      0.2168
     14  O3'       54.1520   16.6530   12.9790 O.3   201  SAM201     -0.2175
     15  C2'       55.1560   18.0960   11.2560 C.3   201  SAM201      0.2569
     16  O2'       55.3810   16.8840   10.5260 O.3   201  SAM201     -0.2130
     17  C1'       53.9740   18.9490   10.7530 C.3   201  SAM201      0.3185
     18  N9        54.2940   19.7400    9.5750 N.pl3 201  SAM201     -0.1439
     19  C8        55.3470   20.6370    9.4000 C.3   201  SAM201      0.3377
     20  N7        55.2670   21.1300    8.1310 N.2   201  SAM201     -0.2095
     21  C5        54.2240   20.5380    7.4920 C.2   201  SAM201      0.2526
     22  C6        53.6970   20.6010    6.1450 C.2   201  SAM201      0.4393
     23  N6        54.2020   21.3950    5.1900 N.pl3 201  SAM201      0.2180
     24  N1        52.5630   19.8710    5.8610 N.2   201  SAM201      0.0021
     25  C2        52.0160   19.0150    6.7570 C.3   201  SAM201      0.5254
     26  N3        52.5310   18.9390    8.0510 N.2   201  SAM201     -0.0055
     27  C4        53.6260   19.6620    8.3840 C.2   201  SAM201      0.3518
@<TRIPOS>BOND
     1    23    22    1
     2    24    22    2
     3    24    25    1
     4    22    21    1
     5    25    26    1
     6    21    20    2
     7    21    27    1
     8    26    27    2
     9    20    19    1
    10    27    18    1
    11    19    18    1
    12    18    17    1
    13    16    15    1
    14    17    15    1
    15    17    12    1
    16    15    13    1
    17    12    11    1
    18    13    14    1
    19    13    11    1
    20    11    10    1
    21    10     8    1
    22     8     7    1
    23     8     9    1
    24     7     6    1
    25     2     1    1
    26     2     6    1
    27     2     3    1
    28     3     4   ar
    29     3     5   ar
