@<TRIPOS>MOLECULE
2nz2_CIR_A_1.pdb
 12 11 0 0 0
SMALL
GASTEIGER

@<TRIPOS>ATOM
      1  C1         6.1930   32.7890   22.0410 C.2   502  CIR502      0.3819
      2  O1         5.5960   32.2410   22.9910 O.co2 502  CIR502     -0.2441
      3  O2         6.6870   33.9200   22.1580 O.co2 502  CIR502     -0.2441
      4  C2         6.2840   32.0340   20.7490 C.3   502  CIR502      0.1944
      5  N2         5.9360   30.6370   21.0320 N.3   502  CIR502     -0.1208
      6  C3         5.3000   32.5950   19.7270 C.3   502  CIR502      0.0324
      7  C4         3.8540   32.6450   20.2360 C.3   502  CIR502      0.0256
      8  C5         3.0650   33.6810   19.4660 C.3   502  CIR502      0.1169
      9  N6         2.9980   33.3250   18.0570 N.am  502  CIR502     -0.1859
     10  C7         1.8510   33.0010   17.4480 C.2   502  CIR502      0.3589
     11  O7         0.7710   33.0740   17.9980 O.2   502  CIR502     -0.2474
     12  N8         1.9070   32.5790   16.1960 N.am  502  CIR502     -0.0679
@<TRIPOS>BOND
     1    12    10   am
     2    10    11    2
     3    10     9   am
     4     9     8    1
     5     8     7    1
     6     6     7    1
     7     6     4    1
     8     4     5    1
     9     4     1    1
    10     1     3   ar
    11     1     2   ar
