@<TRIPOS>MOLECULE
2nz5_HEM_A_1.pdb
 43 50 0 0 0
SMALL
GASTEIGER

@<TRIPOS>ATOM
      1  CHA      -26.0130  -20.9360   20.2970 C.2   430  HEM430      0.0000
      2  CHB      -27.6350  -18.7590   16.2970 C.2   430  HEM430      0.0000
      3  CHC      -32.0520  -20.5860   17.1080 C.2   430  HEM430      0.0000
      4  CHD      -30.4240  -22.6850   21.1380 C.2   430  HEM430      0.0000
      5  C1A      -26.0470  -20.1990   19.1350 C.ar  430  HEM430      0.0000
      6  C2A      -24.9210  -19.4990   18.5450 C.ar  430  HEM430      0.0000
      7  C3A      -25.3580  -18.8850   17.4420 C.ar  430  HEM430      0.0000
      8  C4A      -26.7810  -19.1890   17.2920 C.ar  430  HEM430      0.0000
      9  CMA      -24.5320  -18.0100   16.4830 C.3   430  HEM430      0.0000
     10  CAA      -23.4960  -19.5020   19.1350 C.3   430  HEM430      0.0000
     11  CBA      -23.2280  -18.3830   20.1230 C.3   430  HEM430      0.0000
     12  CGA      -21.7470  -18.2500   20.4420 C.2   430  HEM430      0.0000
     13  O1A      -21.2450  -17.1130   20.1720 O.co2 430  HEM430      0.0000
     14  O2A      -21.1420  -19.2190   20.9180 O.co2 430  HEM430      0.0000
     15  C1B      -28.9850  -19.0500   16.1610 C.2   430  HEM430      0.0000
     16  C2B      -29.8480  -18.5510   15.0910 C.2   430  HEM430      0.0000
     17  C3B      -31.1010  -19.0660   15.3180 C.2   430  HEM430      0.0000
     18  C4B      -31.0150  -19.8780   16.5140 C.2   430  HEM430      0.0000
     19  CMB      -29.3850  -17.6220   13.9500 C.3   430  HEM430      0.0000
     20  CAB      -32.4220  -18.8660   14.5020 C.3   430  HEM430      0.0000
     21  CBB      -32.3120  -19.1670   12.9960 C.3   430  HEM430      0.0000
     22  C1C      -31.9840  -21.3320   18.2760 C.ar  430  HEM430      0.0000
     23  C2C      -33.1260  -22.0460   18.8690 C.ar  430  HEM430      0.0000
     24  C3C      -32.6830  -22.6280   19.9940 C.ar  430  HEM430      0.0000
     25  C4C      -31.2710  -22.2980   20.1200 C.ar  430  HEM430      0.0000
     26  CMC      -34.5560  -22.0660   18.2630 C.3   430  HEM430      0.0000
     27  CAC      -33.4520  -23.4900   21.0440 C.3   430  HEM430      0.0000
     28  CBC      -34.0310  -24.8260   20.5400 C.3   430  HEM430      0.0000
     29  C1D      -29.0900  -22.3960   21.2810 C.2   430  HEM430      0.0000
     30  C2D      -28.2230  -22.8220   22.3770 C.2   430  HEM430      0.0000
     31  C3D      -26.9790  -22.3390   22.1340 C.2   430  HEM430      0.0000
     32  C4D      -27.0620  -21.5970   20.8940 C.2   430  HEM430      0.0000
     33  CMD      -28.6770  -23.6770   23.5860 C.3   430  HEM430      0.0000
     34  CAD      -25.7190  -22.5410   23.0060 C.3   430  HEM430      0.0000
     35  CBD      -24.9720  -23.8320   22.5050 C.3   430  HEM430      0.0000
     36  CGD      -23.6900  -24.1740   23.2530 C.2   430  HEM430      0.0000
     37  O1D      -22.8800  -23.2760   23.5700 O.co2 430  HEM430      0.0000
     38  O2D      -23.5260  -25.4020   23.4840 O.co2 430  HEM430      0.0000
     39  NA       -27.1630  -20.0000   18.3420 N.ar  430  HEM430      0.0000
     40  NB       -29.7310  -19.8480   17.0180 N.2   430  HEM430      0.0000
     41  NC       -30.8620  -21.5060   19.0440 N.ar  430  HEM430      0.0000
     42  ND       -28.3630  -21.6240   20.3570 N.2   430  HEM430      0.0000
     43 FE        -29.0170  -20.7620   18.6780 Fe    430  HEM430      0.0000
@<TRIPOS>BOND
     1    21    20    1
     2    19    16    1
     3    20    17    1
     4    16    17    2
     5    16    15    1
     6    17    18    1
     7    15     2    1
     8    15    40    2
     9     2     8    2
    10     9     7    1
    11    18    40    1
    12    18     3    2
    13    40    43    1
    14     3    22    1
    15     8     7   ar
    16     8    39   ar
    17     7     6   ar
    18    26    23    1
    19    22    23   ar
    20    22    41   ar
    21    39    43    1
    22    39     5   ar
    23     6    10    1
    24     6     5   ar
    25    43    41    1
    26    43    42    1
    27    23    24   ar
    28    41    25   ar
    29    10    11    1
    30     5     1    2
    31    24    25   ar
    32    24    27    1
    33    25     4    1
    34    11    12    1
    35    13    12   ar
    36     1    32    1
    37    42    32    2
    38    42    29    1
    39    12    14   ar
    40    28    27    1
    41    32    31    1
    42     4    29    2
    43    29    30    1
    44    31    30    2
    45    31    34    1
    46    30    33    1
    47    35    34    1
    48    35    36    1
    49    36    38   ar
    50    36    37   ar
