@<TRIPOS>MOLECULE
2nz5_226_A_1.pdb
 15 16 0 0 0
SMALL
GASTEIGER

@<TRIPOS>ATOM
      1  OAB      -24.9350  -15.2860   21.3810 O.2   431  226431     -0.2831
      2  CAM      -25.8830  -15.6490   20.6740 C.2   431  226431      0.2346
      3  CAN      -26.7550  -16.6320   21.1300 C.ar  431  226431      0.0516
      4  CAH      -26.5620  -17.2080   22.3810 C.ar  431  226431      0.0456
      5  CAI      -27.4390  -18.1880   22.8480 C.ar  431  226431      0.1990
      6  OAC      -27.2460  -18.7520   24.0680 O.3   431  226431     -0.2865
      7  CAF      -28.5040  -18.5890   22.0490 C.ar  431  226431      0.0841
      8  CAK      -28.6990  -18.0130   20.7960 C.ar  431  226431      0.2020
      9  OAE      -29.7270  -18.4450   20.0160 O.3   431  226431     -0.2864
     10  CAO      -27.8270  -17.0300   20.3360 C.ar  431  226431      0.0813
     11  CAL      -28.0270  -16.4370   19.0820 C.2   431  226431      0.2021
     12  OAA      -28.9790  -16.7450   18.3890 O.2   431  226431     -0.2864
     13  CAG      -27.1380  -15.4590   18.6290 C.2   431  226431      0.0875
     14  CAJ      -26.0690  -15.0670   19.4270 C.2   431  226431      0.2374
     15  OAD      -25.2010  -14.1250   18.9710 O.2   431  226431     -0.2830
@<TRIPOS>BOND
     1    12    11    2
     2    13    11    1
     3    13    14    2
     4    15    14    1
     5    11    10    1
     6    14     2    1
     7     9     8    1
     8    10     8   ar
     9    10     3   ar
    10     2     3    1
    11     2     1    2
    12     8     7   ar
    13     3     4   ar
    14     7     5   ar
    15     4     5   ar
    16     5     6    1
