@<TRIPOS>MOLECULE
2nza_HEM_A_1.pdb
 43 50 0 0 0
SMALL
GASTEIGER

@<TRIPOS>ATOM
      1  CHA      -17.8870   20.8860    5.5310 C.2   430  HEM430      0.0000
      2  CHB      -22.0050   18.4950    6.2190 C.2   430  HEM430      0.0000
      3  CHC      -23.7870   20.4240    2.1640 C.2   430  HEM430      0.0000
      4  CHD      -19.6840   22.8240    1.5090 C.2   430  HEM430      0.0000
      5  C1A      -18.8320   20.0610    6.0880 C.2   430  HEM430      0.0000
      6  C2A      -18.6660   19.2630    7.3000 C.2   430  HEM430      0.0000
      7  C3A      -19.8130   18.6060    7.4990 C.2   430  HEM430      0.0000
      8  C4A      -20.7280   18.9570    6.4140 C.2   430  HEM430      0.0000
      9  CMA      -20.1500   17.6360    8.6280 C.3   430  HEM430      0.0000
     10  CAA      -17.3630   19.2260    8.1320 C.3   430  HEM430      0.0000
     11  CBA      -17.3870   19.9010    9.4910 C.3   430  HEM430      0.0000
     12  CGA      -16.0960   19.6490   10.2800 C.2   430  HEM430      0.0000
     13  O1A      -16.2430   19.5220   11.5490 O.co2 430  HEM430      0.0000
     14  O2A      -15.0260   19.5810    9.6710 O.co2 430  HEM430      0.0000
     15  C1B      -22.8500   18.8050    5.1890 C.ar  430  HEM430      0.0000
     16  C2B      -24.1940   18.2640    5.0240 C.ar  430  HEM430      0.0000
     17  C3B      -24.6920   18.8030    3.8720 C.ar  430  HEM430      0.0000
     18  C4B      -23.6860   19.6780    3.3310 C.ar  430  HEM430      0.0000
     19  CMB      -24.8720   17.2670    5.9870 C.3   430  HEM430      0.0000
     20  CAB      -26.0460   18.5720    3.2080 C.3   430  HEM430      0.0000
     21  CBB      -27.2050   19.3230    3.8660 C.3   430  HEM430      0.0000
     22  C1C      -22.8150   21.2560    1.6360 C.2   430  HEM430      0.0000
     23  C2C      -22.9830   22.0340    0.3910 C.2   430  HEM430      0.0000
     24  C3C      -21.8290   22.7140    0.2030 C.2   430  HEM430      0.0000
     25  C4C      -20.9550   22.3620    1.3150 C.2   430  HEM430      0.0000
     26  CMC      -24.2800   22.0080   -0.4580 C.3   430  HEM430      0.0000
     27  CAC      -21.3800   23.7070   -0.9120 C.3   430  HEM430      0.0000
     28  CBC      -21.9210   23.4980   -2.3370 C.3   430  HEM430      0.0000
     29  C1D      -18.8300   22.5240    2.5320 C.ar  430  HEM430      0.0000
     30  C2D      -17.4820   23.0430    2.6890 C.ar  430  HEM430      0.0000
     31  C3D      -16.9810   22.5020    3.8250 C.ar  430  HEM430      0.0000
     32  C4D      -18.0110   21.6370    4.3740 C.ar  430  HEM430      0.0000
     33  CMD      -16.7980   24.0310    1.7160 C.3   430  HEM430      0.0000
     34  CAD      -15.5970   22.7480    4.4400 C.3   430  HEM430      0.0000
     35  CBD      -15.7580   23.8290    5.5640 C.3   430  HEM430      0.0000
     36  CGD      -14.4870   24.1610    6.2720 C.2   430  HEM430      0.0000
     37  O1D      -13.6850   23.2550    6.5700 O.co2 430  HEM430      0.0000
     38  O2D      -14.3450   25.3720    6.5330 O.co2 430  HEM430      0.0000
     39  NA       -20.0850   19.8470    5.5720 N.2   430  HEM430      0.0000
     40  NB       -22.5600   19.6680    4.1360 N.ar  430  HEM430      0.0000
     41  NC       -21.5700   21.4740    2.1800 N.2   430  HEM430      0.0000
     42  ND       -19.1460   21.6530    3.5830 N.ar  430  HEM430      0.0000
     43 FE        -20.8320   20.6750    3.8820 Fe    430  HEM430      0.0000
@<TRIPOS>BOND
     1    28    27    1
     2    27    24    1
     3    26    23    1
     4    24    23    2
     5    24    25    1
     6    23    22    1
     7    25     4    1
     8    25    41    2
     9     4    29    2
    10    22     3    2
    11    22    41    1
    12    33    30    1
    13     3    18    1
    14    41    43    1
    15    29    30   ar
    16    29    42   ar
    17    30    31   ar
    18    20    21    1
    19    20    17    1
    20    18    17   ar
    21    18    40   ar
    22    42    43    1
    23    42    32   ar
    24    31    32   ar
    25    31    34    1
    26    17    16   ar
    27    43    40    1
    28    43    39    1
    29    40    15   ar
    30    32     1    2
    31    34    35    1
    32    16    15   ar
    33    16    19    1
    34    15     2    1
    35     1     5    1
    36    35    36    1
    37    39     5    2
    38    39     8    1
    39     5     6    1
    40     2     8    2
    41    36    38   ar
    42    36    37   ar
    43     8     7    1
    44     6     7    2
    45     6    10    1
    46     7     9    1
    47    10    11    1
    48    11    12    1
    49    14    12   ar
    50    12    13   ar
