@<TRIPOS>MOLECULE
2nzj_GDP_A_1.pdb
 28 30 0 0 0
SMALL
GASTEIGER

@<TRIPOS>ATOM
      1  PB        -9.6370    6.8130  -21.0440 P.3   1001  GDP1001     0.5373
      2  O1B       -9.9540    7.4530  -22.3700 O.2   1001  GDP1001    -0.2221
      3  O2B      -10.8440    6.4800  -20.2350 O.3   1001  GDP1001    -0.1143
      4  O3B       -8.8560    5.5510  -21.3710 O.3   1001  GDP1001    -0.1143
      5  O3A       -8.7180    7.8860  -20.3260 O.3   1001  GDP1001    -0.2261
      6  PA        -8.7850    8.1030  -18.7500 P.3   1001  GDP1001     0.2231
      7  O1A       -8.6640    6.7720  -18.0650 O.3   1001  GDP1001    -0.4370
      8  O2A      -10.0130    8.8460  -18.3260 O.2   1001  GDP1001    -0.5169
      9  O5'       -7.5310    9.0750  -18.5290 O.3   1001  GDP1001    -0.3111
     10  C5'       -6.2240    8.7340  -18.9930 C.3   1001  GDP1001     0.1813
     11  C4'       -5.2070    9.6120  -18.2610 C.3   1001  GDP1001     0.1799
     12  O4'       -5.2260   10.9660  -18.7970 O.3   1001  GDP1001    -0.3326
     13  C3'       -5.5090    9.7270  -16.7530 C.3   1001  GDP1001     0.2158
     14  O3'       -4.3190    9.6260  -15.9490 O.3   1001  GDP1001    -0.2175
     15  C2'       -6.1030   11.1190  -16.6050 C.3   1001  GDP1001     0.2310
     16  O2'       -5.8030   11.7270  -15.3530 O.3   1001  GDP1001    -0.2158
     17  C1'       -5.5130   11.9080  -17.7640 C.3   1001  GDP1001     0.2293
     18  N9        -6.4640   12.9080  -18.2840 N.pl3 1001  GDP1001    -0.2354
     19  C8        -7.7590   12.7330  -18.6500 C.3   1001  GDP1001     0.2246
     20  N7        -8.3060   13.8890  -19.1120 N.2   1001  GDP1001    -0.2322
     21  C5        -7.3470   14.8040  -19.0450 C.2   1001  GDP1001     0.2182
     22  C6        -7.2450   16.2310  -19.3450 C.1   1001  GDP1001     0.2372
     23  O6        -8.2540   16.8200  -19.7880 O.2   1001  GDP1001    -0.2069
     24  N1        -6.0580   16.8330  -19.1340 N.2   1001  GDP1001    -0.2485
     25  C2        -4.9840   16.1810  -18.6380 C.1   1001  GDP1001     0.2531
     26  N2        -3.7960   16.8080  -18.4320 N.pl3 1001  GDP1001    -0.0226
     27  N3        -5.0260   14.8720  -18.3240 N.2   1001  GDP1001    -0.3074
     28  C4        -6.1510   14.1630  -18.5060 C.2   1001  GDP1001     0.2300
@<TRIPOS>BOND
     1     2     1    2
     2     4     1    1
     3     1     5    1
     4     1     3    1
     5     5     6    1
     6    23    22    2
     7    22    24    2
     8    22    21    1
     9    24    25    2
    10    20    21    2
    11    20    19    1
    12    21    28    1
    13    10     9    1
    14    10    11    1
    15    12    11    1
    16    12    17    1
    17     6     9    1
    18     6     8    2
    19     6     7    1
    20    19    18    1
    21    25    26    1
    22    25    27    2
    23    28    27    2
    24    28    18    1
    25    18    17    1
    26    11    13    1
    27    17    15    1
    28    13    15    1
    29    13    14    1
    30    15    16    1
