@<TRIPOS>MOLECULE
2nzl_FMN_A_1.pdb
 31 33 0 0 0
SMALL
GASTEIGER

@<TRIPOS>ATOM
      1  N1         8.8950   30.0390   18.0360 N.2   501  FMN501     -0.2887
      2  C2         8.9470   31.3150   17.6720 C.1   501  FMN501      0.3669
      3  O2         8.9380   31.5680   16.4650 O.2   501  FMN501     -0.1744
      4  N3         9.0010   32.2760   18.6120 N.2   501  FMN501     -0.2300
      5  C4         9.0140   32.0070   19.9290 C.1   501  FMN501      0.2513
      6  O4         9.0650   32.8870   20.8270 O.2   501  FMN501     -0.2057
      7  C4A        8.9640   30.6810   20.3120 C.2   501  FMN501      0.2703
      8  N5         8.9700   30.3650   21.6360 N.2   501  FMN501     -0.3882
      9  C5A        8.9230   29.0570   21.9820 C.2   501  FMN501      0.1277
     10  C6         8.9300   28.6810   23.3290 C.3   501  FMN501      0.0820
     11  C7         8.8840   27.3430   23.7320 C.2   501  FMN501     -0.0408
     12  C7M        8.9010   27.1190   25.1940 C.3   501  FMN501      0.0265
     13  C8         8.8330   26.3540   22.8380 C.2   501  FMN501     -0.0280
     14  C8M        8.7800   24.8780   23.2020 C.3   501  FMN501      0.0304
     15  C9         8.8290   26.7670   21.5290 C.2   501  FMN501      0.0123
     16  C9A        8.8680   28.0620   21.0570 C.2   501  FMN501      0.0793
     17  N10        8.8560   28.3510   19.7040 N.pl3 501  FMN501     -0.2545
     18  C10        8.9090   29.7080   19.3390 C.2   501  FMN501      0.2449
     19  C1'        8.8080   27.2690   18.6740 C.3   501  FMN501      0.1336
     20  C2'       10.3540   26.9240   18.5410 C.3   501  FMN501      0.2048
     21  O2'       11.0800   27.9740   17.7940 O.3   501  FMN501     -0.2185
     22  C3'       10.5720   25.6430   17.7850 C.3   501  FMN501      0.2165
     23  O3'        9.8330   25.6830   16.5490 O.3   501  FMN501     -0.2175
     24  C4'       10.2230   24.3930   18.5990 C.3   501  FMN501      0.2147
     25  O4'       10.6400   24.4940   19.9560 O.3   501  FMN501     -0.2176
     26  C5'       10.9480   23.2070   18.0010 C.3   501  FMN501      0.1892
     27  O5'       10.5710   21.9740   18.5820 O.3   501  FMN501     -0.2674
     28  P         11.3530   21.2790   19.8160 P.3   501  FMN501      0.5327
     29  O1P       10.7370   19.8760   19.7730 O.3   501  FMN501     -0.1145
     30  O2P       11.0220   22.0470   21.0930 O.3   501  FMN501     -0.1145
     31  O3P       12.8340   21.3370   19.4950 O.2   501  FMN501     -0.2224
@<TRIPOS>BOND
     1     3     2    2
     2    23    22    1
     3     2     1    2
     4     2     4    2
     5    22    20    1
     6    22    24    1
     7    21    20    1
     8    26    27    1
     9    26    24    1
    10     1    18    2
    11    20    19    1
    12    27    28    1
    13    24    25    1
    14     4     5    2
    15    19    17    1
    16    18    17    1
    17    18     7    1
    18    31    28    2
    19    17    16    1
    20    29    28    1
    21    28    30    1
    22     5     7    1
    23     5     6    2
    24     7     8    2
    25    16    15    2
    26    16     9    1
    27    15    13    1
    28     8     9    2
    29     9    10    1
    30    13    14    1
    31    13    11    2
    32    10    11    1
    33    11    12    1
