@<TRIPOS>MOLECULE
2nzm_ADA_A_1.pdb
 13 13 0 0 0
SMALL
GASTEIGER

@<TRIPOS>ATOM
      1  C1         2.5430   -7.9660   -1.3540 C.3   400  ADA400      0.3028
      2  C2         3.7350   -7.6370   -2.2470 C.3   400  ADA400      0.2435
      3  C3         4.4050   -8.9190   -2.7310 C.3   400  ADA400      0.2204
      4  C4         4.7620   -9.8430   -1.5550 C.3   400  ADA400      0.2229
      5  C5         3.5610  -10.0590   -0.6250 C.3   400  ADA400      0.2530
      6  C6         4.0170  -10.7720    0.6190 C.2   400  ADA400      0.3941
      7  O1         1.5200   -8.6090   -2.1290 O.3   400  ADA400     -0.1869
      8  O2         3.2900   -6.8650   -3.3680 O.3   400  ADA400     -0.2148
      9  O3         5.5640   -8.5680   -3.5010 O.3   400  ADA400     -0.2174
     10  O4         5.8500   -9.3040   -0.7810 O.3   400  ADA400     -0.2171
     11  O5         2.9560   -8.8060   -0.2620 O.3   400  ADA400     -0.3149
     12  O6B        4.5900  -11.8730    0.4830 O.co2 400  ADA400     -0.2429
     13  O6A        3.8280  -10.2400    1.7380 O.co2 400  ADA400     -0.2429
@<TRIPOS>BOND
     1     9     3    1
     2     8     2    1
     3     3     2    1
     4     3     4    1
     5     2     1    1
     6     7     1    1
     7     4    10    1
     8     4     5    1
     9     1    11    1
    10     5    11    1
    11     5     6    1
    12    12     6   ar
    13     6    13   ar
