@<TRIPOS>MOLECULE
2nzt_GLC_A_1.pdb
 12 12 0 0 0
SMALL
GASTEIGER

@<TRIPOS>ATOM
      1  C1        -2.3520    4.1670   16.5900 C.3   1001  GLC1001     0.3024
      2  C2        -2.5070    2.6700   16.2860 C.3   1001  GLC1001     0.2434
      3  C3        -2.1750    1.7980   17.5480 C.3   1001  GLC1001     0.2199
      4  C4        -0.8020    2.1520   18.0990 C.3   1001  GLC1001     0.2144
      5  C5        -0.6240    3.6700   18.0850 C.3   1001  GLC1001     0.1836
      6  C6         0.9000    4.0490   18.2500 C.3   1001  GLC1001     0.2142
      7  O1        -3.2320    4.4620   17.6990 O.3   1001  GLC1001    -0.1869
      8  O2        -3.8430    2.5050   15.7930 O.3   1001  GLC1001    -0.2148
      9  O3        -2.1320    0.3750   17.3320 O.3   1001  GLC1001    -0.2174
     10  O4        -0.6340    1.5570   19.4360 O.3   1001  GLC1001    -0.2176
     11  O5        -0.9940    4.2930   16.8570 O.3   1001  GLC1001    -0.3236
     12  O6         1.7270    3.5860   17.1800 O.3   1001  GLC1001    -0.2176
@<TRIPOS>BOND
     1     8     2    1
     2     2     1    1
     3     2     3    1
     4     1    11    1
     5     1     7    1
     6    11     5    1
     7    12     6    1
     8     9     3    1
     9     3     4    1
    10     5     4    1
    11     5     6    1
    12     4    10    1
