@<TRIPOS>MOLECULE
2nzt_BG6_A_1.pdb
 16 16 0 0 0
SMALL
GASTEIGER

@<TRIPOS>ATOM
      1  C1         9.4730    2.9110   18.8010 C.3   1002  BG61002     0.3024
      2  C2         8.9890    1.4920   19.0170 C.3   1002  BG61002     0.2434
      3  O1        10.4530    3.1710   19.8030 O.3   1002  BG61002    -0.1869
      4  O5         8.4160    3.8460   19.0510 O.3   1002  BG61002    -0.3237
      5  C3         7.7610    1.2340   18.1000 C.3   1002  BG61002     0.2199
      6  O2        10.0280    0.5710   18.7200 O.3   1002  BG61002    -0.2148
      7  C4         6.6930    2.3220   18.3040 C.3   1002  BG61002     0.2143
      8  O3         7.2180   -0.1180   18.3100 O.3   1002  BG61002    -0.2174
      9  C5         7.3150    3.7190   18.1450 C.3   1002  BG61002     0.1808
     10  O4         5.6770    2.1270   17.3310 O.3   1002  BG61002    -0.2176
     11  C6         6.2830    4.8490   18.3830 C.3   1002  BG61002     0.1859
     12  O6         6.8400    6.1440   18.2680 O.3   1002  BG61002    -0.2675
     13  P          7.0870    6.8670   16.8720 P.3   1002  BG61002     0.5327
     14  O1P        5.8270    6.9740   16.0800 O.3   1002  BG61002    -0.1145
     15  O2P        8.1680    6.1240   16.0090 O.2   1002  BG61002    -0.2224
     16  O3P        7.5490    8.2690   17.3010 O.3   1002  BG61002    -0.1145
@<TRIPOS>BOND
     1    15    13    2
     2    14    13    1
     3    13    16    1
     4    13    12    1
     5    10     7    1
     6     5     7    1
     7     5     8    1
     8     5     2    1
     9     9     7    1
    10     9    11    1
    11     9     4    1
    12    12    11    1
    13     6     2    1
    14     1     2    1
    15     1     4    1
    16     1     3    1
