@<TRIPOS>MOLECULE
2nzu_BG6_G_1.pdb
 16 16 0 0 0
SMALL
GASTEIGER

@<TRIPOS>ATOM
      1  C1        57.7470   19.2230   67.2070 C.3   1092  BG61092     0.3024
      2  C2        56.8440   19.7690   68.3150 C.3   1092  BG61092     0.2434
      3  O1        57.8390   20.1500   66.1800 O.3   1092  BG61092    -0.1869
      4  O5        57.2150   17.9610   66.6840 O.3   1092  BG61092    -0.3237
      5  C3        56.7520   18.7280   69.4420 C.3   1092  BG61092     0.2199
      6  O2        57.3980   20.9930   68.7990 O.3   1092  BG61092    -0.2148
      7  C4        56.1560   17.4440   68.8530 C.3   1092  BG61092     0.2143
      8  O3        55.9080   19.2140   70.4890 O.3   1092  BG61092    -0.2174
      9  C5        57.0820   16.9340   67.7300 C.3   1092  BG61092     0.1808
     10  O4        56.0450   16.4450   69.8750 O.3   1092  BG61092    -0.2176
     11  C6        56.5370   15.6680   67.0850 C.3   1092  BG61092     0.1859
     12  O6        57.4460   15.1900   66.0500 O.3   1092  BG61092    -0.2675
     13  P         57.2450   13.6870   65.3840 P.3   1092  BG61092     0.5327
     14  O1P       57.3000   12.7390   66.5580 O.3   1092  BG61092    -0.1145
     15  O2P       58.3990   13.6520   64.4180 O.2   1092  BG61092    -0.2224
     16  O3P       55.9180   13.8230   64.6760 O.3   1092  BG61092    -0.1145
@<TRIPOS>BOND
     1    15    13    2
     2    16    13    1
     3    13    12    1
     4    13    14    1
     5    12    11    1
     6     3     1    1
     7     4     1    1
     8     4     9    1
     9    11     9    1
    10     1     2    1
    11     9     7    1
    12     2     6    1
    13     2     5    1
    14     7     5    1
    15     7    10    1
    16     5     8    1
