@<TRIPOS>MOLECULE
2nzv_FBP_G_1.pdb
 20 20 0 0 0
SMALL
GASTEIGER

@<TRIPOS>ATOM
      1  P1        11.6360   46.6750   67.8450 P.3   2128  FBP2128     0.5328
      2  O1P       12.0080   46.0060   66.4290 O.2   2128  FBP2128    -0.2224
      3  O2P       12.3590   45.9480   68.9550 O.3   2128  FBP2128    -0.1145
      4  O3P       10.1360   46.6380   67.8860 O.3   2128  FBP2128    -0.1145
      5  O1        12.2190   48.0990   67.7220 O.3   2128  FBP2128    -0.2648
      6  C1        12.1570   48.9520   68.8350 C.3   2128  FBP2128     0.2152
      7  C2        12.8380   50.2030   68.3250 C.3   2128  FBP2128     0.2780
      8  O2        14.1690   49.8440   67.9080 O.3   2128  FBP2128    -0.1897
      9  C3        12.9240   51.4180   69.4050 C.3   2128  FBP2128     0.2408
     10  O3        13.7050   52.5390   68.8810 O.3   2128  FBP2128    -0.2149
     11  C4        11.4300   51.6690   69.5680 C.3   2128  FBP2128     0.2167
     12  O4        10.9750   50.5170   70.3280 O.3   2128  FBP2128    -0.2175
     13  C5        11.0420   51.7920   68.0350 C.3   2128  FBP2128     0.1808
     14  O5        11.9610   50.8320   67.3280 O.3   2128  FBP2128    -0.3255
     15  C6        11.4920   53.1640   67.5410 C.3   2128  FBP2128     0.1859
     16  O6        11.2600   53.4580   66.1190 O.3   2128  FBP2128    -0.2675
     17  P2        10.5750   54.7080   65.4230 P.3   2128  FBP2128     0.5327
     18  O4P       10.5590   54.3380   63.9010 O.2   2128  FBP2128    -0.2224
     19  O5P       11.5070   55.9140   65.7510 O.3   2128  FBP2128    -0.1145
     20  O6P        9.1500   54.8080   66.0470 O.3   2128  FBP2128    -0.1145
@<TRIPOS>BOND
     1    18    17    2
     2    17    19    1
     3    17    20    1
     4    17    16    1
     5    16    15    1
     6     2     1    2
     7    14    13    1
     8    14     7    1
     9    15    13    1
    10     5     1    1
    11     5     6    1
    12     1     4    1
    13     1     3    1
    14     8     7    1
    15    13    11    1
    16     7     6    1
    17     7     9    1
    18    10     9    1
    19     9    11    1
    20    11    12    1
