@<TRIPOS>MOLECULE
2nzx_GDP_A_1.pdb
 28 30 0 0 0
SMALL
GASTEIGER

@<TRIPOS>ATOM
      1  PB        11.9510  104.5270   65.6250 P.3   3001  GDP3001     0.5373
      2  O1B       12.5520  104.5880   64.3130 O.2   3001  GDP3001    -0.2221
      3  O2B       11.6790  102.9800   65.9870 O.3   3001  GDP3001    -0.1143
      4  O3B       10.6120  105.3560   65.5470 O.3   3001  GDP3001    -0.1143
      5  O3A       12.9830  105.0890   66.7560 O.3   3001  GDP3001    -0.2261
      6  PA        12.4110  106.3310   67.6910 P.3   3001  GDP3001     0.2231
      7  O1A       13.5450  106.8830   68.4560 O.3   3001  GDP3001    -0.4370
      8  O2A       11.7890  107.4920   66.8030 O.2   3001  GDP3001    -0.5169
      9  O5'       11.2980  105.8840   68.7400 O.3   3001  GDP3001    -0.3111
     10  C5'       11.5180  104.5830   69.2340 C.3   3001  GDP3001     0.1813
     11  C4'       10.4680  104.3560   70.3690 C.3   3001  GDP3001     0.1799
     12  O4'       10.6980  105.3020   71.4470 O.3   3001  GDP3001    -0.3326
     13  C3'        9.0260  104.6200   69.8950 C.3   3001  GDP3001     0.2158
     14  O3'        8.0930  103.8050   70.5710 O.3   3001  GDP3001    -0.2175
     15  C2'        8.8150  106.0640   70.2170 C.3   3001  GDP3001     0.2310
     16  O2'        7.4330  106.3620   70.2670 O.3   3001  GDP3001    -0.2158
     17  C1'        9.5590  106.1980   71.5490 C.3   3001  GDP3001     0.2293
     18  N9        10.0380  107.5490   71.7150 N.pl3 3001  GDP3001    -0.2354
     19  C8        10.6280  108.3200   70.7500 C.3   3001  GDP3001     0.2246
     20  N7        10.9240  109.4800   71.2340 N.2   3001  GDP3001    -0.2322
     21  C5        10.5460  109.5310   72.5270 C.2   3001  GDP3001     0.2182
     22  C6        10.6040  110.5410   73.5510 C.1   3001  GDP3001     0.2372
     23  O6        11.0960  111.6690   73.3020 O.2   3001  GDP3001    -0.2069
     24  N1        10.1000  110.2140   74.8170 N.2   3001  GDP3001    -0.2485
     25  C2         9.5590  108.9440   75.0590 C.1   3001  GDP3001     0.2531
     26  N2         9.0780  108.6200   76.2990 N.pl3 3001  GDP3001    -0.0226
     27  N3         9.5060  108.0300   74.1010 N.2   3001  GDP3001    -0.3074
     28  C4         9.9770  108.2770   72.8460 C.2   3001  GDP3001     0.2300
@<TRIPOS>BOND
     1     2     1    2
     2     4     1    1
     3     1     3    1
     4     1     5    1
     5     5     6    1
     6     8     6    2
     7     6     7    1
     8     6     9    1
     9     9    10    1
    10    10    11    1
    11    13    15    1
    12    13    11    1
    13    13    14    1
    14    15    16    1
    15    15    17    1
    16    11    12    1
    17    19    20    1
    18    19    18    1
    19    20    21    2
    20    12    17    1
    21    17    18    1
    22    18    28    1
    23    21    28    1
    24    21    22    1
    25    28    27    2
    26    23    22    2
    27    22    24    2
    28    27    25    2
    29    24    25    2
    30    25    26    1
