@<TRIPOS>MOLECULE
2nzy_GDP_A_1.pdb
 28 30 0 0 0
SMALL
GASTEIGER

@<TRIPOS>ATOM
      1  PB        12.5800  104.1330   65.1870 P.3   3001  GDP3001     0.5373
      2  O1B       13.9530  103.7320   64.7770 O.3   3001  GDP3001    -0.1143
      3  O2B       11.7130  102.8590   65.3780 O.3   3001  GDP3001    -0.1143
      4  O3B       11.8860  105.0320   64.0530 O.2   3001  GDP3001    -0.2221
      5  O3A       12.8580  104.8850   66.6000 O.3   3001  GDP3001    -0.2261
      6  PA        11.6260  105.7560   67.1480 P.3   3001  GDP3001     0.2231
      7  O1A       11.9210  107.1830   66.9220 O.3   3001  GDP3001    -0.4370
      8  O2A       10.2610  105.3660   66.3770 O.2   3001  GDP3001    -0.5169
      9  O5'       11.5260  105.5000   68.7150 O.3   3001  GDP3001    -0.3111
     10  C5'       11.3010  104.1100   68.9620 C.3   3001  GDP3001     0.1813
     11  C4'       10.3050  103.9560   70.1470 C.3   3001  GDP3001     0.1799
     12  O4'       10.7160  104.8390   71.2430 O.3   3001  GDP3001    -0.3326
     13  C3'        8.8920  104.4030   69.7400 C.3   3001  GDP3001     0.2158
     14  O3'        7.9130  103.6290   70.3790 O.3   3001  GDP3001    -0.2175
     15  C2'        8.8510  105.8450   70.1700 C.3   3001  GDP3001     0.2310
     16  O2'        7.5150  106.2740   70.3510 O.3   3001  GDP3001    -0.2158
     17  C1'        9.6860  105.8270   71.4500 C.3   3001  GDP3001     0.2293
     18  N9        10.2450  107.1470   71.6730 N.pl3 3001  GDP3001    -0.2354
     19  C8        10.9420  107.9290   70.7690 C.3   3001  GDP3001     0.2246
     20  N7        11.2710  109.0560   71.3050 N.2   3001  GDP3001    -0.2322
     21  C5        10.8100  109.0790   72.5900 C.2   3001  GDP3001     0.2182
     22  C6        10.8530  110.0480   73.6640 C.1   3001  GDP3001     0.2372
     23  O6        11.4070  111.1470   73.4950 O.2   3001  GDP3001    -0.2069
     24  N1        10.2630  109.7130   74.8800 N.2   3001  GDP3001    -0.2485
     25  C2         9.6410  108.4690   75.0540 C.1   3001  GDP3001     0.2531
     26  N2         9.0680  108.1430   76.2740 N.pl3 3001  GDP3001    -0.0226
     27  N3         9.5980  107.5820   74.0500 N.2   3001  GDP3001    -0.3074
     28  C4        10.1570  107.8420   72.8340 C.2   3001  GDP3001     0.2300
@<TRIPOS>BOND
     1     4     1    2
     2     2     1    1
     3     1     3    1
     4     1     5    1
     5     8     6    2
     6     5     6    1
     7     7     6    1
     8     6     9    1
     9     9    10    1
    10    10    11    1
    11    13    11    1
    12    13    15    1
    13    13    14    1
    14    11    12    1
    15    15    16    1
    16    15    17    1
    17    19    20    1
    18    19    18    1
    19    12    17    1
    20    20    21    2
    21    17    18    1
    22    18    28    1
    23    21    28    1
    24    21    22    1
    25    28    27    2
    26    23    22    2
    27    22    24    2
    28    27    25    2
    29    24    25    2
    30    25    26    1
