@<TRIPOS>MOLECULE
2nzy_FUC_A_1.pdb
 10 10 0 0 0
SMALL
GASTEIGER

@<TRIPOS>ATOM
      1  C1        12.4020  101.7280   65.8470 C.3   4001  FUC4001     0.1776
      2  C2        12.0950  100.4490   64.9710 C.3   4001  FUC4001     0.2141
      3  C3        12.7650   99.2140   65.5980 C.3   4001  FUC4001     0.2172
      4  C4        12.2550   99.1270   67.0440 C.3   4001  FUC4001     0.2116
      5  C5        12.7310  100.3860   67.7920 C.3   4001  FUC4001     0.1483
      6  C6        12.3990  100.3850   69.2700 C.3   4001  FUC4001     0.0349
      7  O2        12.6540  100.6180   63.6670 O.3   4001  FUC4001    -0.2176
      8  O3        12.4020   98.0370   64.8650 O.3   4001  FUC4001    -0.2175
      9  O4        10.8350   99.1190   67.0070 O.3   4001  FUC4001    -0.2177
     10  O5        12.0810  101.5390   67.2230 O.3   4001  FUC4001    -0.3508
@<TRIPOS>BOND
     1     7     2    1
     2     8     3    1
     3     2     3    1
     4     2     1    1
     5     3     4    1
     6     1    10    1
     7     9     4    1
     8     4     5    1
     9    10     5    1
    10     5     6    1
