@<TRIPOS>MOLECULE
2o01_CLA_1_1.pdb
 25 30 0 0 0
SMALL
GASTEIGER

@<TRIPOS>ATOM
      1 MG         -0.8020   -7.1670   37.4830 Mg    1004  CLA1004     0.0000
      2  CHA       -1.4490   -4.2300   35.8130 C.2   1004  CLA1004     0.0000
      3  CHB        0.9680   -8.3070   34.8550 C.2   1004  CLA1004     0.0000
      4  CHC       -0.1720  -10.1910   39.2860 C.2   1004  CLA1004     0.0000
      5  CHD       -2.7180   -5.9080   40.2950 C.2   1004  CLA1004     0.0000
      6  NA        -0.3140   -6.4550   35.6920 N.ar  1004  CLA1004     0.0000
      7  C1A       -0.6480   -5.3160   35.2190 C.ar  1004  CLA1004     0.0000
      8  C2A       -0.1390   -5.0450   33.8340 C.ar  1004  CLA1004     0.0000
      9  C3A        0.6240   -6.3100   33.5060 C.ar  1004  CLA1004     0.0000
     10  C4A        0.4240   -7.0950   34.7650 C.ar  1004  CLA1004     0.0000
     11  NB         0.2140   -8.8990   37.0980 N.2   1004  CLA1004     0.0000
     12  C1B        0.8820   -9.2260   35.9990 C.2   1004  CLA1004     0.0000
     13  C2B        1.4700  -10.4730   36.0320 C.2   1004  CLA1004     0.0000
     14  C3B        1.1270  -10.9550   37.2710 C.2   1004  CLA1004     0.0000
     15  C4B        0.3630   -9.9730   37.8980 C.1   1004  CLA1004     0.0000
     16  NC        -1.3220   -7.8710   39.3470 N.2   1004  CLA1004     0.0000
     17  C1C       -0.9870   -9.0690   39.8750 C.1   1004  CLA1004     0.0000
     18  C2C       -1.5120   -9.2080   41.1470 C.2   1004  CLA1004     0.0000
     19  C3C       -2.1930   -8.0530   41.4100 C.2   1004  CLA1004     0.0000
     20  C4C       -2.0630   -7.2530   40.2930 C.1   1004  CLA1004     0.0000
     21  ND        -1.8370   -5.4770   37.9460 N.2   1004  CLA1004     0.0000
     22  C1D       -2.5140   -5.1220   39.0380 C.2   1004  CLA1004     0.0000
     23  C2D       -3.0470   -3.8420   38.8570 C.2   1004  CLA1004     0.0000
     24  C3D       -2.6920   -3.3730   37.6040 C.2   1004  CLA1004     0.0000
     25  C4D       -1.9500   -4.4050   37.0800 C.2   1004  CLA1004     0.0000
@<TRIPOS>BOND
     1     9     8   ar
     2     9    10   ar
     3     8     7   ar
     4    10     3    2
     5    10     6   ar
     6     3    12    1
     7     7     6   ar
     8     7     2    2
     9     6     1    1
    10     2    25    1
    11    12    13    1
    12    12    11    2
    13    13    14    2
    14    25    24    1
    15    25    21    2
    16    11    15    2
    17    14    15    1
    18     1    21    1
    19    24    23    2
    20    15     4    2
    21    21    22    1
    22    23    22    1
    23    22     5    2
    24     4    17    1
    25    16    17    2
    26    16    20    2
    27    17    18    2
    28    20     5    1
    29    20    19    2
    30    18    19    1
