@<TRIPOS>MOLECULE
2o01_PQN_A_1.pdb
 33 34 0 0 0
SMALL
GASTEIGER

@<TRIPOS>ATOM
      1  C1        41.9910   -3.5440   -1.6060 C.2   5001  PQN5001     0.1915
      2  O1        42.7590   -3.0970   -0.7130 O.2   5001  PQN5001    -0.2869
      3  C2        40.5730   -3.0620   -1.6830 C.2   5001  PQN5001     0.0165
      4  C2M       40.1220   -2.0220   -0.6920 C.3   5001  PQN5001     0.0342
      5  C3        39.6540   -3.5860   -2.7420 C.2   5001  PQN5001     0.0202
      6  C4        40.2050   -4.6120   -3.7100 C.2   5001  PQN5001     0.1918
      7  O4        39.5460   -5.1360   -4.6290 O.2   5001  PQN5001    -0.2869
      8  C5        41.5950   -5.0860   -3.6120 C.ar  5001  PQN5001     0.0417
      9  C6        42.0750   -6.0240   -4.5000 C.ar  5001  PQN5001     0.0033
     10  C7        43.3960   -6.4800   -4.4240 C.ar  5001  PQN5001     0.0001
     11  C8        44.2580   -6.0000   -3.4560 C.ar  5001  PQN5001     0.0001
     12  C9        43.7940   -5.0470   -2.5440 C.ar  5001  PQN5001     0.0033
     13  C10       42.4910   -4.5660   -2.5780 C.ar  5001  PQN5001     0.0417
     14  C11       38.2260   -3.0610   -2.8130 C.3   5001  PQN5001     0.0547
     15  C12       38.2110   -1.7130   -3.5350 C.2   5001  PQN5001    -0.0298
     16  C13       37.2590   -1.3160   -4.4330 C.2   5001  PQN5001    -0.0478
     17  C14       36.1070   -2.2440   -4.8120 C.3   5001  PQN5001     0.0260
     18  C15       37.3630    0.0640   -5.1040 C.3   5001  PQN5001     0.0217
     19  C16       36.1390    0.9600   -4.9070 C.3   5001  PQN5001     0.0043
     20  C17       35.6890    1.6170   -6.2070 C.3   5001  PQN5001     0.0003
     21  C18       34.9470    2.9720   -6.1250 C.3   5001  PQN5001     0.0000
     22  C19       35.5230    3.9710   -5.1210 C.3   5001  PQN5001     0.0000
     23  C20       33.4760    2.7930   -5.8190 C.3   5001  PQN5001     0.0000
     24  C21       33.0320    3.5070   -4.5380 C.3   5001  PQN5001     0.0000
     25  C22       31.8950    4.4800   -4.8220 C.3   5001  PQN5001     0.0000
     26  C23       32.3450    5.5700   -5.8190 C.3   5001  PQN5001     0.0000
     27  C24       32.1840    5.0930   -7.2690 C.3   5001  PQN5001     0.0000
     28  C25       31.7210    6.9660   -5.5980 C.3   5001  PQN5001     0.0000
     29  C26       30.9000    7.1650   -4.3170 C.3   5001  PQN5001     0.0000
     30  C27       31.5940    8.0820   -3.3160 C.3   5001  PQN5001     0.0000
     31  C28       31.4970    9.6350   -3.4810 C.3   5001  PQN5001     0.0000
     32  C29       32.6030   10.2880   -4.3330 C.3   5001  PQN5001     0.0000
     33  C30       30.1250   10.1940   -3.8960 C.3   5001  PQN5001     0.0000
@<TRIPOS>BOND
     1    27    26    1
     2    20    21    1
     3    20    19    1
     4    21    23    1
     5    21    22    1
     6    26    28    1
     7    26    25    1
     8    23    24    1
     9    28    29    1
    10    18    19    1
    11    18    16    1
    12    25    24    1
    13    17    16    1
    14     7     6    2
    15     9    10   ar
    16     9     8   ar
    17    16    15    2
    18    10    11   ar
    19    32    31    1
    20    29    30    1
    21    33    31    1
    22     6     8    1
    23     6     5    1
    24     8    13   ar
    25    15    14    1
    26    31    30    1
    27    11    12   ar
    28    14     5    1
    29     5     3    2
    30    13    12   ar
    31    13     1    1
    32     3     1    1
    33     3     4    1
    34     1     2    2
