@<TRIPOS>MOLECULE
2o04_ADA_A_1.pdb
 13 13 0 0 0
SMALL
GASTEIGER

@<TRIPOS>ATOM
      1  C1         2.6240   -8.0230   -1.3580 C.3   400  ADA400      0.3028
      2  C2         3.7900   -7.7070   -2.2930 C.3   400  ADA400      0.2435
      3  C3         4.4580   -8.9930   -2.7790 C.3   400  ADA400      0.2204
      4  C4         4.8210   -9.9300   -1.6180 C.3   400  ADA400      0.2229
      5  C5         3.6300  -10.1330   -0.6710 C.3   400  ADA400      0.2530
      6  C6         4.0390  -10.8790    0.5720 C.2   400  ADA400      0.3941
      7  O1         1.5520   -8.6440   -2.0860 O.3   400  ADA400     -0.1869
      8  O2         3.3160   -6.9550   -3.4160 O.3   400  ADA400     -0.2148
      9  O3         5.6180   -8.6560   -3.5540 O.3   400  ADA400     -0.2174
     10  O4         5.9360   -9.4090   -0.8820 O.3   400  ADA400     -0.2171
     11  O5         3.0650   -8.8690   -0.2840 O.3   400  ADA400     -0.3149
     12  O6B        4.4720  -12.0480    0.4690 O.co2 400  ADA400     -0.2429
     13  O6A        3.9270  -10.2990    1.6750 O.co2 400  ADA400     -0.2429
@<TRIPOS>BOND
     1     9     3    1
     2     8     2    1
     3     3     2    1
     4     3     4    1
     5     2     1    1
     6     7     1    1
     7     4    10    1
     8     4     5    1
     9     1    11    1
    10     5    11    1
    11     5     6    1
    12    12     6   ar
    13     6    13   ar
