@<TRIPOS>MOLECULE
2o05_MTA_A_1.pdb
 20 22 0 0 0
SMALL
GASTEIGER

@<TRIPOS>ATOM
      1  CS         1.6630    0.1170    6.8830 C.3   501  MTA501      0.0693
      2  S5'        3.2690   -0.5930    7.0890 S.3   501  MTA501     -0.1367
      3  C5'        3.3160   -2.0650    8.1010 C.3   501  MTA501      0.0899
      4  C4'        2.6990   -3.2660    7.3860 C.3   501  MTA501      0.1630
      5  O4'        3.1630   -4.5820    7.7760 O.3   501  MTA501     -0.3153
      6  C2'        0.8980   -4.7650    7.9550 C.3   501  MTA501      0.2569
      7  O2'       -0.3090   -5.2590    7.3790 O.3   501  MTA501     -0.2130
      8  C3'        1.1960   -3.3250    7.5230 C.3   501  MTA501      0.2168
      9  O3'        0.7080   -3.0580    6.1990 O.3   501  MTA501     -0.2175
     10  C1'        2.1150   -5.4950    7.4190 C.3   501  MTA501      0.3185
     11  N9         2.3560   -6.8070    8.0620 N.pl3 501  MTA501     -0.1439
     12  C8         2.1110   -7.0650    9.3530 C.3   501  MTA501      0.3377
     13  N7         2.4400   -8.3370    9.6530 N.2   501  MTA501     -0.2095
     14  C5         2.9520   -8.9240    8.5610 C.2   501  MTA501      0.2526
     15  C6         3.5030  -10.2640    8.2440 C.2   501  MTA501      0.4393
     16  N6         3.5740  -11.2590    9.1810 N.pl3 501  MTA501      0.2180
     17  N1         3.8980  -10.4510    6.9590 N.2   501  MTA501      0.0021
     18  C2         3.8390   -9.4870    6.0040 C.3   501  MTA501      0.5254
     19  N3         3.3610   -8.2420    6.2410 N.2   501  MTA501     -0.0055
     20  C4         2.9010   -7.9070    7.4910 C.2   501  MTA501      0.3518
@<TRIPOS>BOND
     1    18    19    1
     2    18    17    1
     3     9     8    1
     4    19    20    2
     5     1     2    1
     6    17    15    2
     7     2     3    1
     8     7     6    1
     9     4     8    1
    10     4     5    1
    11     4     3    1
    12    10     5    1
    13    10     6    1
    14    10    11    1
    15    20    11    1
    16    20    14    1
    17     8     6    1
    18    11    12    1
    19    15    14    1
    20    15    16    1
    21    14    13    2
    22    12    13    1
