@<TRIPOS>MOLECULE
2o06_MTA_A_1.pdb
 20 22 0 0 0
SMALL
GASTEIGER

@<TRIPOS>ATOM
      1  CS        10.5270   24.8720    5.0340 C.3   501  MTA501      0.0693
      2  S5'       11.5800   23.6840    5.8390 S.3   501  MTA501     -0.1367
      3  C5'       10.9080   23.2770    7.4270 C.3   501  MTA501      0.0899
      4  C4'        9.7350   22.3200    7.2610 C.3   501  MTA501      0.1630
      5  O4'        9.5060   21.5850    8.4790 O.3   501  MTA501     -0.3153
      6  C2'        7.4290   22.4550    8.0100 C.3   501  MTA501      0.2569
      7  O2'        6.1200   22.1430    7.5100 O.3   501  MTA501     -0.2130
      8  C3'        8.3940   23.0100    6.9590 C.3   501  MTA501      0.2168
      9  O3'        7.9740   22.6770    5.6270 O.3   501  MTA501     -0.2175
     10  C1'        8.1390   21.1740    8.4240 C.3   501  MTA501      0.3185
     11  N9         7.7160   20.5890    9.7200 N.pl3 501  MTA501     -0.1439
     12  C8         7.3620   21.2430   10.8550 C.3   501  MTA501      0.3377
     13  N7         7.0640   20.3610   11.8450 N.2   501  MTA501     -0.2095
     14  C5         7.2190   19.1210   11.3300 C.2   501  MTA501      0.2526
     15  C6         7.0710   17.7390   11.8260 C.2   501  MTA501      0.4393
     16  N6         6.6870   17.5140   13.1190 N.pl3 501  MTA501      0.2180
     17  N1         7.3500   16.7360   10.9600 N.2   501  MTA501      0.0021
     18  C2         7.7480   16.9470    9.6820 C.3   501  MTA501      0.5254
     19  N3         7.8870   18.1800    9.1540 N.2   501  MTA501     -0.0055
     20  C4         7.6490   19.2760    9.9270 C.2   501  MTA501      0.3518
@<TRIPOS>BOND
     1     1     2    1
     2     9     8    1
     3     2     3    1
     4     8     4    1
     5     8     6    1
     6     4     3    1
     7     4     5    1
     8     7     6    1
     9     6    10    1
    10    10     5    1
    11    10    11    1
    12    19    18    1
    13    19    20    2
    14    18    17    1
    15    11    20    1
    16    11    12    1
    17    20    14    1
    18    12    13    1
    19    17    15    2
    20    14    15    1
    21    14    13    2
    22    15    16    1
