@<TRIPOS>MOLECULE
2o07_SPD_A_1.pdb
 10 9 0 0 0
SMALL
GASTEIGER

@<TRIPOS>ATOM
      1  N1         7.8600   56.4680   14.8240 N.3   601  SPD601     -0.1262
      2  C2         7.3980   57.7410   15.5450 C.3   601  SPD601      0.1351
      3  C3         5.9000   58.1760   15.4900 C.2   601  SPD601     -0.0089
      4  C4         5.4390   58.8880   14.1890 C.2   601  SPD601     -0.0105
      5  C5         3.9140   58.9930   13.9500 C.3   601  SPD601      0.1144
      6  N6         3.5310   59.3540   12.5760 N.3   601  SPD601     -0.2133
      7  C7         2.1390   59.4580   12.1210 C.3   601  SPD601      0.0906
      8  C8         1.9760   59.6440   10.5970 C.3   601  SPD601      0.0393
      9  C9         1.6920   58.3160    9.8390 C.3   601  SPD601      0.1108
     10  N10        0.4250   58.2540    9.0800 N.3   601  SPD601     -0.1313
@<TRIPOS>BOND
     1    10     9    1
     2     9     8    1
     3     8     7    1
     4     7     6    1
     5     6     5    1
     6     5     4    1
     7     4     3    2
     8     1     2    1
     9     3     2    1
