@<TRIPOS>MOLECULE
2o07_MTA_A_1.pdb
 20 22 0 0 0
SMALL
GASTEIGER

@<TRIPOS>ATOM
      1  CS         3.2700   60.7100    6.6060 C.3   501  MTA501      0.0693
      2  S5'        1.7970   61.3680    7.3570 S.3   501  MTA501     -0.1367
      3  C5'        2.4420   62.7770    8.2250 C.3   501  MTA501      0.0899
      4  C4'        2.5080   63.9550    7.2480 C.3   501  MTA501      0.1630
      5  O4'        2.5790   65.1790    7.9540 O.3   501  MTA501     -0.3153
      6  C2'        4.3490   65.4070    6.5880 C.3   501  MTA501      0.2569
      7  O2'        4.9050   66.0680    5.4690 O.3   501  MTA501     -0.2130
      8  C3'        3.7620   64.0180    6.3350 C.3   501  MTA501      0.2168
      9  O3'        3.3150   63.8430    4.9930 O.3   501  MTA501     -0.2175
     10  C1'        3.1090   66.1470    7.0320 C.3   501  MTA501      0.3185
     11  N9         3.3850   67.4520    7.6870 N.pl3 501  MTA501     -0.1439
     12  C8         4.4220   67.7480    8.4860 C.3   501  MTA501      0.3377
     13  N7         4.3440   69.0300    8.9420 N.2   501  MTA501     -0.2095
     14  C5         3.2100   69.5540    8.4640 C.2   501  MTA501      0.2526
     15  C6         2.5210   70.8530    8.5690 C.2   501  MTA501      0.4393
     16  N6         3.0580   71.8480    9.3170 N.pl3 501  MTA501      0.2180
     17  N1         1.3510   71.0000    7.9090 N.2   501  MTA501      0.0021
     18  C2         0.7810   70.0300    7.1580 C.3   501  MTA501      0.5254
     19  N3         1.3730   68.8210    7.0180 N.2   501  MTA501     -0.0055
     20  C4         2.5590   68.5250    7.6360 C.2   501  MTA501      0.3518
@<TRIPOS>BOND
     1     9     8    1
     2     7     6    1
     3     8     6    1
     4     8     4    1
     5     6    10    1
     6     1     2    1
     7    19    18    1
     8    19    20    2
     9    10    11    1
    10    10     5    1
    11    18    17    1
    12     4     5    1
    13     4     3    1
    14     2     3    1
    15    20    11    1
    16    20    14    1
    17    11    12    1
    18    17    15    2
    19    14    15    1
    20    14    13    2
    21    12    13    1
    22    15    16    1
