@<TRIPOS>MOLECULE
2o08_DGI_B_1.pdb
 27 29 0 0 0
SMALL
GASTEIGER

@<TRIPOS>ATOM
      1  O1B       49.0420   54.9420   10.4740 O.2   500  DGI500     -0.2221
      2  PB        50.5020   54.9890   10.8560 P.3   500  DGI500      0.5373
      3  O2B       51.0770   56.3640   10.5250 O.3   500  DGI500     -0.1143
      4  O3B       50.8930   54.3140   12.1400 O.3   500  DGI500     -0.1143
      5  O3A       51.2190   54.0160    9.7740 O.3   500  DGI500     -0.2261
      6  PA        50.5790   52.6670    9.0900 P.3   500  DGI500      0.2231
      7  O1A       49.2920   52.9370    8.3270 O.3   500  DGI500     -0.4370
      8  O2A       51.6730   52.1220    8.1790 O.2   500  DGI500     -0.5169
      9  O5'       50.2700   51.7050   10.3910 O.3   500  DGI500     -0.3111
     10  C5'       51.3510   51.2180   11.2090 C.3   500  DGI500      0.1812
     11  C4'       50.9960   49.8540   11.7920 C.3   500  DGI500      0.1772
     12  O4'       50.5820   49.0120   10.7240 O.3   500  DGI500     -0.3347
     13  C3'       52.0940   49.0770   12.5330 C.3   500  DGI500      0.1857
     14  O3'       51.6780   48.7580   13.8650 O.3   500  DGI500     -0.2203
     15  C2'       52.2780   47.7750   11.7790 C.3   500  DGI500      0.0865
     16  C1'       50.9990   47.6790   10.9700 C.3   500  DGI500      0.1981
     17  N9        51.1840   47.0440    9.6580 N.pl3 500  DGI500     -0.2374
     18  C8        51.7370   47.5640    8.5480 C.3   500  DGI500      0.2245
     19  N7        51.7230   46.6590    7.5150 N.2   500  DGI500     -0.2322
     20  C5        51.1450   45.5500    7.9900 C.2   500  DGI500      0.2182
     21  C4        50.7950   45.8230    9.4010 C.2   500  DGI500      0.2299
     22  N3        50.1950   44.8780   10.1700 N.2   500  DGI500     -0.3074
     23  C2        49.9190   43.6590    9.6220 C.1   500  DGI500      0.2531
     24  N2        49.3190   42.7350   10.3970 N.pl3 500  DGI500     -0.0226
     25  N1        50.2290   43.3310    8.3320 N.2   500  DGI500     -0.2485
     26  C6        50.8110   44.1960    7.4830 C.1   500  DGI500      0.2372
     27  O6        51.0590   43.8840    6.3210 O.2   500  DGI500     -0.2069
@<TRIPOS>BOND
     1    27    26    2
     2    26    20    1
     3    26    25    2
     4    19    20    2
     5    19    18    1
     6    20    21    1
     7     8     6    2
     8     7     6    1
     9    25    23    2
    10    18    17    1
    11     6     5    1
    12     6     9    1
    13    21    17    1
    14    21    22    2
    15    23    22    2
    16    23    24    1
    17    17    16    1
    18     5     2    1
    19     9    10    1
    20     1     2    2
    21     3     2    1
    22    12    16    1
    23    12    11    1
    24     2     4    1
    25    16    15    1
    26    10    11    1
    27    15    13    1
    28    11    13    1
    29    13    14    1
