@<TRIPOS>MOLECULE
2o09_HEM_A_1.pdb
 43 50 0 0 0
SMALL
GASTEIGER

@<TRIPOS>ATOM
      1  CHA        3.9580   20.7160   72.6690 C.2   500  HEM500      0.0000
      2  CHB        1.8360   16.4220   71.6950 C.2   500  HEM500      0.0000
      3  CHC        2.6340   17.1820   67.0150 C.2   500  HEM500      0.0000
      4  CHD        4.1320   21.7330   67.8970 C.2   500  HEM500      0.0000
      5  C1A        3.3490   19.4740   72.7810 C.2   500  HEM500      0.0000
      6  C2A        3.1180   18.7840   74.0360 C.2   500  HEM500      0.0000
      7  C3A        2.5520   17.6120   73.7780 C.2   500  HEM500      0.0000
      8  C4A        2.3780   17.5020   72.3480 C.2   500  HEM500      0.0000
      9  CMA        2.1580   16.5670   74.8550 C.3   500  HEM500      0.0000
     10  CAA        3.4850   19.3070   75.4520 C.3   500  HEM500      0.0000
     11  CBA        2.5530   20.4390   75.8890 C.3   500  HEM500      0.0000
     12  CGA        2.3170   20.3430   77.3750 C.2   500  HEM500      0.0000
     13  O1A        2.8730   19.4160   78.0150 O.co2 500  HEM500      0.0000
     14  O2A        1.5820   21.1970   77.9300 O.co2 500  HEM500      0.0000
     15  C1B        1.9230   16.2080   70.3370 C.ar  500  HEM500      0.0000
     16  C2B        1.6000   14.9910   69.6120 C.ar  500  HEM500      0.0000
     17  C3B        1.8160   15.2160   68.3150 C.ar  500  HEM500      0.0000
     18  C4B        2.2850   16.5720   68.1850 C.ar  500  HEM500      0.0000
     19  CMB        1.0910   13.6910   70.2730 C.3   500  HEM500      0.0000
     20  CAB        1.6530   14.2620   67.1030 C.2   500  HEM500      0.0000
     21  CBB        0.5820   13.4820   66.9290 C.2   500  HEM500      0.0000
     22  C1C        3.1190   18.4520   66.8940 C.2   500  HEM500      0.0000
     23  C2C        3.5380   19.0070   65.6450 C.2   500  HEM500      0.0000
     24  C3C        3.9440   20.2440   65.8580 C.2   500  HEM500      0.0000
     25  C4C        3.8030   20.5460   67.2680 C.2   500  HEM500      0.0000
     26  CMC        3.5560   18.2780   64.2840 C.3   500  HEM500      0.0000
     27  CAC        4.4860   21.1510   64.7310 C.2   500  HEM500      0.0000
     28  CBC        4.2660   22.4690   64.7580 C.2   500  HEM500      0.0000
     29  C1D        4.3620   21.8660   69.2560 C.ar  500  HEM500      0.0000
     30  C2D        5.1090   22.9250   69.9180 C.ar  500  HEM500      0.0000
     31  C3D        5.0500   22.6120   71.4130 C.ar  500  HEM500      0.0000
     32  C4D        4.2940   21.3730   71.5050 C.ar  500  HEM500      0.0000
     33  CMD        5.7890   24.1290   69.2390 C.3   500  HEM500      0.0000
     34  CAD        5.6850   23.4260   72.5790 C.3   500  HEM500      0.0000
     35  CBD        4.6230   23.9040   73.5820 C.3   500  HEM500      0.0000
     36  CGD        4.4340   25.4120   73.5270 C.2   500  HEM500      0.0000
     37  O1D        4.8220   26.0530   72.5250 O.co2 500  HEM500      0.0000
     38  O2D        3.8470   25.9820   74.4740 O.co2 500  HEM500      0.0000
     39  NA         2.8700   18.6690   71.7520 N.2   500  HEM500      0.0000
     40  NB         2.3350   17.1560   69.4260 N.ar  500  HEM500      0.0000
     41  NC         3.2840   19.4220   67.8890 N.2   500  HEM500      0.0000
     42  ND         3.9140   20.9810   70.2260 N.ar  500  HEM500      0.0000
     43 FE          2.8260   19.2010   69.8290 Fe    500  HEM500      0.0000
@<TRIPOS>BOND
     1    26    23    1
     2    27    28    2
     3    27    24    1
     4    23    24    2
     5    23    22    1
     6    24    25    1
     7    22     3    2
     8    22    41    1
     9    21    20    2
    10     3    18    1
    11    20    17    1
    12    25    41    2
    13    25     4    1
    14    41    43    1
    15     4    29    2
    16    18    17   ar
    17    18    40   ar
    18    17    16   ar
    19    33    30    1
    20    29    30   ar
    21    29    42   ar
    22    40    43    1
    23    40    15   ar
    24    16    19    1
    25    16    15   ar
    26    43    42    1
    27    43    39    1
    28    30    31   ar
    29    42    32   ar
    30    15     2    1
    31    31    32   ar
    32    31    34    1
    33    32     1    2
    34     2     8    2
    35    39     8    1
    36    39     5    2
    37     8     7    1
    38    37    36   ar
    39    34    35    1
    40     1     5    1
    41     5     6    1
    42    36    35    1
    43    36    38   ar
    44     7     6    2
    45     7     9    1
    46     6    10    1
    47    10    11    1
    48    11    12    1
    49    12    14   ar
    50    12    13   ar
