@<TRIPOS>MOLECULE
2o0b_S3P_A_1.pdb
 16 16 0 0 0
SMALL
GASTEIGER

@<TRIPOS>ATOM
      1  C1         3.2890   31.3330   17.5450 C.2   702  S3P702      0.0583
      2  C2         2.1500   32.0010   17.7690 C.2   702  S3P702      0.0084
      3  C3         1.0190   31.5280   18.6200 C.3   702  S3P702      0.1809
      4  C4         1.5680   30.4790   19.5940 C.3   702  S3P702      0.2140
      5  C5         2.3830   29.4570   18.8150 C.3   702  S3P702      0.1895
      6  C6         3.6380   30.0880   18.2690 C.3   702  S3P702      0.0684
      7  C7         4.2870   31.9480   16.6030 C.2   702  S3P702      0.3837
      8  O1        -0.0420   31.0480   17.6830 O.3   702  S3P702     -0.2655
      9  O2         0.4390   29.9250   20.2750 O.3   702  S3P702     -0.2174
     10  O3         2.7230   28.3320   19.6320 O.3   702  S3P702     -0.2200
     11  O4         3.8690   32.8060   15.7810 O.co2 702  S3P702     -0.2409
     12  O5         5.4810   31.5930   16.6800 O.co2 702  S3P702     -0.2409
     13  P1        -1.6710   31.3960   17.7640 P.3   702  S3P702      0.5329
     14  O6        -1.7380   32.8870   17.7140 O.3   702  S3P702     -0.1145
     15  O7        -2.1480   30.8120   19.0980 O.3   702  S3P702     -0.1145
     16  O8        -2.3240   30.6370   16.5680 O.2   702  S3P702     -0.2224
@<TRIPOS>BOND
     1    11     7   ar
     2    16    13    2
     3     7    12   ar
     4     7     1    1
     5     1     2    2
     6     1     6    1
     7     8    13    1
     8     8     3    1
     9    14    13    1
    10    13    15    1
    11     2     3    1
    12     6     5    1
    13     3     4    1
    14     5     4    1
    15     5    10    1
    16     4     9    1
