@<TRIPOS>MOLECULE
2o0c_HEM_A_1.pdb
 43 50 0 0 0
SMALL
GASTEIGER

@<TRIPOS>ATOM
      1  CHA        4.2440   20.6240   72.5200 C.2   500  HEM500      0.0000
      2  CHB        2.0270   16.4270   71.5870 C.2   500  HEM500      0.0000
      3  CHC        3.0480   17.1600   66.9300 C.2   500  HEM500      0.0000
      4  CHD        4.2330   21.7420   67.8080 C.2   500  HEM500      0.0000
      5  C1A        3.6160   19.4130   72.6540 C.2   500  HEM500      0.0000
      6  C2A        3.3930   18.7520   73.9240 C.2   500  HEM500      0.0000
      7  C3A        2.7840   17.5890   73.6640 C.2   500  HEM500      0.0000
      8  C4A        2.6110   17.4820   72.2370 C.2   500  HEM500      0.0000
      9  CMA        2.3370   16.5170   74.6760 C.3   500  HEM500      0.0000
     10  CAA        3.8070   19.3150   75.3090 C.3   500  HEM500      0.0000
     11  CBA        2.7510   20.2850   75.8400 C.3   500  HEM500      0.0000
     12  CGA        2.5100   20.1670   77.3330 C.2   500  HEM500      0.0000
     13  O1A        2.9460   19.1890   78.0020 O.co2 500  HEM500      0.0000
     14  O2A        1.8590   21.0780   77.8930 O.co2 500  HEM500      0.0000
     15  C1B        2.1850   16.2380   70.2420 C.ar  500  HEM500      0.0000
     16  C2B        1.8940   15.0220   69.5140 C.ar  500  HEM500      0.0000
     17  C3B        2.1910   15.2410   68.2340 C.ar  500  HEM500      0.0000
     18  C4B        2.6650   16.5960   68.1050 C.ar  500  HEM500      0.0000
     19  CMB        1.3730   13.7240   70.1480 C.3   500  HEM500      0.0000
     20  CAB        2.0690   14.2770   67.0470 C.2   500  HEM500      0.0000
     21  CBB        1.0880   13.3760   67.0410 C.2   500  HEM500      0.0000
     22  C1C        3.4490   18.4550   66.7850 C.2   500  HEM500      0.0000
     23  C2C        3.8530   19.0330   65.5250 C.2   500  HEM500      0.0000
     24  C3C        4.1830   20.2970   65.7480 C.2   500  HEM500      0.0000
     25  C4C        3.9990   20.5600   67.1640 C.2   500  HEM500      0.0000
     26  CMC        3.9080   18.2970   64.1700 C.3   500  HEM500      0.0000
     27  CAC        4.6650   21.2660   64.6610 C.2   500  HEM500      0.0000
     28  CBC        4.5770   22.5880   64.8370 C.2   500  HEM500      0.0000
     29  C1D        4.5180   21.8400   69.1510 C.ar  500  HEM500      0.0000
     30  C2D        5.2800   22.8890   69.8020 C.ar  500  HEM500      0.0000
     31  C3D        5.2780   22.5440   71.2920 C.ar  500  HEM500      0.0000
     32  C4D        4.5250   21.3110   71.3660 C.ar  500  HEM500      0.0000
     33  CMD        5.9280   24.1080   69.1250 C.3   500  HEM500      0.0000
     34  CAD        5.9550   23.3230   72.4540 C.3   500  HEM500      0.0000
     35  CBD        4.9170   23.7660   73.4800 C.3   500  HEM500      0.0000
     36  CGD        4.6870   25.2670   73.4670 C.2   500  HEM500      0.0000
     37  O1D        4.9090   25.9590   72.4380 O.co2 500  HEM500      0.0000
     38  O2D        4.2630   25.7910   74.5220 O.co2 500  HEM500      0.0000
     39  NA         3.1310   18.6100   71.6370 N.2   500  HEM500      0.0000
     40  NB         2.6600   17.1920   69.3510 N.ar  500  HEM500      0.0000
     41  NC         3.5500   19.4120   67.7770 N.2   500  HEM500      0.0000
     42  ND         4.1000   20.9320   70.0990 N.ar  500  HEM500      0.0000
     43 FE          3.1630   19.1290   69.7570 Fe    500  HEM500      0.0000
@<TRIPOS>BOND
     1    26    23    1
     2    27    28    2
     3    27    24    1
     4    23    24    2
     5    23    22    1
     6    24    25    1
     7    22     3    2
     8    22    41    1
     9     3    18    1
    10    21    20    2
    11    20    17    1
    12    25    41    2
    13    25     4    1
    14    41    43    1
    15     4    29    2
    16    18    17   ar
    17    18    40   ar
    18    17    16   ar
    19    33    30    1
    20    29    30   ar
    21    29    42   ar
    22    40    43    1
    23    40    15   ar
    24    16    19    1
    25    16    15   ar
    26    43    42    1
    27    43    39    1
    28    30    31   ar
    29    42    32   ar
    30    15     2    1
    31    31    32   ar
    32    31    34    1
    33    32     1    2
    34     2     8    2
    35    39     8    1
    36    39     5    2
    37     8     7    1
    38    37    36   ar
    39    34    35    1
    40     1     5    1
    41     5     6    1
    42    36    35    1
    43    36    38   ar
    44     7     6    2
    45     7     9    1
    46     6    10    1
    47    10    11    1
    48    11    12    1
    49    12    14   ar
    50    12    13   ar
