@<TRIPOS>MOLECULE
2o0d_S3P_A_1.pdb
 16 16 0 0 0
SMALL
GASTEIGER

@<TRIPOS>ATOM
      1  C1         3.1960   31.3190   17.4600 C.2   501  S3P501      0.0583
      2  C2         2.0910   32.0510   17.7080 C.2   501  S3P501      0.0084
      3  C3         0.9700   31.5650   18.5860 C.3   501  S3P501      0.1809
      4  C4         1.5130   30.5060   19.5530 C.3   501  S3P501      0.2140
      5  C5         2.2870   29.4380   18.7750 C.3   501  S3P501      0.1895
      6  C6         3.5670   30.0850   18.2450 C.3   501  S3P501      0.0684
      7  C7         4.1840   31.9250   16.5640 C.2   501  S3P501      0.3837
      8  O1        -0.0510   31.0130   17.6620 O.3   501  S3P501     -0.2655
      9  O2         0.3420   29.8920   20.1600 O.3   501  S3P501     -0.2174
     10  O3         2.5780   28.3420   19.6620 O.3   501  S3P501     -0.2200
     11  O4         3.8720   32.7910   15.7120 O.co2 501  S3P501     -0.2409
     12  O5         5.3760   31.5440   16.6760 O.co2 501  S3P501     -0.2409
     13  P1        -1.6940   31.3440   17.7670 P.3   501  S3P501      0.5329
     14  O6        -1.8080   32.8610   17.6900 O.3   501  S3P501     -0.1145
     15  O7        -2.0420   30.7720   19.1150 O.3   501  S3P501     -0.1145
     16  O8        -2.2600   30.5870   16.5340 O.2   501  S3P501     -0.2224
@<TRIPOS>BOND
     1    11     7   ar
     2    16    13    2
     3     7    12   ar
     4     7     1    1
     5     1     2    2
     6     1     6    1
     7     8    13    1
     8     8     3    1
     9    14    13    1
    10     2     3    1
    11    13    15    1
    12     6     5    1
    13     3     4    1
    14     5     4    1
    15     5    10    1
    16     4     9    1
