@<TRIPOS>MOLECULE
2o0e_S3P_A_1.pdb
 16 16 0 0 0
SMALL
GASTEIGER

@<TRIPOS>ATOM
      1  C1         3.2050   31.3720   17.3620 C.3   501  S3P501      0.1085
      2  C2         2.1330   32.1430   17.6660 C.3   501  S3P501      0.0442
      3  C3         0.9770   31.6470   18.5020 C.3   501  S3P501      0.1595
      4  C4         1.5430   30.5960   19.4740 C.3   501  S3P501      0.2095
      5  C5         2.3210   29.5190   18.7150 C.3   501  S3P501      0.1851
      6  C6         3.6040   30.1440   18.1410 C.3   501  S3P501      0.0470
      7  C7         4.2300   32.0110   16.5070 C.2   501  S3P501      0.3645
      8  O1        -0.0600   31.1100   17.5950 O.3   501  S3P501     -0.2701
      9  O2         0.4250   30.0740   20.2000 O.3   501  S3P501     -0.2178
     10  O3         2.6740   28.4420   19.6050 O.3   501  S3P501     -0.2203
     11  O4         3.8290   32.8360   15.6500 O.co2 501  S3P501     -0.2457
     12  O5         5.3980   31.5520   16.5270 O.co2 501  S3P501     -0.2457
     13  P1        -1.7370   31.3930   17.7480 P.3   501  S3P501      0.5326
     14  O6        -1.8660   32.9080   17.7250 O.3   501  S3P501     -0.1145
     15  O7        -1.9990   30.7850   19.1140 O.3   501  S3P501     -0.1145
     16  O8        -2.2310   30.6730   16.4790 O.2   501  S3P501     -0.2224
@<TRIPOS>BOND
     1    11     7   ar
     2    16    13    2
     3     7    12   ar
     4     7     1    1
     5     1     2    1
     6     1     6    1
     7     8    13    1
     8     8     3    1
     9     2     3    1
    10    14    13    1
    11    13    15    1
    12     6     5    1
    13     3     4    1
    14     5     4    1
    15     5    10    1
    16     4     9    1
