@<TRIPOS>MOLECULE
2o0e_PEP_A_1.pdb
 10 9 0 0 0
SMALL
GASTEIGER

@<TRIPOS>ATOM
      1  C1         2.6800   25.9190   20.8090 C.2   502  PEP502      0.4216
      2  O1         2.1720   25.7950   21.8050 O.co2 502  PEP502     -0.2371
      3  O2'        3.8310   25.9330   20.8960 O.co2 502  PEP502     -0.2371
      4  C2         1.8600   26.0490   19.5190 C.2   502  PEP502      0.2283
      5  C3         0.5770   26.3550   19.2430 C.2   502  PEP502      0.0477
      6  O2         2.8360   25.7110   18.3000 O.2   502  PEP502     -0.3930
      7  P          2.3900   25.7800   16.7100 P.3   502  PEP502      0.5889
      8  O1P        1.1200   26.5790   16.5060 O.3   502  PEP502     -0.1039
      9  O2P        2.2310   24.5000   15.9180 O.2   502  PEP502     -0.2114
     10  O3P        3.3450   26.6580   15.9340 O.3   502  PEP502     -0.1039
@<TRIPOS>BOND
     1     9     7    2
     2    10     7    1
     3     8     7    1
     4     7     6    1
     5     6     4    1
     6     5     4    2
     7     4     1    1
     8     1     3   ar
     9     1     2   ar
