@<TRIPOS>MOLECULE
2o0g_HEM_A_1.pdb
 43 50 0 0 0
SMALL
GASTEIGER

@<TRIPOS>ATOM
      1  CHA        4.4870   20.8040   72.4160 C.2   500  HEM500      0.0000
      2  CHB        2.3210   16.6590   71.0150 C.2   500  HEM500      0.0000
      3  CHC        3.3080   17.8500   66.4330 C.2   500  HEM500      0.0000
      4  CHD        4.6340   22.3820   67.7710 C.2   500  HEM500      0.0000
      5  C1A        3.8310   19.5740   72.4150 C.2   500  HEM500      0.0000
      6  C2A        3.4710   18.8190   73.6020 C.2   500  HEM500      0.0000
      7  C3A        2.8870   17.6770   73.2180 C.2   500  HEM500      0.0000
      8  C4A        2.8540   17.6690   71.7750 C.2   500  HEM500      0.0000
      9  CMA        2.3170   16.5400   74.1040 C.3   500  HEM500      0.0000
     10  CAA        3.7400   19.2770   75.0470 C.3   500  HEM500      0.0000
     11  CBA        2.6540   20.2600   75.4760 C.3   500  HEM500      0.0000
     12  CGA        2.5930   20.3580   76.9790 C.2   500  HEM500      0.0000
     13  O1A        3.0880   19.4320   77.6700 O.co2 500  HEM500      0.0000
     14  O2A        2.0410   21.3670   77.4960 O.co2 500  HEM500      0.0000
     15  C1B        2.4750   16.5860   69.6590 C.ar  500  HEM500      0.0000
     16  C2B        2.2180   15.4260   68.8520 C.ar  500  HEM500      0.0000
     17  C3B        2.4950   15.7520   67.5870 C.ar  500  HEM500      0.0000
     18  C4B        2.9330   17.1320   67.5440 C.ar  500  HEM500      0.0000
     19  CMB        1.7300   14.0620   69.3940 C.3   500  HEM500      0.0000
     20  CAB        2.3650   14.8120   66.3790 C.2   500  HEM500      0.0000
     21  CBB        1.4960   13.7950   66.4670 C.2   500  HEM500      0.0000
     22  C1C        3.7470   19.1650   66.4060 C.2   500  HEM500      0.0000
     23  C2C        4.1500   19.8740   65.2070 C.2   500  HEM500      0.0000
     24  C3C        4.5040   21.1190   65.5350 C.2   500  HEM500      0.0000
     25  C4C        4.3590   21.2630   66.9870 C.2   500  HEM500      0.0000
     26  CMC        4.1580   19.2920   63.7780 C.3   500  HEM500      0.0000
     27  CAC        4.9850   22.1300   64.4680 C.2   500  HEM500      0.0000
     28  CBC        5.1730   23.4300   64.6820 C.2   500  HEM500      0.0000
     29  C1D        4.8900   22.3600   69.1440 C.ar  500  HEM500      0.0000
     30  C2D        5.6690   23.3100   69.9180 C.ar  500  HEM500      0.0000
     31  C3D        5.6200   22.8150   71.3760 C.ar  500  HEM500      0.0000
     32  C4D        4.8190   21.6050   71.3390 C.ar  500  HEM500      0.0000
     33  CMD        6.4010   24.5660   69.4030 C.3   500  HEM500      0.0000
     34  CAD        6.3020   23.4670   72.6060 C.3   500  HEM500      0.0000
     35  CBD        5.2810   23.8720   73.6680 C.3   500  HEM500      0.0000
     36  CGD        4.9220   25.3350   73.5600 C.2   500  HEM500      0.0000
     37  O1D        5.3450   26.0130   72.5870 O.co2 500  HEM500      0.0000
     38  O2D        4.2030   25.8270   74.4660 O.co2 500  HEM500      0.0000
     39  NA         3.4370   18.8350   71.2980 N.2   500  HEM500      0.0000
     40  NB         2.9140   17.6130   68.8370 N.ar  500  HEM500      0.0000
     41  NC         3.8980   20.0400   67.4840 N.2   500  HEM500      0.0000
     42  ND         4.4240   21.3780   70.0240 N.ar  500  HEM500      0.0000
     43 FE          3.6910   19.4540   69.3820 Fe    500  HEM500      0.0000
@<TRIPOS>BOND
     1    26    23    1
     2    27    28    2
     3    27    24    1
     4    23    24    2
     5    23    22    1
     6    24    25    1
     7    20    21    2
     8    20    17    1
     9    22     3    2
    10    22    41    1
    11     3    18    1
    12    25    41    2
    13    25     4    1
    14    41    43    1
    15    18    17   ar
    16    18    40   ar
    17    17    16   ar
    18     4    29    2
    19    40    43    1
    20    40    15   ar
    21    16    19    1
    22    16    15   ar
    23    29    30   ar
    24    29    42   ar
    25    43    42    1
    26    43    39    1
    27    33    30    1
    28    15     2    1
    29    30    31   ar
    30    42    32   ar
    31     2     8    2
    32    39     8    1
    33    39     5    2
    34    32    31   ar
    35    32     1    2
    36    31    34    1
    37     8     7    1
    38     5     1    1
    39     5     6    1
    40    37    36   ar
    41    34    35    1
    42     7     6    2
    43     7     9    1
    44    36    35    1
    45    36    38   ar
    46     6    10    1
    47    10    11    1
    48    11    12    1
    49    12    14   ar
    50    12    13   ar
