@<TRIPOS>MOLECULE
2o0h_ATP_A_1.pdb
 31 33 0 0 0
SMALL
GASTEIGER

@<TRIPOS>ATOM
      1  PG        -7.3970  -15.5040  -23.5740 P.3   400  ATP400      0.5373
      2  O1G       -6.9900  -14.5390  -22.4860 O.3   400  ATP400     -0.1143
      3  O2G       -8.8700  -15.8370  -23.5900 O.3   400  ATP400     -0.1143
      4  O3G       -6.8230  -15.1780  -24.9320 O.2   400  ATP400     -0.2221
      5  PB        -6.5830  -17.4320  -21.6690 P.3   400  ATP400      0.2277
      6  O1B       -5.6230  -16.5440  -20.9140 O.3   400  ATP400     -0.4368
      7  O2B       -6.3350  -18.9200  -21.7160 O.2   400  ATP400     -0.5168
      8  O3B       -6.6850  -16.8990  -23.1870 O.3   400  ATP400     -0.2258
      9  PA        -8.3520  -17.3460  -19.5030 P.3   400  ATP400      0.2189
     10  O1A       -7.7420  -16.1590  -18.7970 O.3   400  ATP400     -0.4371
     11  O2A       -7.9710  -18.7450  -19.0800 O.2   400  ATP400     -0.5170
     12  O3A       -8.0630  -17.1950  -21.0800 O.3   400  ATP400     -0.2700
     13  O5'       -9.9570  -17.2280  -19.4240 O.3   400  ATP400     -0.3112
     14  C5'      -10.6180  -15.9930  -19.7000 C.3   400  ATP400      0.1813
     15  C4'      -12.0240  -15.9910  -19.1060 C.3   400  ATP400      0.1821
     16  O4'      -12.7350  -17.1710  -19.4920 O.3   400  ATP400     -0.3135
     17  C3'      -12.0060  -15.9460  -17.5830 C.3   400  ATP400      0.2184
     18  O3'      -12.5480  -14.7030  -17.1250 O.3   400  ATP400     -0.2174
     19  C2'      -12.8540  -17.1230  -17.1270 C.3   400  ATP400      0.2570
     20  O2'      -13.8590  -16.7140  -16.1930 O.3   400  ATP400     -0.2130
     21  C1'      -13.5040  -17.6650  -18.3920 C.3   400  ATP400      0.3186
     22  N9       -13.5480  -19.1520  -18.3800 N.pl3 400  ATP400     -0.1439
     23  C8       -12.5220  -19.9880  -18.6400 C.3   400  ATP400      0.3377
     24  N7       -12.9090  -21.2870  -18.5420 N.2   400  ATP400     -0.2095
     25  C5       -14.2140  -21.2960  -18.2140 C.2   400  ATP400      0.2526
     26  C6       -15.2500  -22.3290  -17.9530 C.2   400  ATP400      0.4393
     27  N6       -14.9580  -23.6500  -18.0270 N.pl3 400  ATP400      0.2180
     28  N1       -16.5000  -21.9090  -17.6380 N.2   400  ATP400      0.0021
     29  C2       -16.8110  -20.5990  -17.5590 C.3   400  ATP400      0.5254
     30  N3       -15.9220  -19.6110  -17.7830 N.2   400  ATP400     -0.0055
     31  C4       -14.6310  -19.8870  -18.1080 C.2   400  ATP400      0.3518
@<TRIPOS>BOND
     1     4     1    2
     2     3     1    1
     3     1     8    1
     4     1     2    1
     5     8     5    1
     6     7     5    2
     7     5    12    1
     8     5     6    1
     9    12     9    1
    10    14    13    1
    11    14    15    1
    12     9    13    1
    13     9    11    2
    14     9    10    1
    15    16    15    1
    16    16    21    1
    17    15    17    1
    18    23    24    1
    19    23    22    1
    20    24    25    2
    21    21    22    1
    22    21    19    1
    23    22    31    1
    24    25    31    1
    25    25    26    1
    26    31    30    2
    27    27    26    1
    28    26    28    2
    29    30    29    1
    30    28    29    1
    31    17    19    1
    32    17    18    1
    33    19    20    1
