@<TRIPOS>MOLECULE
2o0j_ADP_A_1.pdb
 27 29 0 0 0
SMALL
GASTEIGER

@<TRIPOS>ATOM
      1  PB        -7.3790  -17.1480  -22.2580 P.3   400  ADP400      0.5373
      2  O1B       -6.2660  -17.8750  -22.9740 O.2   400  ADP400     -0.2221
      3  O2B       -8.7400  -17.3460  -22.8810 O.3   400  ADP400     -0.1143
      4  O3B       -7.0540  -15.7140  -21.9160 O.3   400  ADP400     -0.1143
      5  PA        -8.3560  -17.3650  -19.6000 P.3   400  ADP400      0.2231
      6  O1A       -8.3830  -18.4530  -18.5540 O.3   400  ADP400     -0.4370
      7  O2A       -7.8640  -15.9890  -19.2140 O.2   400  ADP400     -0.5169
      8  O3A       -7.4680  -17.9040  -20.8350 O.3   400  ADP400     -0.2261
      9  O5'       -9.8410  -17.2580  -20.2200 O.3   400  ADP400     -0.3111
     10  C5'      -10.5450  -16.0170  -20.2830 C.3   400  ADP400      0.1813
     11  C4'      -11.8440  -16.0850  -19.4830 C.3   400  ADP400      0.1821
     12  O4'      -12.5720  -17.2830  -19.7750 O.3   400  ADP400     -0.3135
     13  C3'      -11.6000  -16.0650  -17.9800 C.3   400  ADP400      0.2184
     14  O3'      -12.0030  -14.8040  -17.4360 O.3   400  ADP400     -0.2174
     15  C2'      -12.4350  -17.2050  -17.4150 C.3   400  ADP400      0.2570
     16  O2'      -13.3140  -16.7490  -16.3810 O.3   400  ADP400     -0.2130
     17  C1'      -13.2410  -17.7330  -18.5930 C.3   400  ADP400      0.3186
     18  N9       -13.3560  -19.2170  -18.5550 N.pl3 400  ADP400     -0.1439
     19  C8       -12.3760  -20.1060  -18.8100 C.3   400  ADP400      0.3377
     20  N7       -12.8230  -21.3820  -18.6850 N.2   400  ADP400     -0.2095
     21  C5       -14.1230  -21.3230  -18.3420 C.2   400  ADP400      0.2526
     22  C6       -15.2050  -22.3010  -18.0520 C.2   400  ADP400      0.4393
     23  N6       -14.9760  -23.6350  -18.1050 N.pl3 400  ADP400      0.2180
     24  N1       -16.4290  -21.8160  -17.7310 N.2   400  ADP400      0.0021
     25  C2       -16.6760  -20.4910  -17.6720 C.3   400  ADP400      0.5254
     26  N3       -15.7430  -19.5500  -17.9230 N.2   400  ADP400     -0.0055
     27  C4       -14.4710  -19.8930  -18.2580 C.2   400  ADP400      0.3518
@<TRIPOS>BOND
     1     2     1    2
     2     3     1    1
     3     1     4    1
     4     1     8    1
     5     8     5    1
     6    10     9    1
     7    10    11    1
     8     9     5    1
     9    12    11    1
    10    12    17    1
    11     5     7    2
    12     5     6    1
    13    11    13    1
    14    19    20    1
    15    19    18    1
    16    20    21    2
    17    17    18    1
    18    17    15    1
    19    18    27    1
    20    21    27    1
    21    21    22    1
    22    27    26    2
    23    23    22    1
    24    22    24    2
    25    13    14    1
    26    13    15    1
    27    26    25    1
    28    24    25    1
    29    15    16    1
