@<TRIPOS>MOLECULE
2o0l_S4M_A_1.pdb
 24 26 0 0 0
SMALL
GASTEIGER

@<TRIPOS>ATOM
      1  CA        29.3720   27.7840   72.5130 C.3   501  S4M501      0.1102
      2  N         30.5300   28.1670   73.3670 N.3   501  S4M501     -0.1314
      3  CB        28.1000   28.4550   73.0130 C.3   501  S4M501      0.0313
      4  CG        28.0150   29.9630   72.7640 C.3   501  S4M501      0.0498
      5  SD        28.2560   30.9090   74.3010 S.3   501  S4M501     -0.1761
      6  CE        26.9180   30.2560   75.3430 C.3   501  S4M501      0.0590
      7  C5'       27.5130   32.4650   73.6640 C.3   501  S4M501      0.0806
      8  C4'       27.7040   33.6460   74.6130 C.3   501  S4M501      0.1622
      9  O4'       27.7730   34.9210   73.9880 O.3   501  S4M501     -0.3153
     10  C1'       27.2030   35.8760   74.8780 C.3   501  S4M501      0.3185
     11  C2'       25.9660   35.1470   75.3870 C.3   501  S4M501      0.2569
     12  O2'       25.4710   35.6910   76.5930 O.3   501  S4M501     -0.2130
     13  C3'       26.5320   33.7500   75.5910 C.3   501  S4M501      0.2168
     14  O3'       27.0770   33.6100   76.8850 O.3   501  S4M501     -0.2175
     15  N9        26.9020   37.1680   74.2030 N.pl3 501  S4M501     -0.1439
     16  C8        25.8370   37.4430   73.3740 C.3   501  S4M501      0.3377
     17  N7        25.9300   38.7110   72.9350 N.2   501  S4M501     -0.2095
     18  C5        27.0520   39.2680   73.4700 C.2   501  S4M501      0.2526
     19  C6        27.6240   40.5480   73.3700 C.2   501  S4M501      0.4393
     20  N6        27.0800   41.5240   72.6210 N.pl3 501  S4M501      0.2180
     21  C4        27.6630   38.3030   74.2850 C.2   501  S4M501      0.3518
     22  N3        28.8230   38.5710   74.9410 N.2   501  S4M501     -0.0055
     23  C2        29.4080   39.8150   74.8280 C.3   501  S4M501      0.5254
     24  N1        28.7960   40.7820   74.0530 N.2   501  S4M501      0.0021
@<TRIPOS>BOND
     1     1     3    1
     2     1     2    1
     3    20    19    1
     4     4     3    1
     5     4     5    1
     6    17    16    1
     7    17    18    2
     8    19    18    1
     9    19    24    2
    10    16    15    1
    11    18    21    1
    12     7     5    1
    13     7     8    1
    14     9     8    1
    15     9    10    1
    16    24    23    1
    17    15    21    1
    18    15    10    1
    19    21    22    2
    20     5     6    1
    21     8    13    1
    22    23    22    1
    23    10    11    1
    24    11    13    1
    25    11    12    1
    26    13    14    1
