@<TRIPOS>MOLECULE
2o0u_C0M_A_1.pdb
 34 38 0 0 0
SMALL
GASTEIGER

@<TRIPOS>ATOM
      1  C1        23.1320    5.8960   31.0130 C.3   2000  C0M2000     0.0488
      2  C2        22.7290    7.2980   31.3720 C.ar  2000  C0M2000    -0.0054
      3  O26       26.9170    7.6100   28.7840 O.2   2000  C0M2000    -0.2748
      4  C25       26.2720    6.7640   29.4180 C.2   2000  C0M2000     0.2273
      5  C27       26.9050    5.4460   29.9010 C.3   2000  C0M2000     0.1026
      6  C28       27.9020    4.7870   28.9260 C.3   2000  C0M2000     0.0817
      7  N29       29.0540    5.6690   28.6640 N.3   2000  C0M2000    -0.2722
      8  C34       30.0040    5.6230   29.7790 C.3   2000  C0M2000     0.0721
      9  C33       31.0200    6.7470   29.5550 C.3   2000  C0M2000     0.0174
     10  C32       31.7720    6.5450   28.2390 C.3   2000  C0M2000     0.0029
     11  C31       30.8060    6.2910   27.0860 C.3   2000  C0M2000     0.0174
     12  C30       29.7560    5.2330   27.4470 C.3   2000  C0M2000     0.0721
     13  N5        24.9730    7.0110   29.7470 N.am  2000  C0M2000    -0.2745
     14  C6        23.9830    5.9310   29.7560 C.3   2000  C0M2000     0.0984
     15  C4        24.5080    8.4170   29.8190 C.3   2000  C0M2000     0.1263
     16  C3        23.4280    8.4700   30.8530 C.ar  2000  C0M2000     0.0252
     17  S9        22.8060    9.9570   31.4690 S.2   2000  C0M2000    -0.0727
     18  C8        21.6010    9.2120   32.4550 C.ar  2000  C0M2000     0.1121
     19  C7        21.7170    7.7510   32.3210 C.ar  2000  C0M2000     0.0862
     20  C10       21.0360    6.7750   32.9210 C.1   2000  C0M2000     0.1019
     21  N11       20.4350    5.9530   33.4280 N.1   2000  C0M2000    -0.1908
     22  N12       20.7650    9.8310   33.2420 N.am  2000  C0M2000    -0.1682
     23  C13       20.7620   11.1620   33.4910 C.2   2000  C0M2000     0.2695
     24  O14       21.3590   11.9900   32.8530 O.2   2000  C0M2000    -0.2680
     25  C15       19.8590   11.5170   34.6210 C.ar  2000  C0M2000     0.0554
     26  C20       19.8730   10.7560   35.8050 C.ar  2000  C0M2000     0.0046
     27  C19       18.9850   11.0330   36.8340 C.ar  2000  C0M2000     0.0001
     28  C18       18.0390   12.0350   36.7230 C.ar  2000  C0M2000     0.0000
     29  C16       18.8550   12.5920   34.4440 C.ar  2000  C0M2000     0.0044
     30  C21       18.7720   13.3800   33.2940 C.ar  2000  C0M2000     0.0001
     31  C22       17.8200   14.3740   33.2360 C.ar  2000  C0M2000     0.0000
     32  C23       16.9190   14.5980   34.3000 C.ar  2000  C0M2000     0.0000
     33  C24       16.9890   13.8410   35.4610 C.ar  2000  C0M2000     0.0000
     34  C17       17.9300   12.8170   35.5700 C.ar  2000  C0M2000     0.0001
@<TRIPOS>BOND
     1    11    12    1
     2    11    10    1
     3    12     7    1
     4    10     9    1
     5     7     6    1
     6     7     8    1
     7     3     4    2
     8     6     5    1
     9     4    13   am
    10     4     5    1
    11     9     8    1
    12    13    14    1
    13    13    15    1
    14    14     1    1
    15    15    16    1
    16    16     2   ar
    17    16    17   ar
    18     1     2    1
    19     2    19   ar
    20    17    18   ar
    21    19    18   ar
    22    19    20    1
    23    18    22    1
    24    24    23    2
    25    20    21    3
    26    31    30   ar
    27    31    32   ar
    28    22    23   am
    29    30    29   ar
    30    23    25    1
    31    32    33   ar
    32    29    25   ar
    33    29    34   ar
    34    25    26   ar
    35    33    34   ar
    36    34    28   ar
    37    26    27   ar
    38    28    27   ar
