@<TRIPOS>MOLECULE
2o0v_ADA_A_1.pdb
 13 13 0 0 0
SMALL
GASTEIGER

@<TRIPOS>ATOM
      1  C1         2.5680   -7.9050   -1.3300 C.3   400  ADA400      0.3028
      2  C2         3.7630   -7.5860   -2.2270 C.3   400  ADA400      0.2435
      3  C3         4.3970   -8.8690   -2.7440 C.3   400  ADA400      0.2204
      4  C4         4.7410   -9.8220   -1.5880 C.3   400  ADA400      0.2229
      5  C5         3.5480  -10.0390   -0.6490 C.3   400  ADA400      0.2530
      6  C6         4.0250  -10.7430    0.5900 C.2   400  ADA400      0.3941
      7  O1         1.5290   -8.5040   -2.1140 O.3   400  ADA400     -0.1869
      8  O2         3.3180   -6.8000   -3.3310 O.3   400  ADA400     -0.2148
      9  O3         5.5530   -8.5260   -3.5230 O.3   400  ADA400     -0.2174
     10  O4         5.8360   -9.3080   -0.8100 O.3   400  ADA400     -0.2171
     11  O5         2.9630   -8.7830   -0.2630 O.3   400  ADA400     -0.3149
     12  O6B        4.6060  -11.8410    0.4690 O.co2 400  ADA400     -0.2429
     13  O6A        3.8430  -10.1990    1.6980 O.co2 400  ADA400     -0.2429
@<TRIPOS>BOND
     1     9     3    1
     2     8     2    1
     3     3     2    1
     4     3     4    1
     5     2     1    1
     6     7     1    1
     7     4    10    1
     8     4     5    1
     9     1    11    1
    10     5    11    1
    11     5     6    1
    12    12     6   ar
    13     6    13   ar
