@<TRIPOS>MOLECULE
2o0x_SKP_A_1.pdb
 26 26 0 0 0
SMALL
GASTEIGER

@<TRIPOS>ATOM
      1  C1         3.3500   31.5570   17.5000 C.3   501  SKP501      0.1084
      2  C2         2.2630   32.2960   17.7950 C.3   501  SKP501      0.0442
      3  C3         1.1130   31.8070   18.6580 C.3   501  SKP501      0.1594
      4  C4         1.7430   30.9010   19.7280 C.3   501  SKP501      0.2064
      5  C5         2.5830   29.8170   19.0650 C.3   501  SKP501      0.1514
      6  C6         3.7950   30.4070   18.3500 C.3   501  SKP501      0.0437
      7  C7         4.3980   32.1290   16.6390 C.2   501  SKP501      0.3645
      8  O1        -0.0170   31.2420   17.8880 O.3   501  SKP501     -0.2701
      9  O2         0.6850   30.3650   20.5590 O.3   501  SKP501     -0.2179
     10  O3         2.8370   28.4580   19.6660 O.3   501  SKP501     -0.3255
     11  O4         4.0760   32.8770   15.6820 O.co2 501  SKP501     -0.2457
     12  O5         5.5710   31.7010   16.7700 O.co2 501  SKP501     -0.2457
     13  P1        -1.6960   31.5090   17.9180 P.3   501  SKP501      0.5326
     14  O6        -1.7910   33.0470   17.7750 O.3   501  SKP501     -0.1145
     15  O7        -2.0610   31.0580   19.3480 O.3   501  SKP501     -0.1145
     16  O8        -2.1550   30.7900   16.6250 O.2   501  SKP501     -0.2224
     17  C8         2.3470   26.9550   19.4880 C.3   501  SKP501      0.2917
     18  C9         0.8250   26.8630   19.5150 C.3   501  SKP501      0.0741
     19  C10        2.9900   26.4400   20.7490 C.2   501  SKP501      0.4155
     20  O9         2.2810   26.0350   21.6010 O.co2 501  SKP501     -0.2402
     21  O10        4.0900   26.5520   21.0310 O.co2 501  SKP501     -0.2402
     22  P2         2.5200   26.1020   16.6520 P.3   501  SKP501      0.5348
     23  O11        1.1570   26.7490   16.4340 O.3   501  SKP501     -0.1145
     24  O12        2.5440   24.7250   16.0580 O.3   501  SKP501     -0.1145
     25  O13        3.6770   26.9480   16.0480 O.2   501  SKP501     -0.2223
     26  O14        2.8520   26.1140   18.2100 O.3   501  SKP501     -0.2386
@<TRIPOS>BOND
     1    11     7   ar
     2    25    22    2
     3    24    22    1
     4    23    22    1
     5    16    13    2
     6     7    12   ar
     7     7     1    1
     8    22    26    1
     9     1     2    1
    10     1     6    1
    11    14    13    1
    12     2     3    1
    13     8    13    1
    14     8     3    1
    15    13    15    1
    16    26    17    1
    17     6     5    1
    18     3     4    1
    19     5    10    1
    20     5     4    1
    21    17    18    1
    22    17    10    1
    23    17    19    1
    24     4     9    1
    25    19    21   ar
    26    19    20   ar
