@<TRIPOS>MOLECULE
2o0z_EPS_A_1.pdb
 21 21 0 0 0
SMALL
GASTEIGER

@<TRIPOS>ATOM
      1  C1         3.2020   31.0880   17.5990 C.2   501  EPS501      0.0594
      2  C2         2.1110   31.7760   17.8150 C.2   501  EPS501      0.0085
      3  C3         0.9820   31.5090   18.7880 C.3   501  EPS501      0.1820
      4  C4         1.3940   30.3090   19.6420 C.3   501  EPS501      0.2235
      5  C5         2.3290   29.3430   19.0140 C.3   501  EPS501      0.2036
      6  C6         3.6420   29.9550   18.5090 C.3   501  EPS501      0.0791
      7  O3        -0.1530   31.1860   17.8850 O.3   501  EPS501     -0.2655
      8  P         -1.8060   31.3490   18.0280 P.3   501  EPS501      0.5329
      9  O1P       -2.3260   30.3720   16.9510 O.2   501  EPS501     -0.2224
     10  O2P       -2.0570   30.8280   19.4580 O.3   501  EPS501     -0.1145
     11  O3P       -2.0950   32.8100   17.8320 O.3   501  EPS501     -0.1145
     12  O4         0.3970   29.9150   20.5720 O.3   501  EPS501     -0.2162
     13  O5         2.6160   28.1910   19.8250 O.2   501  EPS501     -0.4698
     14  C7         1.8250   26.9720   20.1230 C.2   501  EPS501      0.2182
     15  C8         0.6130   26.8340   19.5710 C.2   501  EPS501      0.0471
     16  C9         2.6400   26.1600   21.1190 C.2   501  EPS501      0.4211
     17  O91        2.0380   25.6790   21.9980 O.co2 501  EPS501     -0.2371
     18  O92        3.7500   25.9460   21.0090 O.co2 501  EPS501     -0.2371
     19  C10        4.2450   31.5880   16.6930 C.2   501  EPS501      0.3837
     20  O11        5.4490   31.2910   16.8950 O.co2 501  EPS501     -0.2409
     21  O12        3.9220   32.7260   16.2100 O.co2 501  EPS501     -0.2409
@<TRIPOS>BOND
     1    21    19   ar
     2    19    20   ar
     3    19     1    1
     4     9     8    2
     5     1     2    2
     6     1     6    1
     7     2     3    1
     8    11     8    1
     9     7     8    1
    10     7     3    1
    11     8    10    1
    12     6     5    1
    13     3     4    1
    14     5     4    1
    15     5    13    1
    16    15    14    2
    17     4    12    1
    18    13    14    1
    19    14    16    1
    20    18    16   ar
    21    16    17   ar
