@<TRIPOS>MOLECULE
2o12_FMN_A_1.pdb
 31 33 0 0 0
SMALL
GASTEIGER

@<TRIPOS>ATOM
      1  N1        75.5310   17.5450   23.1370 N.2   593  FMN593     -0.2887
      2  C2        76.3800   18.5570   23.5440 C.1   593  FMN593      0.3669
      3  O2        77.5410   18.2890   23.8120 O.2   593  FMN593     -0.1744
      4  N3        75.9120   19.8520   23.6610 N.2   593  FMN593     -0.2300
      5  C4        74.6140   20.1580   23.3850 C.1   593  FMN593      0.2513
      6  O4        74.2020   21.3150   23.4730 O.2   593  FMN593     -0.2057
      7  C4A       73.7410   19.1380   22.9510 C.2   593  FMN593      0.2706
      8  N5        72.4400   19.4280   22.6740 N.2   593  FMN593     -0.3841
      9  C5A       71.5780   18.3980   22.3050 C.2   593  FMN593      0.1452
     10  C6        70.2490   18.7170   22.0620 C.2   593  FMN593      0.0252
     11  C7        69.3400   17.7420   21.6760 C.2   593  FMN593     -0.0375
     12  C7M       67.8860   18.0800   21.5990 C.3   593  FMN593      0.0268
     13  C8        69.8050   16.4250   21.5370 C.3   593  FMN593      0.0417
     14  C8M       68.7900   15.3380   21.2870 C.3   593  FMN593      0.0091
     15  C9        71.1400   16.0750   21.7920 C.2   593  FMN593     -0.0049
     16  C9A       72.0680   17.0770   22.1710 C.2   593  FMN593      0.0795
     17  N10       73.3950   16.8120   22.3980 N.pl3 593  FMN593     -0.2545
     18  C10       74.2310   17.8330   22.8560 C.2   593  FMN593      0.2449
     19  C1'       74.0280   15.4650   22.2330 C.3   593  FMN593      0.1336
     20  C2'       75.1100   15.3210   21.1420 C.3   593  FMN593      0.2048
     21  O2'       74.6270   15.8260   19.8980 O.3   593  FMN593     -0.2185
     22  C3'       75.5170   13.8510   21.0310 C.3   593  FMN593      0.2165
     23  O3'       75.8710   13.3400   22.3190 O.3   593  FMN593     -0.2175
     24  C4'       76.6660   13.6370   20.0440 C.3   593  FMN593      0.2147
     25  O4'       76.2570   13.9160   18.6830 O.3   593  FMN593     -0.2176
     26  C5'       77.2840   12.2370   20.0690 C.3   593  FMN593      0.1892
     27  O5'       76.2850   11.2920   19.7050 O.3   593  FMN593     -0.2674
     28  P         75.8960   10.1060   20.7550 P.3   593  FMN593      0.5327
     29  O1P       74.5640    9.6720   20.2080 O.2   593  FMN593     -0.2224
     30  O2P       75.7090   10.7920   22.1080 O.3   593  FMN593     -0.1145
     31  O3P       76.9810    9.0880   20.7520 O.3   593  FMN593     -0.1145
@<TRIPOS>BOND
     1    25    24    1
     2    27    26    1
     3    27    28    1
     4    21    20    1
     5    24    26    1
     6    24    22    1
     7    29    28    2
     8    31    28    1
     9    28    30    1
    10    22    20    1
    11    22    23    1
    12    20    19    1
    13    14    13    1
    14    13    11    1
    15    13    15    1
    16    12    11    1
    17    11    10    2
    18    15    16    2
    19    10     9    1
    20    16     9    1
    21    16    17    1
    22    19    17    1
    23     9     8    2
    24    17    18    1
    25     8     7    2
    26    18     7    1
    27    18     1    2
    28     7     5    1
    29     1     2    2
    30     5     6    2
    31     5     4    2
    32     2     4    2
    33     2     3    2
