@<TRIPOS>MOLECULE
2o17_ADA_A_1.pdb
 13 13 0 0 0
SMALL
GASTEIGER

@<TRIPOS>ATOM
      1  C1         2.4590   -7.8230   -1.3930 C.3   400  ADA400      0.3028
      2  C2         3.6530   -7.5360   -2.3000 C.3   400  ADA400      0.2435
      3  C3         4.1790   -8.8380   -2.8760 C.3   400  ADA400      0.2204
      4  C4         4.5070   -9.8440   -1.7570 C.3   400  ADA400      0.2229
      5  C5         3.4150   -9.9250   -0.6640 C.3   400  ADA400      0.2530
      6  C6         3.9060  -10.6580    0.5670 C.2   400  ADA400      0.3941
      7  O1         1.4120   -8.5080   -2.1060 O.3   400  ADA400     -0.1869
      8  O2         3.3310   -6.6240   -3.3490 O.3   400  ADA400     -0.2148
      9  O3         5.3420   -8.5050   -3.6330 O.3   400  ADA400     -0.2174
     10  O4         5.7550   -9.5070   -1.1440 O.3   400  ADA400     -0.2171
     11  O5         2.9280   -8.6210   -0.2950 O.3   400  ADA400     -0.3149
     12  O6B        4.4180  -11.7920    0.4330 O.co2 400  ADA400     -0.2429
     13  O6A        3.7850  -10.1220    1.6910 O.co2 400  ADA400     -0.2429
@<TRIPOS>BOND
     1     9     3    1
     2     8     2    1
     3     3     2    1
     4     3     4    1
     5     2     1    1
     6     7     1    1
     7     4    10    1
     8     4     5    1
     9     1    11    1
    10     5    11    1
    11     5     6    1
    12    12     6   ar
    13     6    13   ar
