@<TRIPOS>MOLECULE
2o1b_PLP_A_1.pdb
 15 15 0 0 0
SMALL
GASTEIGER

@<TRIPOS>ATOM
      1  N1        11.5570  -29.1280  -10.5780 N.2   400  PLP400     -0.2505
      2  C2        12.8090  -28.6190  -10.8690 C.2   400  PLP400      0.0675
      3  C2A       13.6280  -29.2570  -11.9570 C.3   400  PLP400      0.0499
      4  C3        13.2590  -27.5010  -10.1630 C.3   400  PLP400      0.1913
      5  O3        14.4860  -26.9590  -10.4160 O.3   400  PLP400     -0.2167
      6  C4        12.4530  -26.9210   -9.1740 C.3   400  PLP400      0.0581
      7  C4A       12.6910  -25.4760   -8.8490 C.3   400  PLP400      0.0075
      8  C5        11.1970  -27.4580   -8.8800 C.2   400  PLP400      0.0073
      9  C6        10.7550  -28.5730   -9.5920 C.2   400  PLP400      0.0921
     10  C5A       10.3120  -26.8660   -7.7910 C.3   400  PLP400      0.1776
     11  O4P        9.7170  -25.6410   -8.1760 O.3   400  PLP400     -0.2656
     12  P          8.6060  -24.9320   -7.2410 P.3   400  PLP400      0.5329
     13  O1P        9.2170  -23.7040   -6.5860 O.3   400  PLP400     -0.1145
     14  O2P        8.1790  -25.9410   -6.2090 O.3   400  PLP400     -0.1145
     15  O3P        7.4680  -24.5260   -8.1340 O.2   400  PLP400     -0.2224
@<TRIPOS>BOND
     1     3     2    1
     2     2     1    2
     3     2     4    1
     4     1     9    1
     5     5     4    1
     6     4     6    1
     7     9     8    2
     8     6     8    1
     9     6     7    1
    10     8    10    1
    11    11    10    1
    12    11    12    1
    13    15    12    2
    14    12    13    1
    15    12    14    1
