@<TRIPOS>MOLECULE
2o1d_ADA_A_1.pdb
 13 13 0 0 0
SMALL
GASTEIGER

@<TRIPOS>ATOM
      1  C1         2.5970   -7.8570   -1.2750 C.3   400  ADA400      0.3028
      2  C2         3.7580   -7.5420   -2.2090 C.3   400  ADA400      0.2435
      3  C3         4.3670   -8.8210   -2.7640 C.3   400  ADA400      0.2204
      4  C4         4.6910   -9.8400   -1.6550 C.3   400  ADA400      0.2229
      5  C5         3.5270  -10.0260   -0.6740 C.3   400  ADA400      0.2530
      6  C6         4.0230  -10.7630    0.5390 C.2   400  ADA400      0.3941
      7  O1         1.5540   -8.4560   -2.0500 O.3   400  ADA400     -0.1869
      8  O2         3.2600   -6.7850   -3.3040 O.3   400  ADA400     -0.2148
      9  O3         5.5330   -8.4420   -3.5150 O.3   400  ADA400     -0.2174
     10  O4         5.8290   -9.4160   -0.8890 O.3   400  ADA400     -0.2171
     11  O5         3.0380   -8.7460   -0.2390 O.3   400  ADA400     -0.3149
     12  O6B        4.6380  -11.8390    0.3840 O.co2 400  ADA400     -0.2429
     13  O6A        3.8330  -10.2610    1.6680 O.co2 400  ADA400     -0.2429
@<TRIPOS>BOND
     1     9     3    1
     2     8     2    1
     3     3     2    1
     4     3     4    1
     5     2     1    1
     6     7     1    1
     7     4    10    1
     8     4     5    1
     9     1    11    1
    10     5    11    1
    11     5     6    1
    12    12     6   ar
    13     6    13   ar
