@<TRIPOS>MOLECULE
2o1h_UDP_A_1.pdb
 25 26 0 0 0
SMALL
GASTEIGER

@<TRIPOS>ATOM
      1  N1        16.4910   23.3020    7.7350 N.am  500  UDP500     -0.1996
      2  C2        17.6270   24.0610    8.0290 C.1   500  UDP500      0.2802
      3  N3        18.1310   24.0260    9.3510 N.2   500  UDP500     -0.2497
      4  C4        17.5210   23.2560   10.3670 C.1   500  UDP500      0.1941
      5  C5        16.3850   22.4970   10.0310 C.3   500  UDP500      0.1579
      6  C6        16.0260   22.4020    8.6730 C.3   500  UDP500      0.1249
      7  O2        18.1670   24.7600    7.1440 O.2   500  UDP500     -0.1922
      8  O4        17.9790   23.2200   11.5380 O.2   500  UDP500     -0.2133
      9  C1'       15.9470   23.3440    6.3560 C.3   500  UDP500      0.2361
     10  C2'       16.7960   22.4860    5.4270 C.3   500  UDP500      0.2316
     11  O2'       16.6350   22.8670    4.0800 O.3   500  UDP500     -0.2157
     12  C3'       16.0840   21.1740    5.5360 C.3   500  UDP500      0.2158
     13  C4'       14.6110   21.5930    5.5900 C.3   500  UDP500      0.1799
     14  O4'       14.6280   22.8140    6.3090 O.3   500  UDP500     -0.3322
     15  O3'       16.4550   20.4360    4.3880 O.3   500  UDP500     -0.2175
     16  C5'       13.6170   20.6900    6.3150 C.3   500  UDP500      0.1813
     17  O5'       14.2530   19.9900    7.3480 O.3   500  UDP500     -0.3111
     18  PA        14.8860   18.5460    7.0340 P.3   500  UDP500      0.2231
     19  O1A       15.1910   18.4090    5.5660 O.2   500  UDP500     -0.5169
     20  O2A       16.1650   18.2430    7.7540 O.3   500  UDP500     -0.4370
     21  O3A       13.7000   17.5740    7.5480 O.3   500  UDP500     -0.2261
     22  PB        13.2860   16.1710    6.8350 P.3   500  UDP500      0.5373
     23  O1B       14.1240   15.7870    5.6770 O.2   500  UDP500     -0.2221
     24  O2B       13.4960   15.1080    7.8580 O.3   500  UDP500     -0.1143
     25  O3B       11.8480   16.3070    6.4280 O.3   500  UDP500     -0.1143
@<TRIPOS>BOND
     1    11    10    1
     2    15    12    1
     3    10    12    1
     4    10     9    1
     5    12    13    1
     6    19    18    2
     7    13    14    1
     8    13    16    1
     9    23    22    2
    10    14     9    1
    11    16    17    1
    12     9     1    1
    13    25    22    1
    14    22    21    1
    15    22    24    1
    16    18    17    1
    17    18    21    1
    18    18    20    1
    19     7     2    2
    20     1     2   am
    21     1     6    1
    22     2     3    2
    23     6     5    1
    24     3     4    2
    25     5     4    1
    26     4     8    2
