@<TRIPOS>MOLECULE
2o1n_III_P_1.pdb
 24 23 0 0 0
SMALL
GASTEIGER

@<TRIPOS>ATOM
      1  N          3.4920   15.4150  -10.6170 N.3     1  ALA1       -0.1231
      2  CA         3.8160   16.8060  -10.9080 C.3     1  ALA1        0.1694
      3  C          4.8940   17.3500   -9.9910 C.2     1  ALA1        0.2592
      4  O          6.0030   16.8170   -9.9480 O.2     1  ALA1       -0.2718
      5  CB         2.5690   17.6780  -10.9050 C.3     1  ALA1        0.0304
      6  N          4.5670   18.4310   -9.2280 N.am    2  ILE2       -0.1966
      7  CA         5.5310   19.2220   -8.3800 C.3     2  ILE2        0.1727
      8  C          4.9580   19.7650   -6.9840 C.2     2  ILE2        0.2616
      9  O          3.7400   19.6700   -6.7760 O.2     2  ILE2       -0.2715
     10  CB         5.9060   20.5100   -9.2030 C.3     2  ILE2        0.0290
     11  CG1        6.8550   20.3160  -10.3770 C.3     2  ILE2        0.0022
     12  CG2        6.5150   21.5420   -8.2680 C.3     2  ILE2        0.0023
     13  CD1        7.2830   21.5950  -11.0580 C.3     2  ILE2        0.0001
     14  N          5.8030   20.3830   -6.0000 N.am    3  ALA3       -0.1963
     15  CA         5.4500   21.1010   -4.6460 C.3     3  ALA3        0.1728
     16  C          6.0360   22.5620   -4.8490 C.2     3  ALA3        0.2616
     17  O          6.0450   22.9620   -6.0140 O.2     3  ALA3       -0.2715
     18  CB         6.0730   20.4130   -3.4540 C.3     3  ALA3        0.0334
     19  N          6.5720   23.3590   -3.9070 N.am    4  SER4       -0.1950
     20  CA         7.1930   24.6590   -4.3170 C.3     4  SER4        0.1924
     21  C          8.4370   24.3770   -5.1660 C.2     4  SER4        0.2314
     22  O          8.9890   23.2800   -5.1140 O.2     4  SER4       -0.2863
     23  CB         7.5590   25.5690   -3.1200 C.3     4  SER4        0.2116
     24  OG         8.5570   26.5060   -3.4850 O.3     4  SER4       -0.2180
@<TRIPOS>BOND
     1    13    11    1
     2     2     5    1
     3     2     1    1
     4     2     3    1
     5    11    10    1
     6     3     4    2
     7     3     6   am
     8     6     7    1
     9    10     7    1
    10    10    12    1
    11     7     8    1
    12     8     9    2
    13     8    14   am
    14    17    16    2
    15    14    15    1
    16    21    22    2
    17    21    20    1
    18    16    15    1
    19    16    19   am
    20    15    18    1
    21    20    19    1
    22    20    23    1
    23    24    23    1
