@<TRIPOS>MOLECULE
2o1o_RIS_A_1.pdb
 17 17 0 0 0
SMALL
GASTEIGER

@<TRIPOS>ATOM
      1  O12      -14.6710    9.3980   12.2020 O.2   400  RIS400     -0.4572
      2  P9       -14.3820    8.2380   13.1220 P.3   400  RIS400      0.1514
      3  O11      -13.6220    8.5190   14.3970 O.3   400  RIS400     -0.3553
      4  O10      -13.7300    7.0180   12.5090 O.3   400  RIS400     -0.3553
      5  C8       -15.9900    7.6320   13.7040 C.3   400  RIS400      0.2200
      6  O13      -15.8040    6.5060   14.5370 O.3   400  RIS400     -0.2105
      7  P14      -16.8700    8.8880   14.6130 P.3   400  RIS400      0.1514
      8  O16      -16.0110    9.3570   15.7120 O.3   400  RIS400     -0.3553
      9  O15      -17.1780    9.9400   13.6250 O.2   400  RIS400     -0.4572
     10  O17      -17.9890    8.0120   15.0230 O.3   400  RIS400     -0.3553
     11  C7       -16.7280    7.1260   12.4340 C.3   400  RIS400      0.0725
     12  C2       -18.1340    6.6110   12.7310 C.ar  400  RIS400      0.0004
     13  C1       -19.1770    7.0790   11.9230 C.ar  400  RIS400     -0.0010
     14  C6       -20.4240    6.4770   12.0280 C.ar  400  RIS400      0.0204
     15  C5       -20.5950    5.4360   12.9030 C.ar  400  RIS400      0.0989
     16  N4       -19.5920    5.0030   13.6870 N.ar  400  RIS400     -0.2426
     17  C3       -18.3750    5.5580   13.6100 C.ar  400  RIS400      0.0947
@<TRIPOS>BOND
     1    13    14   ar
     2    13    12   ar
     3    14    15   ar
     4     1     2    2
     5    11    12    1
     6    11     5    1
     7     4     2    1
     8    12    17   ar
     9    15    16   ar
    10     2     5    1
    11     2     3    1
    12    17    16   ar
    13     9     7    2
    14     5     6    1
    15     5     7    1
    16     7    10    1
    17     7     8    1
