@<TRIPOS>MOLECULE
2o1s_TDP_A_1.pdb
 26 27 0 0 0
SMALL
GASTEIGER

@<TRIPOS>ATOM
      1  N1'       94.5230  126.8920   74.1320 N.2   3001  TDP3001    -0.1861
      2  C2'       94.0060  127.4490   75.2360 C.1   3001  TDP3001     0.0663
      3  C2A       92.7550  126.8470   75.8780 C.3   3001  TDP3001     0.1291
      4  N3'       94.5810  128.5370   75.7720 N.2   3001  TDP3001    -0.3368
      5  C4'       95.6730  129.0830   75.2170 C.2   3001  TDP3001     0.2292
      6  N4'       96.2450  130.1390   75.7900 N.pl3 3001  TDP3001    -0.0925
      7  C5'       96.2230  128.5240   74.0670 C.2   3001  TDP3001     0.0654
      8  C6'       95.5960  127.3980   73.5470 C.2   3001  TDP3001     0.1115
      9  C35       97.4580  129.0540   73.3330 C.3   3001  TDP3001     0.1237
     10  N3        97.2340  130.4360   72.8810 N.pl3 3001  TDP3001    -0.2970
     11  C2        97.6590  131.4680   73.6120 C.3   3001  TDP3001     0.1543
     12  S1        97.3970  132.9240   72.6850 S.3   3001  TDP3001    -0.0951
     13  C5        96.5010  132.0850   71.4500 C.2   3001  TDP3001     0.0164
     14  C4        96.6330  130.7260   71.7220 C.2   3001  TDP3001     0.0279
     15  C4A       96.1240  129.6580   70.7520 C.3   3001  TDP3001     0.0473
     16  C5A       95.7480  132.8020   70.3280 C.3   3001  TDP3001     0.0661
     17  C5B       94.7560  133.8070   70.9160 C.3   3001  TDP3001     0.1544
     18  O5G       94.1440  134.5500   69.8600 O.3   3001  TDP3001    -0.3134
     19  P1        93.4260  135.9500   70.2010 P.3   3001  TDP3001     0.2230
     20  O11       94.6040  137.0000   70.5230 O.3   3001  TDP3001    -0.2261
     21  O12       92.7110  136.4390   68.8460 O.2   3001  TDP3001    -0.5169
     22  O13       92.4630  135.8470   71.3210 O.3   3001  TDP3001    -0.4370
     23  P2        95.8100  137.3090   69.5000 P.3   3001  TDP3001     0.5373
     24  O21       96.7690  138.3380   70.2820 O.3   3001  TDP3001    -0.1143
     25  O22       96.6600  135.9520   69.3440 O.3   3001  TDP3001    -0.1143
     26  O23       95.3860  137.8530   68.1910 O.2   3001  TDP3001    -0.2221
@<TRIPOS>BOND
     1    26    23    2
     2    21    19    2
     3    25    23    1
     4    23    24    1
     5    23    20    1
     6    18    19    1
     7    18    17    1
     8    19    20    1
     9    19    22    1
    10    16    17    1
    11    16    13    1
    12    15    14    1
    13    13    14    2
    14    13    12    1
    15    14    10    1
    16    12    11    1
    17    10     9    1
    18    10    11    1
    19     9     7    1
    20     8     7    2
    21     8     1    1
    22     7     5    1
    23     1     2    2
    24     5     4    2
    25     5     6    1
    26     2     4    2
    27     2     3    1
