@<TRIPOS>MOLECULE
2o1u_ANP_A_1.pdb
 31 33 0 0 0
SMALL
GASTEIGER

@<TRIPOS>ATOM
      1  PG        20.9880   21.5610   46.0200 P.3   755  ANP755      0.4884
      2  O1G       21.5050   20.3570   46.7610 O.3   755  ANP755     -0.1240
      3  O2G       21.8140   22.8050   46.2580 O.3   755  ANP755     -0.1240
      4  O3G       20.7350   21.2590   44.5590 O.2   755  ANP755     -0.2331
      5  PB        19.0760   21.3910   48.3350 P.3   755  ANP755      0.4669
      6  O1B       17.6500   21.7250   48.7030 O.2   755  ANP755     -0.2351
      7  O2B       20.1910   21.8950   49.2120 O.3   755  ANP755     -0.1253
      8  N3B       19.4140   21.9180   46.7020 N.3   755  ANP755     -0.0163
      9  PA        19.8640   18.8140   49.3370 P.3   755  ANP755      0.2220
     10  O1A       21.3010   19.2200   49.5360 O.3   755  ANP755     -0.4370
     11  O2A       19.5470   17.4110   48.8710 O.2   755  ANP755     -0.5170
     12  O3A       19.1450   19.7850   48.2690 O.3   755  ANP755     -0.2360
     13  O5'       18.9740   19.0610   50.6570 O.3   755  ANP755     -0.3111
     14  C5'       17.5880   18.7280   50.5520 C.3   755  ANP755      0.1813
     15  C4'       16.7820   19.2630   51.7260 C.3   755  ANP755      0.1821
     16  O4'       17.2130   18.6770   52.9620 O.3   755  ANP755     -0.3135
     17  C3'       16.8860   20.7680   51.8960 C.3   755  ANP755      0.2184
     18  O3'       15.8660   21.4340   51.1380 O.3   755  ANP755     -0.2174
     19  C2'       16.7110   20.9490   53.3970 C.3   755  ANP755      0.2570
     20  O2'       15.3470   21.2150   53.7430 O.3   755  ANP755     -0.2130
     21  C1'       17.1270   19.6230   54.0260 C.3   755  ANP755      0.3186
     22  N9        18.4590   19.8260   54.6350 N.pl3 755  ANP755     -0.1439
     23  C8        19.6180   19.3280   54.1730 C.3   755  ANP755      0.3377
     24  N7        20.6540   19.7110   54.9560 N.2   755  ANP755     -0.2095
     25  C5        20.1600   20.4840   55.9420 C.2   755  ANP755      0.2526
     26  C6        20.7080   21.2210   57.1080 C.2   755  ANP755      0.4393
     27  N6        22.0370   21.2120   57.3840 N.pl3 755  ANP755      0.2180
     28  N1        19.8370   21.9040   57.8840 N.2   755  ANP755      0.0021
     29  C2        18.5140   21.9290   57.6300 C.3   755  ANP755      0.5254
     30  N3        17.9470   21.2840   56.5970 N.2   755  ANP755     -0.0055
     31  C4        18.7060   20.5570   55.7290 C.2   755  ANP755      0.3518
@<TRIPOS>BOND
     1     4     1    2
     2     1     3    1
     3     1     8    1
     4     1     2    1
     5     8     5    1
     6    12     5    1
     7    12     9    1
     8     5     6    2
     9     5     7    1
    10    11     9    2
    11     9    10    1
    12     9    13    1
    13    14    13    1
    14    14    15    1
    15    18    17    1
    16    15    17    1
    17    15    16    1
    18    17    19    1
    19    16    21    1
    20    19    20    1
    21    19    21    1
    22    21    22    1
    23    23    22    1
    24    23    24    1
    25    22    31    1
    26    24    25    2
    27    31    25    1
    28    31    30    2
    29    25    26    1
    30    30    29    1
    31    26    27    1
    32    26    28    2
    33    29    28    1
