@<TRIPOS>MOLECULE
2o1v_ADP_A_1.pdb
 27 29 0 0 0
SMALL
GASTEIGER

@<TRIPOS>ATOM
      1  PB        18.4290   21.1490   48.5960 P.3   301  ADP301      0.5373
      2  O1B       17.4630   21.7750   49.5140 O.3   301  ADP301     -0.1143
      3  O2B       18.1080   21.4990   47.0530 O.2   301  ADP301     -0.2221
      4  O3B       19.9400   21.6790   48.7780 O.3   301  ADP301     -0.1143
      5  PA        19.4480   18.6710   49.5590 P.3   301  ADP301      0.2231
      6  O1A       19.1840   17.2610   49.1670 O.2   301  ADP301     -0.5169
      7  O2A       20.8320   19.2030   49.4990 O.3   301  ADP301     -0.4370
      8  O3A       18.4150   19.5560   48.6720 O.3   301  ADP301     -0.2261
      9  O5'       18.7750   18.8750   51.0200 O.3   301  ADP301     -0.3111
     10  C5'       17.3750   18.5330   51.1060 C.3   301  ADP301      0.1813
     11  C4'       16.6520   19.1610   52.3100 C.3   301  ADP301      0.1821
     12  O4'       17.0750   18.5060   53.5510 O.3   301  ADP301     -0.3135
     13  C3'       16.9370   20.6430   52.5460 C.3   301  ADP301      0.2184
     14  O3'       16.1390   21.4330   51.6460 O.3   301  ADP301     -0.2174
     15  C2'       16.4450   20.7710   53.9880 C.3   301  ADP301      0.2570
     16  O2'       15.0020   20.7580   54.0500 O.3   301  ADP301     -0.2130
     17  C1'       16.9800   19.4770   54.6250 C.3   301  ADP301      0.3186
     18  N9        18.3390   19.6820   55.1600 N.pl3 301  ADP301     -0.1439
     19  C8        19.4650   19.1440   54.6860 C.3   301  ADP301      0.3377
     20  N7        20.4970   19.5630   55.4190 N.2   301  ADP301     -0.2095
     21  C5        20.0250   20.3780   56.3640 C.2   301  ADP301      0.2526
     22  C6        20.6030   21.1040   57.4060 C.2   301  ADP301      0.4393
     23  N6        21.9160   21.0870   57.6340 N.pl3 301  ADP301      0.2180
     24  N1        19.8050   21.8340   58.1920 N.2   301  ADP301      0.0021
     25  C2        18.4950   21.8860   58.0010 C.3   301  ADP301      0.5254
     26  N3        17.9140   21.2070   57.0300 N.2   301  ADP301     -0.0055
     27  C4        18.6510   20.4480   56.2000 C.2   301  ADP301      0.3518
@<TRIPOS>BOND
     1     3     1    2
     2     1     8    1
     3     1     4    1
     4     1     2    1
     5     8     5    1
     6     6     5    2
     7     7     5    1
     8     5     9    1
     9     9    10    1
    10    10    11    1
    11    14    13    1
    12    11    13    1
    13    11    12    1
    14    13    15    1
    15    12    17    1
    16    15    16    1
    17    15    17    1
    18    17    18    1
    19    19    18    1
    20    19    20    1
    21    18    27    1
    22    20    21    2
    23    27    21    1
    24    27    26    2
    25    21    22    1
    26    26    25    1
    27    22    23    1
    28    22    24    2
    29    25    24    1
