@<TRIPOS>MOLECULE
2o1x_TDP_A_1.pdb
 26 27 0 0 0
SMALL
GASTEIGER

@<TRIPOS>ATOM
      1  N1'       21.1130   -0.5840   16.6800 N.2   1001  TDP1001    -0.1861
      2  C2'       21.3880   -0.5690   17.9840 C.1   1001  TDP1001     0.0663
      3  C2A       22.8330   -0.7640   18.4470 C.3   1001  TDP1001     0.1291
      4  N3'       20.4050   -0.3800   18.8750 N.2   1001  TDP1001    -0.3368
      5  C4'       19.1300   -0.2120   18.4950 C.2   1001  TDP1001     0.2292
      6  N4'       18.1960   -0.0270   19.4280 N.pl3 1001  TDP1001    -0.0925
      7  C5'       18.8190   -0.2370   17.1370 C.2   1001  TDP1001     0.0654
      8  C6'       19.8750   -0.4210   16.2550 C.2   1001  TDP1001     0.1115
      9  C35       17.4460   -0.0410   16.4870 C.3   1001  TDP1001     0.1237
     10  N3        16.3700   -0.8940   17.0180 N.pl3 1001  TDP1001    -0.2970
     11  C2        15.5660   -0.4530   18.0180 C.3   1001  TDP1001     0.1543
     12  S1        14.4210   -1.7570   18.3430 S.3   1001  TDP1001    -0.0951
     13  C5        15.0290   -2.7830   17.1260 C.2   1001  TDP1001     0.0164
     14  C4        16.0960   -2.1340   16.5160 C.2   1001  TDP1001     0.0279
     15  C4A       16.8460   -2.8140   15.3770 C.3   1001  TDP1001     0.0473
     16  C5A       14.4330   -4.1400   16.8340 C.3   1001  TDP1001     0.0661
     17  C5B       14.4440   -4.9950   18.0650 C.3   1001  TDP1001     0.1544
     18  O5G       14.2440   -6.3120   17.6290 O.3   1001  TDP1001    -0.3134
     19  P1        13.7030   -7.2890   18.6890 P.3   1001  TDP1001     0.2230
     20  O11       12.3640   -6.5390   19.2630 O.3   1001  TDP1001    -0.2261
     21  O12       13.3550   -8.6850   17.9000 O.2   1001  TDP1001    -0.5169
     22  O13       14.5870   -7.4470   19.8610 O.3   1001  TDP1001    -0.4370
     23  P2        10.8280   -6.6530   18.7690 P.3   1001  TDP1001     0.5373
     24  O21       10.5640   -5.4880   17.6360 O.2   1001  TDP1001    -0.2221
     25  O22       10.6090   -8.1280   18.0830 O.3   1001  TDP1001    -0.1143
     26  O23        9.9160   -6.4600   19.8990 O.3   1001  TDP1001    -0.1143
@<TRIPOS>BOND
     1    15    14    1
     2     8     1    1
     3     8     7    2
     4     9    10    1
     5     9     7    1
     6    14    10    1
     7    14    13    2
     8     1     2    2
     9    16    13    1
    10    16    17    1
    11    10    11    1
    12    13    12    1
    13     7     5    1
    14    18    17    1
    15    18    19    1
    16    24    23    2
    17    21    19    2
    18     2     3    1
    19     2     4    2
    20    11    12    1
    21    25    23    1
    22     5     4    2
    23     5     6    1
    24    19    20    1
    25    19    22    1
    26    23    20    1
    27    23    26    1
