@<TRIPOS>MOLECULE
2o23_NAD_A_1.pdb
 44 48 0 0 0
SMALL
GASTEIGER

@<TRIPOS>ATOM
      1  PA        21.4780   12.5300  -15.7760 P.3   802  NAD802      0.2189
      2  O1A       20.0740   12.1790  -16.1590 O.3   802  NAD802     -0.4371
      3  O2A       22.5060   12.4940  -16.8530 O.2   802  NAD802     -0.5170
      4  O5B       21.9800   11.5880  -14.5830 O.3   802  NAD802     -0.3112
      5  C5B       21.1340   11.3560  -13.4740 C.3   802  NAD802      0.1813
      6  C4B       21.3990    9.9410  -12.9850 C.3   802  NAD802      0.1821
      7  O4B       20.6150    9.7410  -11.8100 O.3   802  NAD802     -0.3135
      8  C3B       21.0300    8.8430  -13.9880 C.3   802  NAD802      0.2184
      9  O3B       22.1020    7.9420  -14.2720 O.3   802  NAD802     -0.2174
     10  C2B       19.8490    8.1730  -13.3180 C.3   802  NAD802      0.2570
     11  O2B       19.6930    6.8020  -13.6270 O.3   802  NAD802     -0.2130
     12  C1B       20.0980    8.4400  -11.8360 C.3   802  NAD802      0.3186
     13  N9A       18.9080    8.2920  -10.9910 N.pl3 802  NAD802     -0.1439
     14  C8A       17.6470    8.8290  -11.2210 C.3   802  NAD802      0.3377
     15  N7A       16.8090    8.4260  -10.2360 N.2   802  NAD802     -0.2095
     16  C5A       17.5380    7.6050   -9.4100 C.2   802  NAD802      0.2526
     17  C6A       17.1850    6.9050   -8.2680 C.2   802  NAD802      0.4393
     18  N6A       15.9570    6.8940   -7.7350 N.pl3 802  NAD802      0.2180
     19  N1A       18.1700    6.1830   -7.6670 N.2   802  NAD802      0.0021
     20  C2A       19.4430    6.1410   -8.1640 C.3   802  NAD802      0.5254
     21  N3A       19.8100    6.7840   -9.3020 N.2   802  NAD802     -0.0055
     22  C4A       18.8450    7.5180   -9.8750 C.2   802  NAD802      0.3518
     23  O3        21.3710   13.9760  -15.0970 O.3   802  NAD802     -0.2703
     24  PN        22.4910   15.0560  -14.7020 P.3   802  NAD802      0.2189
     25  O1N       22.3390   16.2100  -15.6450 O.2   802  NAD802     -0.5170
     26  O2N       23.8030   14.3860  -14.5090 O.3   802  NAD802     -0.4371
     27  O5D       21.9260   15.5120  -13.3070 O.3   802  NAD802     -0.3112
     28  C5D       22.6320   15.2330  -12.0970 C.3   802  NAD802      0.1813
     29  C4D       22.1570   16.1450  -10.9740 C.3   802  NAD802      0.1799
     30  O4D       22.3970   17.5000  -11.3500 O.3   802  NAD802     -0.3327
     31  C3D       20.6620   16.0310  -10.7230 C.3   802  NAD802      0.2158
     32  O3D       20.3720   16.1750   -9.3410 O.3   802  NAD802     -0.2175
     33  C2D       20.1260   17.2370  -11.4790 C.3   802  NAD802      0.2309
     34  O2D       18.8900   17.6760  -10.9710 O.3   802  NAD802     -0.2158
     35  C1D       21.2070   18.2480  -11.2220 C.3   802  NAD802      0.2263
     36  N1N       21.2770   19.3650  -12.1690 N.pl3 802  NAD802     -0.2787
     37  C2N       21.5620   19.1460  -13.4800 C.3   802  NAD802      0.1244
     38  C3N       21.6410   20.2540  -14.3120 C.2   802  NAD802      0.0544
     39  C7N       21.9330   20.1040  -15.7550 C.2   802  NAD802      0.2818
     40  O7N       21.8170   21.2230  -16.5360 O.2   802  NAD802     -0.2670
     41  N7N       22.3530   18.9690  -16.2800 N.am  802  NAD802     -0.0839
     42  C4N       21.4680   21.5600  -13.8310 C.2   802  NAD802      0.0033
     43  C5N       21.2300   21.7280  -12.4690 C.2   802  NAD802      0.0157
     44  C6N       21.1490   20.6370  -11.6440 C.2   802  NAD802      0.0633
@<TRIPOS>BOND
     1     3     1    2
     2    40    39    2
     3    41    39   am
     4     2     1    1
     5     1    23    1
     6     1     4    1
     7    39    38    1
     8    25    24    2
     9    23    24    1
    10    24    26    1
    11    24    27    1
    12     4     5    1
    13    38    42    2
    14    38    37    1
    15     9     8    1
    16     8    10    1
    17     8     6    1
    18    42    43    1
    19    11    10    1
    20    37    36    1
    21     5     6    1
    22    10    12    1
    23    27    28    1
    24     6     7    1
    25    43    44    2
    26    36    44    1
    27    36    35    1
    28    28    29    1
    29    12     7    1
    30    12    13    1
    31    33    35    1
    32    33    34    1
    33    33    31    1
    34    30    35    1
    35    30    29    1
    36    14    13    1
    37    14    15    1
    38    13    22    1
    39    29    31    1
    40    31    32    1
    41    15    16    2
    42    22    16    1
    43    22    21    2
    44    16    17    1
    45    21    20    1
    46    17    18    1
    47    17    19    2
    48    20    19    1
