@<TRIPOS>MOLECULE
2o28_COA_A_1.pdb
 48 50 0 0 0
SMALL
GASTEIGER

@<TRIPOS>ATOM
      1  N1A       -7.6930   24.5360   27.1540 N.2   401  COA401      0.0021
      2  C2A       -8.8980   24.3280   26.5280 C.3   401  COA401      0.5254
      3  N3A       -9.3140   25.1730   25.5070 N.2   401  COA401     -0.0055
      4  C4A       -8.5170   26.2040   25.1330 C.2   401  COA401      0.3518
      5  C5A       -7.2920   26.4290   25.7260 C.2   401  COA401      0.2526
      6  C6A       -6.8680   25.5660   26.7320 C.2   401  COA401      0.4393
      7  N6A       -5.7250   25.7510   27.3620 N.pl3 401  COA401      0.2180
      8  N7A       -6.7290   27.5050   25.1090 N.2   401  COA401     -0.2095
      9  C8A       -7.5510   27.9620   24.1670 C.3   401  COA401      0.3377
     10  N9A       -8.6710   27.1530   24.1770 N.pl3 401  COA401     -0.1439
     11  C1B       -9.8610   27.2790   23.3310 C.3   401  COA401      0.3185
     12  C2B      -10.6160   28.6070   23.5370 C.3   401  COA401      0.2543
     13  O2B      -11.5950   28.5520   24.5650 O.3   401  COA401     -0.2131
     14  C3B      -11.3000   28.7600   22.1980 C.3   401  COA401      0.1928
     15  O3B      -12.4380   27.9070   22.1490 O.3   401  COA401     -0.2673
     16  P3B      -13.5250   28.0200   20.9660 P.3   401  COA401      0.5327
     17  O7A      -13.9770   29.4560   20.8660 O.3   401  COA401     -0.1145
     18  O8A      -14.6880   27.1340   21.2400 O.3   401  COA401     -0.1145
     19  O9A      -12.9240   27.6850   19.6330 O.2   401  COA401     -0.2224
     20  C4B      -10.2720   28.1790   21.2360 C.3   401  COA401      0.1795
     21  O4B       -9.4900   27.2420   21.9730 O.3   401  COA401     -0.3136
     22  C5B       -9.4370   29.3250   20.6850 C.3   401  COA401      0.1812
     23  O5B       -8.5670   28.7870   19.7080 O.3   401  COA401     -0.3112
     24  P1A       -7.3140   29.6910   19.3530 P.3   401  COA401      0.2189
     25  O1A       -7.7740   31.1270   19.2520 O.3   401  COA401     -0.4371
     26  O2A       -6.6220   29.1120   18.1220 O.2   401  COA401     -0.5170
     27  O3A       -6.4360   29.5740   20.6700 O.3   401  COA401     -0.2703
     28  P2A       -5.1100   30.3050   21.0970 P.3   401  COA401      0.2188
     29  O4A       -5.3670   30.7930   22.4840 O.3   401  COA401     -0.4371
     30  O5A       -4.6860   31.4070   20.1970 O.2   401  COA401     -0.5170
     31  O6A       -4.0340   29.1250   21.0800 O.3   401  COA401     -0.3138
     32  CBP       -3.0120   28.1550   23.0640 C.3   401  COA401      0.0645
     33  CCP       -4.1570   28.1000   22.0570 C.3   401  COA401      0.1519
     34  CDP       -3.0460   29.3270   24.0670 C.3   401  COA401      0.0056
     35  CEP       -2.9160   26.7880   23.7400 C.3   401  COA401      0.0056
     36  CAP       -1.7850   28.4290   22.2780 C.3   401  COA401      0.2312
     37  OAP       -1.6170   27.3270   21.3890 O.3   401  COA401     -0.2131
     38  C9P       -0.6550   28.8840   23.1780 C.2   401  COA401      0.2719
     39  O9P        0.4850   29.3870   22.6090 O.2   401  COA401     -0.2706
     40  N8P       -0.7140   28.7900   24.5180 N.am  401  COA401     -0.2028
     41  C7P        0.4740   28.8050   25.3590 C.3   401  COA401      0.1248
     42  C6P        1.6010   27.8490   24.9370 C.3   401  COA401      0.1102
     43  C5P        1.1340   26.4240   25.1430 C.2   401  COA401      0.2432
     44  O5P        0.6630   26.0930   26.2580 O.2   401  COA401     -0.2733
     45  N4P        1.2480   25.5780   24.0950 N.am  401  COA401     -0.2044
     46  C3P        0.6140   24.2630   24.0870 C.3   401  COA401      0.1276
     47  C2P        1.4530   23.2730   24.8980 C.3   401  COA401      0.0920
     48  S1P        0.8190   21.5670   24.9700 S.3   401  COA401     -0.0802
@<TRIPOS>BOND
     1    26    24    2
     2    25    24    1
     3    24    23    1
     4    24    27    1
     5    19    16    2
     6    23    22    1
     7    30    28    2
     8    27    28    1
     9    22    20    1
    10    17    16    1
    11    16    18    1
    12    16    15    1
    13    31    28    1
    14    31    33    1
    15    28    29    1
    16    20    21    1
    17    20    14    1
    18    37    36    1
    19    21    11    1
    20    33    32    1
    21    15    14    1
    22    14    12    1
    23    36    32    1
    24    36    38    1
    25    39    38    2
    26    32    35    1
    27    32    34    1
    28    38    40   am
    29    11    12    1
    30    11    10    1
    31    12    13    1
    32    46    45    1
    33    46    47    1
    34    45    43   am
    35     9    10    1
    36     9     8    1
    37    10     4    1
    38    40    41    1
    39    47    48    1
    40    42    43    1
    41    42    41    1
    42     8     5    2
    43     4     3    2
    44     4     5    1
    45    43    44    2
    46     3     2    1
    47     5     6    1
    48     2     1    1
    49     6     1    2
    50     6     7    1
