@<TRIPOS>MOLECULE
2o28_16G_A_1.pdb
 19 19 0 0 0
SMALL
GASTEIGER

@<TRIPOS>ATOM
      1  C1         4.6400   20.5660   25.8060 C.3   501  16G501      0.2917
      2  C2         4.6220   20.5540   24.2540 C.3   501  16G501      0.1871
      3  C3         5.9240   19.9170   23.7110 C.3   501  16G501      0.2095
      4  C4         7.1160   20.7760   24.1180 C.3   501  16G501      0.2135
      5  C5         7.1330   20.8560   25.6450 C.3   501  16G501      0.1807
      6  C6         8.2450   21.8050   26.1290 C.3   501  16G501      0.1859
      7  C7         2.8050   20.5640   22.5750 C.2   501  16G501      0.2421
      8  C8         1.7360   19.9090   21.9300 C.3   501  16G501      0.0964
      9  N2         3.4590   19.9140   23.5880 N.am  501  16G501     -0.1991
     10  O1         4.6900   19.2840   26.4210 O.3   501  16G501     -0.1879
     11  O3         5.8460   19.7590   22.2870 O.3   501  16G501     -0.2183
     12  O4         8.3500   20.2070   23.6100 O.3   501  16G501     -0.2176
     13  O5         5.8350   21.3250   26.2250 O.3   501  16G501     -0.3243
     14  O6         8.3760   21.7120   27.5810 O.3   501  16G501     -0.2675
     15  O7         3.0900   21.7180   22.1870 O.2   501  16G501     -0.2733
     16  P          9.7130   21.3220   28.2770 P.3   501  16G501      0.5327
     17  O1P       10.3930   20.1050   27.7170 O.2   501  16G501     -0.2224
     18  O2P        9.3760   21.1220   29.8260 O.3   501  16G501     -0.1145
     19  O3P       10.6840   22.5420   28.1220 O.3   501  16G501     -0.1145
@<TRIPOS>BOND
     1     8     7    1
     2    15     7    2
     3    11     3    1
     4     7     9   am
     5     9     2    1
     6    12     4    1
     7     3     4    1
     8     3     2    1
     9     4     5    1
    10     2     1    1
    11     5     6    1
    12     5    13    1
    13     1    13    1
    14     1    10    1
    15     6    14    1
    16    14    16    1
    17    17    16    2
    18    19    16    1
    19    16    18    1
