@<TRIPOS>MOLECULE
2o2c_G6Q_A_1.pdb
 16 15 0 0 0
SMALL
GASTEIGER

@<TRIPOS>ATOM
      1  C1        39.0720  -11.3910   14.1930 C.2   5001  G6Q5001     0.2427
      2  C2        38.7000  -12.3560   13.0920 C.3   5001  G6Q5001     0.2486
      3  C3        39.8360  -12.7620   12.1270 C.3   5001  G6Q5001     0.2225
      4  C4        41.0420  -13.4920   12.7380 C.3   5001  G6Q5001     0.2178
      5  C5        41.8150  -14.2430   11.6360 C.3   5001  G6Q5001     0.2147
      6  C6        43.1820  -14.7260   12.0610 C.3   5001  G6Q5001     0.1892
      7  O1        38.3100  -11.2100   15.1460 O.2   5001  G6Q5001    -0.2854
      8  O2        38.1530  -13.5270   13.6550 O.3   5001  G6Q5001    -0.2118
      9  O3        40.3520  -11.6060   11.4400 O.3   5001  G6Q5001    -0.2171
     10  O4        41.8980  -12.5420   13.3570 O.3   5001  G6Q5001    -0.2175
     11  O5        41.0580  -15.3740   11.2530 O.3   5001  G6Q5001    -0.2176
     12  O6        43.0590  -15.5920   13.1740 O.3   5001  G6Q5001    -0.2674
     13  P         44.3970  -15.9810   13.9710 P.3   5001  G6Q5001     0.5327
     14  O1P       44.7980  -14.6760   14.6210 O.3   5001  G6Q5001    -0.1145
     15  O2P       45.3560  -16.4640   12.9180 O.2   5001  G6Q5001    -0.2224
     16  O3P       43.8970  -17.0750   14.8810 O.3   5001  G6Q5001    -0.1145
@<TRIPOS>BOND
     1    11     5    1
     2     9     3    1
     3     5     6    1
     4     5     4    1
     5     6    12    1
     6     3     4    1
     7     3     2    1
     8     4    10    1
     9    15    13    2
    10     2     8    1
    11     2     1    1
    12    12    13    1
    13    13    14    1
    14    13    16    1
    15     1     7    2
