@<TRIPOS>MOLECULE
2o2d_CIT_A_1.pdb
 13 12 0 0 0
SMALL
GASTEIGER

@<TRIPOS>ATOM
      1  C1        41.5710   17.1480   49.3010 C.2   5001  CIT5001     0.3680
      2  O1        40.4220   17.5310   48.8250 O.co2 5001  CIT5001    -0.2455
      3  O2        42.6840   17.6530   48.8220 O.co2 5001  CIT5001    -0.2455
      4  C2        41.5770   16.1380   50.3910 C.3   5001  CIT5001     0.1560
      5  C3        42.3780   14.7950   50.2430 C.3   5001  CIT5001     0.2402
      6  O7        41.6800   14.1320   49.1340 O.3   5001  CIT5001    -0.2129
      7  C4        42.2460   13.9070   51.4520 C.3   5001  CIT5001     0.1560
      8  C5        40.9350   13.2530   51.7660 C.2   5001  CIT5001     0.3680
      9  O3        40.7430   12.0210   51.3000 O.co2 5001  CIT5001    -0.2455
     10  O4        40.1290   13.8970   52.4050 O.co2 5001  CIT5001    -0.2455
     11  C6        43.9100   15.0110   49.8980 C.2   5001  CIT5001     0.3927
     12  O5        44.2840   14.3890   48.7830 O.co2 5001  CIT5001    -0.2429
     13  O6        44.5980   15.7080   50.6650 O.co2 5001  CIT5001    -0.2429
@<TRIPOS>BOND
     1    12    11   ar
     2     3     1   ar
     3     2     1   ar
     4     6     5    1
     5     1     4    1
     6    11     5    1
     7    11    13   ar
     8     5     4    1
     9     5     7    1
    10     9     8   ar
    11     7     8    1
    12     8    10   ar
