@<TRIPOS>MOLECULE
2o2l_FUC_N_1.pdb
 10 10 0 0 0
SMALL
GASTEIGER

@<TRIPOS>ATOM
      1  C1       -27.6300  -32.3610   16.8530 C.3   203  FUC203      0.1776
      2  C2       -27.5770  -33.5960   17.7290 C.3   203  FUC203      0.2141
      3  C3       -28.6160  -34.5880   17.2320 C.3   203  FUC203      0.2172
      4  C4       -28.3360  -34.9200   15.7640 C.3   203  FUC203      0.2116
      5  C5       -28.1300  -33.6640   14.9270 C.3   203  FUC203      0.1483
      6  C6       -27.5720  -33.9990   13.5420 C.3   203  FUC203      0.0349
      7  O2       -27.8180  -33.2170   19.0550 O.3   203  FUC203     -0.2176
      8  O3       -28.6310  -35.7460   18.0550 O.3   203  FUC203     -0.2175
      9  O4       -27.1930  -35.7310   15.6830 O.3   203  FUC203     -0.2177
     10  O5       -27.2660  -32.7190   15.5430 O.3   203  FUC203     -0.3508
@<TRIPOS>BOND
     1     6     5    1
     2     5    10    1
     3     5     4    1
     4    10     1    1
     5     9     4    1
     6     4     3    1
     7     1     2    1
     8     3     2    1
     9     3     8    1
    10     2     7    1
