@<TRIPOS>MOLECULE
2o2q_NAP_A_1.pdb
 48 52 0 0 0
SMALL
GASTEIGER

@<TRIPOS>ATOM
      1  PA        84.8050  -17.2230   15.9120 P.3   903  NAP903      0.2189
      2  O1A       83.4290  -17.3980   16.4250 O.3   903  NAP903     -0.4371
      3  O2A       85.0510  -18.0320   14.6920 O.2   903  NAP903     -0.5170
      4  O5B       85.8810  -17.6290   17.0350 O.3   903  NAP903     -0.3112
      5  C5B       85.9400  -17.0370   18.3210 C.3   903  NAP903      0.1813
      6  C4B       86.5700  -18.0790   19.2310 C.3   903  NAP903      0.1820
      7  O4B       85.7140  -19.2090   19.3040 O.3   903  NAP903     -0.3136
      8  C3B       87.8990  -18.5940   18.6870 C.3   903  NAP903      0.2157
      9  O3B       88.8380  -18.7200   19.7410 O.3   903  NAP903     -0.2175
     10  C2B       87.5230  -19.9670   18.1290 C.3   903  NAP903      0.2314
     11  O2B       88.5980  -20.8690   18.0460 O.3   903  NAP903     -0.2630
     12  C1B       86.4700  -20.3960   19.1430 C.3   903  NAP903      0.3158
     13  N9A       85.6770  -21.5700   18.7120 N.pl3 903  NAP903     -0.1439
     14  C8A       85.4350  -22.0110   17.4260 C.3   903  NAP903      0.3377
     15  N7A       84.6820  -23.1390   17.4890 N.2   903  NAP903     -0.2095
     16  C5A       84.4460  -23.4360   18.7890 C.2   903  NAP903      0.2526
     17  C6A       83.7370  -24.4650   19.4210 C.2   903  NAP903      0.4393
     18  N6A       83.1340  -25.4200   18.7310 N.pl3 903  NAP903      0.2180
     19  N1A       83.6670  -24.5030   20.7910 N.2   903  NAP903      0.0021
     20  C2A       84.2920  -23.5190   21.5310 C.3   903  NAP903      0.5254
     21  N3A       84.9980  -22.5040   20.9170 N.2   903  NAP903     -0.0055
     22  C4A       85.0740  -22.4580   19.5640 C.2   903  NAP903      0.3518
     23  O3        85.0390  -15.6620   15.6740 O.3   903  NAP903     -0.2703
     24  PN        85.8770  -14.8950   14.5470 P.3   903  NAP903      0.2189
     25  O1N       85.0840  -14.9080   13.2780 O.2   903  NAP903     -0.5170
     26  O2N       87.2260  -15.4950   14.5660 O.3   903  NAP903     -0.4371
     27  O5D       85.9260  -13.4030   15.1810 O.3   903  NAP903     -0.3112
     28  C5D       85.2050  -12.3760   14.5500 C.3   903  NAP903      0.1813
     29  C4D       83.8230  -12.2880   15.1790 C.3   903  NAP903      0.1799
     30  O4D       83.9650  -12.0100   16.5700 O.3   903  NAP903     -0.3327
     31  C3D       83.0180  -11.1470   14.5730 C.3   903  NAP903      0.2158
     32  O3D       81.7050  -11.5740   14.2920 O.3   903  NAP903     -0.2175
     33  C2D       83.0280  -10.1190   15.6940 C.3   903  NAP903      0.2309
     34  O2D       81.9810   -9.1680   15.7290 O.3   903  NAP903     -0.2158
     35  C1D       83.0380  -11.0010   16.9300 C.3   903  NAP903      0.2263
     36  N1N       83.4610  -10.1440   18.0340 N.pl3 903  NAP903     -0.2787
     37  C2N       82.5180   -9.7040   18.9220 C.3   903  NAP903      0.1244
     38  C3N       82.8990   -8.8560   19.9690 C.2   903  NAP903      0.0544
     39  C7N       81.9440   -8.5490   21.0890 C.2   903  NAP903      0.2818
     40  O7N       82.4860   -8.0960   22.3000 O.2   903  NAP903     -0.2670
     41  N7N       80.6360   -8.6930   20.9140 N.am  903  NAP903     -0.0839
     42  C4N       84.2420   -8.4490   20.0750 C.2   903  NAP903      0.0033
     43  C5N       85.1890   -8.9060   19.1590 C.2   903  NAP903      0.0157
     44  C6N       84.7790   -9.7590   18.1300 C.2   903  NAP903      0.0633
     45  P2B       89.6340  -20.8590   16.7850 P.3   903  NAP903      0.5328
     46  O1X       88.9750  -20.1900   15.6160 O.2   903  NAP903     -0.2224
     47  O2X       90.8640  -20.1070   17.1950 O.3   903  NAP903     -0.1145
     48  O3X       89.9910  -22.2950   16.4790 O.3   903  NAP903     -0.1145
@<TRIPOS>BOND
     1    25    24    2
     2    32    31    1
     3    24    26    1
     4    24    27    1
     5    24    23    1
     6    28    29    1
     7    28    27    1
     8    31    29    1
     9    31    33    1
    10     3     1    2
    11    29    30    1
    12    46    45    2
    13    23     1    1
    14    33    34    1
    15    33    35    1
    16     1     2    1
    17     1     4    1
    18    48    45    1
    19    30    35    1
    20    45    47    1
    21    45    11    1
    22    35    36    1
    23     4     5    1
    24    14    15    1
    25    14    13    1
    26    15    16    2
    27    36    44    1
    28    36    37    1
    29    11    10    1
    30    10     8    1
    31    10    12    1
    32    44    43    2
    33     5     6    1
    34     8     6    1
    35     8     9    1
    36    13    12    1
    37    13    22    1
    38    18    17    1
    39    16    17    1
    40    16    22    1
    41    37    38    1
    42    12     7    1
    43    43    42    1
    44     6     7    1
    45    17    19    2
    46    22    21    2
    47    38    42    2
    48    38    39    1
    49    19    20    1
    50    41    39   am
    51    21    20    1
    52    39    40    2
