@<TRIPOS>MOLECULE
2o2r_NDP_A_1.pdb
 31 33 0 0 0
SMALL
GASTEIGER

@<TRIPOS>ATOM
      1  PA        84.6240  -17.4850   15.7170 P.3   903  NDP903      0.2231
      2  O1A       83.3080  -17.7590   16.3380 O.3   903  NDP903     -0.4370
      3  O2A       84.8700  -18.3110   14.5140 O.2   903  NDP903     -0.5169
      4  O5B       85.7680  -17.7910   16.8040 O.3   903  NDP903     -0.3111
      5  C5B       85.7350  -17.2750   18.1210 C.3   903  NDP903      0.1813
      6  C4B       86.4400  -18.2500   19.0430 C.3   903  NDP903      0.1820
      7  O4B       85.6510  -19.4100   19.2430 O.3   903  NDP903     -0.3136
      8  C3B       87.7670  -18.7390   18.4800 C.3   903  NDP903      0.2157
      9  O3B       88.6960  -18.7950   19.5480 O.3   903  NDP903     -0.2175
     10  C2B       87.4190  -20.1450   18.0040 C.3   903  NDP903      0.2314
     11  O2B       88.5320  -21.0100   17.9480 O.3   903  NDP903     -0.2630
     12  C1B       86.3920  -20.5940   19.0370 C.3   903  NDP903      0.3158
     13  N9A       85.5610  -21.7410   18.5920 N.pl3 903  NDP903     -0.1439
     14  C8A       85.2730  -22.1440   17.2990 C.3   903  NDP903      0.3377
     15  N7A       84.4870  -23.2560   17.3570 N.2   903  NDP903     -0.2095
     16  C5A       84.2750  -23.5860   18.6640 C.2   903  NDP903      0.2526
     17  C6A       83.5510  -24.6070   19.3120 C.2   903  NDP903      0.4393
     18  N6A       83.0580  -25.6560   18.6700 N.pl3 903  NDP903      0.2180
     19  N1A       83.5230  -24.6560   20.6840 N.2   903  NDP903      0.0021
     20  C2A       84.1930  -23.7000   21.4220 C.3   903  NDP903      0.5254
     21  N3A       84.9010  -22.6960   20.7950 N.2   903  NDP903     -0.0055
     22  C4A       84.9460  -22.6310   19.4400 C.2   903  NDP903      0.3518
     23  O3        84.6030  -15.9190   15.3920 O.3   903  NDP903     -0.2261
     24  PN        85.7310  -15.1620   14.5290 P.3   903  NDP903      0.5373
     25  O1N       85.4490  -15.3610   13.0780 O.2   903  NDP903     -0.2221
     26  O2N       87.0090  -15.6080   15.1380 O.3   903  NDP903     -0.1143
     27  O5D       85.4730  -13.6160   14.9620 O.3   903  NDP903     -0.1143
     28  P2B       89.5560  -20.9580   16.6820 P.3   903  NDP903      0.5328
     29  O1X       88.9120  -20.3320   15.4940 O.2   903  NDP903     -0.2224
     30  O2X       90.7530  -20.1270   17.0510 O.3   903  NDP903     -0.1145
     31  O3X       89.9490  -22.3940   16.4920 O.3   903  NDP903     -0.1145
@<TRIPOS>BOND
     1    25    24    2
     2     3     1    2
     3    24    27    1
     4    24    26    1
     5    24    23    1
     6    23     1    1
     7    29    28    2
     8     1     2    1
     9     1     4    1
    10    31    28    1
    11    28    30    1
    12    28    11    1
    13     4     5    1
    14    14    15    1
    15    14    13    1
    16    15    16    2
    17    11    10    1
    18    10     8    1
    19    10    12    1
    20     5     6    1
    21     8     6    1
    22     8     9    1
    23    13    12    1
    24    13    22    1
    25    16    17    1
    26    16    22    1
    27    18    17    1
    28    12     7    1
    29     6     7    1
    30    17    19    2
    31    22    21    2
    32    19    20    1
    33    21    20    1
