@<TRIPOS>MOLECULE
2o2s_TCL_A_1.pdb
 17 18 0 0 0
SMALL
GASTEIGER

@<TRIPOS>ATOM
      1  C1       -31.2310   52.1150   35.9530 C.ar  705  TCL705      0.0566
      2  C2       -32.5250   51.9170   35.4900 C.ar  705  TCL705      0.0611
      3  C6       -30.5620   51.0540   36.5270 C.ar  705  TCL705      0.2307
      4  C5       -31.2840   49.7820   36.6340 C.ar  705  TCL705      0.1840
      5  C4       -32.5860   49.6370   36.1910 C.ar  705  TCL705      0.0417
      6  C3       -33.2030   50.7230   35.6070 C.ar  705  TCL705      0.0147
      7  C11      -31.2560   47.7530   41.1650 C.ar  705  TCL705      0.0587
      8  C10      -30.6660   46.8280   40.3250 C.ar  705  TCL705      0.0259
      9  C9       -30.4610   47.1370   39.0050 C.ar  705  TCL705      0.0929
     10  C8       -30.8630   48.4710   38.5220 C.ar  705  TCL705      0.1559
     11  C12      -31.6480   49.0030   40.7070 C.ar  705  TCL705      0.0146
     12  C13      -31.4530   49.3850   39.3910 C.ar  705  TCL705      0.0392
     13  O7       -30.6330   48.7560   37.2180 O.3   705  TCL705     -0.4494
     14 CL14      -33.4180   53.2360   34.7030 Cl    705  TCL705     -0.0821
     15 CL15      -31.4970   47.2730   42.8760 Cl    705  TCL705     -0.0822
     16 CL16      -29.6900   45.9250   37.9350 Cl    705  TCL705     -0.0790
     17  O17      -29.3210   51.1010   37.0050 O.3   705  TCL705     -0.2833
@<TRIPOS>BOND
     1    14     2    1
     2     2     6   ar
     3     2     1   ar
     4     6     5   ar
     5     1     3   ar
     6     5     4   ar
     7     3     4   ar
     8     3    17    1
     9     4    13    1
    10    13    10    1
    11    16     9    1
    12    10     9   ar
    13    10    12   ar
    14     9     8   ar
    15    12    11   ar
    16     8     7   ar
    17    11     7   ar
    18     7    15    1
