@<TRIPOS>MOLECULE
2o2s_NAD_A_1.pdb
 44 48 0 0 0
SMALL
GASTEIGER

@<TRIPOS>ATOM
      1  PA       -30.7270   42.3710   35.2420 P.3   500  NAD500      0.2189
      2  O1A      -30.0460   41.6390   34.1010 O.2   500  NAD500     -0.5170
      3  O2A      -31.9640   41.8220   35.9210 O.3   500  NAD500     -0.4371
      4  O5B      -29.5870   42.8350   36.2710 O.3   500  NAD500     -0.3112
      5  C5B      -29.4140   42.3220   37.5780 C.3   500  NAD500      0.1813
      6  C4B      -28.4480   41.1680   37.4510 C.3   500  NAD500      0.1821
      7  O4B      -27.2940   41.4120   38.2370 O.3   500  NAD500     -0.3135
      8  C3B      -29.0840   39.9050   37.9670 C.3   500  NAD500      0.2184
      9  O3B      -28.8640   38.9350   36.9710 O.3   500  NAD500     -0.2174
     10  C2B      -28.3120   39.4330   39.1560 C.3   500  NAD500      0.2570
     11  O2B      -27.9940   38.0560   39.0820 O.3   500  NAD500     -0.2130
     12  C1B      -27.1060   40.3540   39.1920 C.3   500  NAD500      0.3186
     13  N9A      -26.7850   40.7760   40.5650 N.pl3 500  NAD500     -0.1439
     14  C8A      -27.5080   41.6050   41.3430 C.3   500  NAD500      0.3377
     15  N7A      -26.8790   41.7470   42.5560 N.2   500  NAD500     -0.2095
     16  C5A      -25.7470   40.9980   42.5320 C.2   500  NAD500      0.2526
     17  C6A      -24.6880   40.6970   43.4080 C.2   500  NAD500      0.4393
     18  N6A      -24.6870   41.2760   44.6470 N.pl3 500  NAD500      0.2180
     19  N1A      -23.6770   39.8440   43.0340 N.2   500  NAD500      0.0021
     20  C2A      -23.6610   39.2720   41.8150 C.3   500  NAD500      0.5254
     21  N3A      -24.6370   39.5280   40.9330 N.2   500  NAD500     -0.0055
     22  C4A      -25.7200   40.4180   41.2970 C.2   500  NAD500      0.3518
     23  O3       -31.2420   43.8120   34.7820 O.3   500  NAD500     -0.2703
     24  PN       -30.3510   44.9140   34.0190 P.3   500  NAD500      0.2189
     25  O1N      -31.1590   46.1770   34.0240 O.3   500  NAD500     -0.4371
     26  O2N      -29.9990   44.2990   32.7030 O.2   500  NAD500     -0.5170
     27  O5D      -28.9930   45.1260   34.8750 O.3   500  NAD500     -0.3112
     28  C5D      -27.7290   45.1540   34.2120 C.3   500  NAD500      0.1813
     29  C4D      -26.9570   46.4220   34.5040 C.3   500  NAD500      0.1799
     30  O4D      -27.3700   47.4990   33.6830 O.3   500  NAD500     -0.3327
     31  C3D      -27.1140   46.9170   35.9220 C.3   500  NAD500      0.2158
     32  O3D      -25.7740   47.1000   36.4040 O.3   500  NAD500     -0.2175
     33  C2D      -27.7560   48.2820   35.8790 C.3   500  NAD500      0.2309
     34  O2D      -27.2180   49.2380   36.7600 O.3   500  NAD500     -0.2158
     35  C1D      -27.6730   48.6570   34.4300 C.3   500  NAD500      0.2263
     36  N1N      -28.7480   49.4720   33.8820 N.pl3 500  NAD500     -0.2787
     37  C2N      -29.9900   48.9800   33.6480 C.3   500  NAD500      0.1244
     38  C3N      -30.9840   49.7760   33.1040 C.2   500  NAD500      0.0544
     39  C7N      -32.4000   49.2800   32.8030 C.2   500  NAD500      0.2818
     40  O7N      -33.2620   50.1250   32.5180 O.2   500  NAD500     -0.2670
     41  N7N      -32.7180   47.9690   32.9280 N.am  500  NAD500     -0.0839
     42  C4N      -30.6470   51.0960   32.8250 C.2   500  NAD500      0.0033
     43  C5N      -29.3730   51.5830   33.0710 C.2   500  NAD500      0.0157
     44  C6N      -28.4120   50.7520   33.6070 C.2   500  NAD500      0.0633
@<TRIPOS>BOND
     1    40    39    2
     2    26    24    2
     3    39    41   am
     4    39    38    1
     5    42    43    1
     6    42    38    2
     7    43    44    2
     8    38    37    1
     9    44    36    1
    10    37    36    1
    11    30    35    1
    12    30    29    1
    13    36    35    1
    14    24    25    1
    15    24    23    1
    16    24    27    1
    17     2     1    2
    18    28    29    1
    19    28    27    1
    20    35    33    1
    21    29    31    1
    22    23     1    1
    23     1     3    1
    24     1     4    1
    25    33    31    1
    26    33    34    1
    27    31    32    1
    28     4     5    1
    29     9     8    1
    30     6     5    1
    31     6     8    1
    32     6     7    1
    33     8    10    1
    34     7    12    1
    35    11    10    1
    36    10    12    1
    37    12    13    1
    38    13    22    1
    39    13    14    1
    40    21    22    2
    41    21    20    1
    42    22    16    1
    43    14    15    1
    44    20    19    1
    45    16    15    2
    46    16    17    1
    47    19    17    2
    48    17    18    1
