@<TRIPOS>MOLECULE
2o2u_738_A_1.pdb
 21 23 0 0 0
SMALL
GASTEIGER

@<TRIPOS>ATOM
      1  F19       19.5450   10.4260   35.7940 F     403  738403     -0.2040
      2  C16       18.9070   11.4910   35.2970 C.ar  403  738403      0.1445
      3  C18       17.8990   12.0620   36.0520 C.ar  403  738403      0.0298
      4  C21       17.1920   13.1530   35.5790 C.ar  403  738403      0.0023
      5  C20       17.5010   13.7030   34.3460 C.ar  403  738403      0.0003
      6  C17       18.5170   13.1420   33.5790 C.ar  403  738403      0.0068
      7  C14       19.2230   12.0280   34.0450 C.ar  403  738403      0.0828
      8  C13       20.2900   11.4670   33.1840 C.2   403  738403      0.2716
      9  O15       21.0490   12.2260   32.6270 O.2   403  738403     -0.2679
     10  N10       20.3780   10.0820   33.0270 N.am  403  738403     -0.1681
     11  C5        21.3100    9.3220   32.2600 C.ar  403  738403      0.1120
     12  C2        21.2720    7.9450   32.0530 C.ar  403  738403      0.0860
     13  C6        20.2620    7.0910   32.5840 C.1   403  738403      0.1019
     14  N11       19.4030    6.4420   33.0200 N.1   403  738403     -0.1908
     15  S7        22.6080    9.9140   31.4980 S.2   403  738403     -0.0744
     16  C3        23.1570    8.5540   30.8670 C.ar  403  738403      0.0052
     17  C8        24.3820    8.4150   30.0050 C.3   403  738403      0.0327
     18  C12       24.3780    7.0570   29.2760 C.3   403  738403      0.0055
     19  C9        24.0030    5.8950   30.2200 C.3   403  738403      0.0051
     20  C4        22.5860    6.0700   30.8260 C.3   403  738403      0.0273
     21  C1        22.3300    7.5060   31.2560 C.ar  403  738403     -0.0088
@<TRIPOS>BOND
     1    18    17    1
     2    18    19    1
     3    17    16    1
     4    19    20    1
     5    20    21    1
     6    16    21   ar
     7    16    15   ar
     8    21    12   ar
     9    15    11   ar
    10    12    11   ar
    11    12    13    1
    12    11    10    1
    13    13    14    3
    14     9     8    2
    15    10     8   am
    16     8     7    1
    17     6     7   ar
    18     6     5   ar
    19     7     2   ar
    20     5     4   ar
    21     2     1    1
    22     2     3   ar
    23     4     3   ar
