@<TRIPOS>MOLECULE
2o2y_NAD_A_1.pdb
 44 48 0 0 0
SMALL
GASTEIGER

@<TRIPOS>ATOM
      1  PA         2.3610  -17.4880   17.5720 P.3   650  NAD650      0.2189
      2  O1A        1.1060  -17.1290   18.2620 O.3   650  NAD650     -0.4371
      3  O2A        2.4700  -18.9540   17.3590 O.2   650  NAD650     -0.5170
      4  O5B        2.4800  -16.6340   16.2470 O.3   650  NAD650     -0.3112
      5  C5B        3.5410  -16.8590   15.3580 C.3   650  NAD650      0.1813
      6  C4B        2.8380  -16.8230   14.0210 C.3   650  NAD650      0.1821
      7  O4B        3.7620  -16.8080   12.9860 O.3   650  NAD650     -0.3135
      8  C3B        1.9820  -18.0630   13.8300 C.3   650  NAD650      0.2184
      9  O3B        0.6210  -17.7300   13.7600 O.3   650  NAD650     -0.2174
     10  C2B        2.4370  -18.6450   12.5190 C.3   650  NAD650      0.2570
     11  O2B        1.3250  -19.1150   11.7940 O.3   650  NAD650     -0.2130
     12  C1B        3.1420  -17.4510   11.9010 C.3   650  NAD650      0.3186
     13  N9A        4.1670  -17.7940   10.9120 N.pl3 650  NAD650     -0.1439
     14  C8A        5.2310  -18.6500   11.0570 C.3   650  NAD650      0.3377
     15  N7A        5.9310  -18.6540    9.8960 N.2   650  NAD650     -0.2095
     16  C5A        5.3350  -17.8000    9.0300 C.2   650  NAD650      0.2526
     17  C6A        5.6380  -17.4190    7.7260 C.2   650  NAD650      0.4393
     18  N6A        6.7910  -17.7830    7.1310 N.pl3 650  NAD650      0.2180
     19  N1A        4.8040  -16.5170    7.1110 N.2   650  NAD650      0.0021
     20  C2A        3.7070  -15.9690    7.7530 C.3   650  NAD650      0.5254
     21  N3A        3.4300  -16.3410    9.0440 N.2   650  NAD650     -0.0055
     22  C4A        4.2290  -17.2450    9.6640 C.2   650  NAD650      0.3518
     23  O3         3.6780  -16.9650   18.3230 O.3   650  NAD650     -0.2703
     24  PN         3.7980  -15.6670   19.2620 P.3   650  NAD650      0.2189
     25  O1N        2.6200  -14.7900   19.2680 O.2   650  NAD650     -0.5170
     26  O2N        4.3490  -16.1610   20.5360 O.3   650  NAD650     -0.4371
     27  O5D        4.9240  -14.9500   18.3820 O.3   650  NAD650     -0.3112
     28  C5D        4.6480  -13.7810   17.6180 C.3   650  NAD650      0.1813
     29  C4D        5.7930  -12.7780   17.7120 C.3   650  NAD650      0.1799
     30  O4D        6.0980  -12.4620   19.0670 O.3   650  NAD650     -0.3327
     31  C3D        7.0620  -13.3670   17.1360 C.3   650  NAD650      0.2158
     32  O3D        7.7940  -12.3480   16.4810 O.3   650  NAD650     -0.2175
     33  C2D        7.7940  -13.8750   18.3490 C.3   650  NAD650      0.2309
     34  O2D        9.1740  -14.0770   18.0800 O.3   650  NAD650     -0.2158
     35  C1D        7.4750  -12.7440   19.3010 C.3   650  NAD650      0.2263
     36  N1N        7.7470  -13.0200   20.7240 N.pl3 650  NAD650     -0.2787
     37  C2N        6.9640  -13.8820   21.4330 C.3   650  NAD650      0.1244
     38  C3N        7.2280  -14.1120   22.7840 C.2   650  NAD650      0.0544
     39  C7N        6.5020  -15.2000   23.5150 C.2   650  NAD650      0.2818
     40  O7N        6.9040  -15.5630   24.8100 O.2   650  NAD650     -0.2670
     41  N7N        5.4990  -15.8150   22.9060 N.am  650  NAD650     -0.0839
     42  C4N        8.2800  -13.4480   23.4140 C.2   650  NAD650      0.0033
     43  C5N        9.0610  -12.5630   22.6820 C.2   650  NAD650      0.0157
     44  C6N        8.7760  -12.3520   21.3390 C.2   650  NAD650      0.0633
@<TRIPOS>BOND
     1    19    17    2
     2    19    20    1
     3    18    17    1
     4    17    16    1
     5    20    21    1
     6    16    22    1
     7    16    15    2
     8    21    22    2
     9    22    13    1
    10    15    14    1
    11    13    14    1
    12    13    12    1
    13    11    10    1
    14    12    10    1
    15    12     7    1
    16    10     8    1
    17     7     6    1
    18     9     8    1
    19     8     6    1
    20     6     5    1
    21     5     4    1
    22     4     1    1
    23    32    31    1
    24    31    29    1
    25    31    33    1
    26     3     1    2
    27     1     2    1
    28     1    23    1
    29    28    29    1
    30    28    27    1
    31    29    30    1
    32    34    33    1
    33    23    24    1
    34    33    35    1
    35    27    24    1
    36    30    35    1
    37    24    25    2
    38    24    26    1
    39    35    36    1
    40    36    44    1
    41    36    37    1
    42    44    43    2
    43    37    38    1
    44    43    42    1
    45    38    42    2
    46    38    39    1
    47    41    39   am
    48    39    40    2
