@<TRIPOS>MOLECULE
2o2y_TCL_A_1.pdb
 17 18 0 0 0
SMALL
GASTEIGER

@<TRIPOS>ATOM
      1  C1        10.5210  -15.6950   22.2840 C.ar  705  TCL705      0.0566
      2  C2         9.9160  -16.4500   23.2730 C.ar  705  TCL705      0.0611
      3  C6        10.0850  -15.7920   20.9670 C.ar  705  TCL705      0.2307
      4  C5         8.9730  -16.7110   20.6740 C.ar  705  TCL705      0.1840
      5  C4         8.3900  -17.4580   21.6850 C.ar  705  TCL705      0.0417
      6  C3         8.8610  -17.3270   22.9880 C.ar  705  TCL705      0.0147
      7  C11       10.2850  -19.4130   16.7020 C.ar  705  TCL705      0.0587
      8  C10        9.1190  -18.7690   16.3410 C.ar  705  TCL705      0.0259
      9  C9         8.5460  -17.8890   17.2440 C.ar  705  TCL705      0.0929
     10  C8         9.1850  -17.6580   18.5450 C.ar  705  TCL705      0.1559
     11  C12       10.9030  -19.1960   17.9340 C.ar  705  TCL705      0.0146
     12  C13       10.3580  -18.3260   18.8640 C.ar  705  TCL705      0.0392
     13  O7         8.5750  -16.7870   19.3810 O.3   705  TCL705     -0.4494
     14 CL14       10.5030  -16.2900   24.9490 Cl    705  TCL705     -0.0821
     15 CL15       11.0270  -20.5530   15.5670 Cl    705  TCL705     -0.0822
     16 CL16        7.0430  -17.0080   16.8880 Cl    705  TCL705     -0.0790
     17  O17       10.6190  -15.0980   19.9590 O.3   705  TCL705     -0.2833
@<TRIPOS>BOND
     1    15     7    1
     2     8     7   ar
     3     8     9   ar
     4     7    11   ar
     5    16     9    1
     6     9    10   ar
     7    11    12   ar
     8    10    12   ar
     9    10    13    1
    10    13     4    1
    11    17     3    1
    12     4     3   ar
    13     4     5   ar
    14     3     1   ar
    15     5     6   ar
    16     1     2   ar
    17     6     2   ar
    18     2    14    1
