@<TRIPOS>MOLECULE
2o2z_NAD_A_1.pdb
 44 48 0 0 0
SMALL
GASTEIGER

@<TRIPOS>ATOM
      1  PA        73.9400   72.2500   90.3240 P.3   400  NAD400      0.2189
      2  O1A       74.8960   73.3900   90.2480 O.3   400  NAD400     -0.4371
      3  O2A       74.3100   71.1540   89.3870 O.2   400  NAD400     -0.5170
      4  O5B       73.7790   71.7250   91.8470 O.3   400  NAD400     -0.3112
      5  C5B       72.7230   70.7960   92.0490 C.3   400  NAD400      0.1813
      6  C4B       71.5220   71.3210   92.8650 C.3   400  NAD400      0.1821
      7  O4B       71.4280   70.6140   94.0900 O.3   400  NAD400     -0.3135
      8  C3B       71.6070   72.7890   93.2640 C.3   400  NAD400      0.2184
      9  O3B       70.3770   73.4360   93.0120 O.3   400  NAD400     -0.2174
     10  C2B       71.9770   72.7570   94.7450 C.3   400  NAD400      0.2570
     11  O2B       70.9400   73.2110   95.5940 O.3   400  NAD400     -0.2130
     12  C1B       72.2540   71.2820   95.0260 C.3   400  NAD400      0.3186
     13  N9A       73.6490   70.8460   94.7580 N.pl3 400  NAD400     -0.1439
     14  C8A       73.9240   69.5600   94.3850 C.3   400  NAD400      0.3377
     15  N7A       75.2470   69.4410   94.1690 N.2   400  NAD400     -0.2095
     16  C5A       75.8400   70.6090   94.4250 C.2   400  NAD400      0.2526
     17  C6A       77.1710   70.9630   94.3720 C.2   400  NAD400      0.4393
     18  N6A       78.0850   70.0270   94.1800 N.pl3 400  NAD400      0.2180
     19  N1A       77.5380   72.2440   94.6850 N.2   400  NAD400      0.0021
     20  C2A       76.5600   73.1520   95.0430 C.3   400  NAD400      0.5254
     21  N3A       75.2260   72.7870   95.0960 N.2   400  NAD400     -0.0055
     22  C4A       74.8580   71.5210   94.7890 C.2   400  NAD400      0.3518
     23  O3        72.4640   72.8970   90.0670 O.3   400  NAD400     -0.2703
     24  PN        71.0910   72.3110   89.3980 P.3   400  NAD400      0.2189
     25  O1N       70.8070   70.8880   89.7640 O.3   400  NAD400     -0.4371
     26  O2N       70.0330   73.3270   89.6890 O.2   400  NAD400     -0.5170
     27  O5D       71.4870   72.3740   87.8380 O.3   400  NAD400     -0.3112
     28  C5D       71.0550   71.4400   86.8790 C.3   400  NAD400      0.1813
     29  C4D       71.9460   71.6100   85.6570 C.3   400  NAD400      0.1799
     30  O4D       71.7870   72.9590   85.2380 O.3   400  NAD400     -0.3327
     31  C3D       73.4390   71.3600   85.9640 C.3   400  NAD400      0.2158
     32  O3D       74.0920   70.4860   85.0660 O.3   400  NAD400     -0.2175
     33  C2D       74.0490   72.7310   85.8460 C.3   400  NAD400      0.2309
     34  O2D       75.3760   72.7810   85.3680 O.3   400  NAD400     -0.2158
     35  C1D       73.0700   73.3370   84.8510 C.3   400  NAD400      0.2263
     36  N1N       73.3830   74.7460   84.8530 N.pl3 400  NAD400     -0.2787
     37  C2N       73.0070   75.6010   85.8380 C.3   400  NAD400      0.1244
     38  C3N       73.4590   76.9090   85.7030 C.2   400  NAD400      0.0544
     39  C7N       72.8170   78.0580   86.3850 C.2   400  NAD400      0.2818
     40  O7N       72.9590   79.3420   85.8020 O.2   400  NAD400     -0.2670
     41  N7N       72.1220   77.8270   87.5010 N.am  400  NAD400     -0.0839
     42  C4N       74.2520   77.2840   84.6380 C.2   400  NAD400      0.0033
     43  C5N       74.6170   76.3610   83.6750 C.2   400  NAD400      0.0157
     44  C6N       74.1700   75.0890   83.8060 C.2   400  NAD400      0.0633
@<TRIPOS>BOND
     1    43    44    2
     2    43    42    1
     3    44    36    1
     4    42    38    2
     5    35    36    1
     6    35    30    1
     7    35    33    1
     8    36    37    1
     9    32    31    1
    10    30    29    1
    11    34    33    1
    12    29    31    1
    13    29    28    1
    14    38    37    1
    15    38    39    1
    16    40    39    2
    17    33    31    1
    18    39    41   am
    19    28    27    1
    20    27    24    1
    21     3     1    2
    22    24    26    2
    23    24    25    1
    24    24    23    1
    25    23     1    1
    26     2     1    1
    27     1     4    1
    28     4     5    1
    29     5     6    1
    30     6     8    1
    31     6     7    1
    32     9     8    1
    33     8    10    1
    34     7    12    1
    35    15    14    1
    36    15    16    2
    37    18    17    1
    38    17    16    1
    39    17    19    2
    40    14    13    1
    41    16    22    1
    42    19    20    1
    43    10    12    1
    44    10    11    1
    45    13    22    1
    46    13    12    1
    47    22    21    2
    48    20    21    1
