@<TRIPOS>MOLECULE
2o3p_QUE_A_1.pdb
 22 24 0 0 0
SMALL
GASTEIGER

@<TRIPOS>ATOM
      1  C1        74.0790   40.4680    1.9270 C.ar  501  QUE501      0.0843
      2  C2        73.8950   40.2410    0.5690 C.ar  501  QUE501      0.2050
      3  C3        74.1820   38.8910    0.0240 C.ar  501  QUE501      0.1158
      4  C4        74.6610   37.8490    0.9560 C.ar  501  QUE501      0.1549
      5  C5        74.8150   38.1650    2.3000 C.ar  501  QUE501      0.0798
      6  C6        74.5230   39.4470    2.7670 C.ar  501  QUE501      0.2020
      7  C9        74.0320   38.4810   -1.3970 C.ar  501  QUE501      0.2433
      8  C10       74.3640   37.1060   -1.7770 C.ar  501  QUE501      0.2685
      9  C11       74.8080   36.2100   -0.8820 C.ar  501  QUE501      0.1872
     10  C14       75.1560   34.7630   -1.1680 C.ar  501  QUE501      0.0413
     11  C15       75.0990   34.1800   -2.4400 C.ar  501  QUE501      0.0066
     12  C16       75.4180   32.8310   -2.6190 C.ar  501  QUE501      0.0455
     13  C17       75.7890   32.0330   -1.5340 C.ar  501  QUE501      0.2343
     14  C18       75.8560   32.6420   -0.2050 C.ar  501  QUE501      0.2344
     15  C19       75.5330   33.9840   -0.0550 C.ar  501  QUE501      0.0485
     16  O12       74.9460   36.5950    0.5050 O.2   501  QUE501     -0.4498
     17  O13       73.6500   39.2450   -2.2520 O.2   501  QUE501     -0.2828
     18  O23       76.2260   31.8700    0.8010 O.3   501  QUE501     -0.2831
     19  O24       76.1170   30.7430   -1.6460 O.3   501  QUE501     -0.2831
     20  O27       74.2110   36.8100   -3.0700 O.3   501  QUE501     -0.2798
     21  O29       74.6930   39.7160    4.0640 O.3   501  QUE501     -0.2864
     22  O30       73.4630   41.2300   -0.1870 O.3   501  QUE501     -0.2862
@<TRIPOS>BOND
     1    20     8    1
     2    12    11   ar
     3    12    13   ar
     4    11    10   ar
     5    17     7    2
     6     8     7   ar
     7     8     9   ar
     8    19    13    1
     9    13    14   ar
    10     7     3   ar
    11    10     9    1
    12    10    15   ar
    13     9    16   ar
    14    14    15   ar
    15    14    18    1
    16    22     2    1
    17     3     2   ar
    18     3     4   ar
    19    16     4   ar
    20     2     1   ar
    21     4     5   ar
    22     1     6   ar
    23     5     6   ar
    24     6    21    1
