@<TRIPOS>MOLECULE
2o3q_CXR_A_1.pdb
 35 39 0 0 0
SMALL
GASTEIGER

@<TRIPOS>ATOM
      1  O2B        4.7440    2.9250    3.9670 O.3   301  CXR301     -0.4371
      2  PB         5.3430    1.4340    3.4150 P.3   301  CXR301      0.2189
      3  O3A        5.2780    0.6110    4.8520 O.3   301  CXR301     -0.2703
      4  O1B        6.6270    1.5280    2.7950 O.2   301  CXR301     -0.5170
      5  O5D        4.4240    0.6100    2.4180 O.3   301  CXR301     -0.3112
      6  C5D        3.4880    1.3860    1.6430 C.3   301  CXR301      0.1813
      7  C4D        2.1440    0.9740    1.7990 C.3   301  CXR301      0.1796
      8  C3D        1.6590    1.0920    3.2020 C.3   301  CXR301      0.2155
      9  O3D        0.9970    2.2230    3.3050 O.3   301  CXR301     -0.2176
     10  C2D        0.6360   -0.0540    3.2780 C.3   301  CXR301      0.2273
     11  O2D       -0.7070    0.1900    2.5930 O.3   301  CXR301     -0.2161
     12  O4D        2.0380   -0.4350    1.4630 O.3   301  CXR301     -0.3353
     13  C1D        1.1980   -1.1200    2.4720 C.3   301  CXR301      0.2141
     14  N1         1.9790   -2.2160    3.2480 N.3   301  CXR301     -0.1827
     15  C6         1.3240   -3.1110    4.1780 C.3   301  CXR301      0.2036
     16  N6        -0.0030   -3.3580    4.0620 N.3   301  CXR301     -0.1079
     17  C5         2.1550   -3.9320    5.0960 C.2   301  CXR301      0.1722
     18  N7         1.9420   -4.8850    6.0380 N.2   301  CXR301     -0.2179
     19  C8         3.0830   -5.1620    6.6110 C.3   301  CXR301      0.3373
     20  C2         3.3980   -2.0330    3.4700 C.3   301  CXR301      0.3456
     21  N3         4.0780   -2.7690    4.3040 N.2   301  CXR301     -0.0444
     22  C4         3.5190   -3.6990    5.1330 C.2   301  CXR301      0.3394
     23  N9         3.9880   -4.5100    6.0990 N.pl3 301  CXR301     -0.1444
     24  C1'        5.4080   -4.5530    6.5450 C.3   301  CXR301      0.3186
     25  O4'        5.9540   -3.1260    7.0350 O.3   301  CXR301     -0.3135
     26  C2'        6.3440   -5.1210    5.4980 C.3   301  CXR301      0.2570
     27  O2'        6.8730   -6.3730    6.0730 O.3   301  CXR301     -0.2130
     28  C3'        7.3720   -4.0700    5.2430 C.3   301  CXR301      0.2184
     29  O3'        7.0030   -3.5640    3.9390 O.3   301  CXR301     -0.2174
     30  C4'        7.2360   -2.9170    6.2930 C.3   301  CXR301      0.1821
     31  C5'        7.1290   -1.7170    5.6350 C.3   301  CXR301      0.1813
     32  O5'        6.5730   -0.7040    6.5650 O.3   301  CXR301     -0.3112
     33  PA         6.5260    0.8410    5.9110 P.3   301  CXR301      0.2189
     34  O2A        6.1500    2.0000    7.0780 O.3   301  CXR301     -0.4371
     35  O1A        7.8800    1.0080    5.0510 O.2   301  CXR301     -0.5170
@<TRIPOS>BOND
     1    12     7    1
     2    12    13    1
     3     6     7    1
     4     6     5    1
     5     7     8    1
     6     5     2    1
     7    13    14    1
     8    13    10    1
     9    11    10    1
    10     4     2    2
    11     8    10    1
    12     8     9    1
    13    14    20    1
    14    14    15    1
    15     2     1    1
    16     2     3    1
    17    20    21    1
    18    29    28    1
    19    16    15    1
    20    15    17    1
    21    21    22    2
    22     3    33    1
    23    35    33    2
    24    17    22    1
    25    17    18    2
    26    22    23    1
    27    28    26    1
    28    28    30    1
    29    26    27    1
    30    26    24    1
    31    31    30    1
    32    31    32    1
    33    33    32    1
    34    33    34    1
    35    18    19    1
    36    23    24    1
    37    23    19    1
    38    30    25    1
    39    24    25    1
