@<TRIPOS>MOLECULE
2o3r_CXR_A_1.pdb
 35 39 0 0 0
SMALL
GASTEIGER

@<TRIPOS>ATOM
      1  O2B        4.9360    3.0870    3.8050 O.3   301  CXR301     -0.4371
      2  PB         5.4090    1.7270    3.2660 P.3   301  CXR301      0.2189
      3  O3A        5.5610    0.7820    4.5810 O.3   301  CXR301     -0.2703
      4  O1B        6.5060    1.4620    2.3540 O.2   301  CXR301     -0.5170
      5  O5D        4.2230    0.9120    2.5480 O.3   301  CXR301     -0.3112
      6  C5D        3.3850    1.3450    1.4290 C.3   301  CXR301      0.1813
      7  C4D        1.9680    0.8230    1.6660 C.3   301  CXR301      0.1796
      8  C3D        1.5170    0.9370    3.1170 C.3   301  CXR301      0.2155
      9  O3D        0.9190    2.2720    3.4060 O.3   301  CXR301     -0.2176
     10  C2D        0.4980   -0.1030    3.2020 C.3   301  CXR301      0.2273
     11  O2D       -0.7170    0.3470    2.3740 O.3   301  CXR301     -0.2161
     12  O4D        1.9580   -0.6020    1.4530 O.3   301  CXR301     -0.3353
     13  C1D        1.0850   -1.2830    2.4580 C.3   301  CXR301      0.2141
     14  N1         1.9550   -2.2230    3.1550 N.3   301  CXR301     -0.1827
     15  C6         1.3570   -3.0500    4.0790 C.3   301  CXR301      0.2036
     16  N6         0.0290   -3.2700    4.0200 N.3   301  CXR301     -0.1079
     17  C5         2.1140   -3.7550    4.9810 C.2   301  CXR301      0.1722
     18  N7         1.7970   -4.6460    5.9020 N.2   301  CXR301     -0.2179
     19  C8         3.0420   -4.9590    6.6760 C.3   301  CXR301      0.3373
     20  C2         3.2870   -1.9780    3.2710 C.3   301  CXR301      0.3456
     21  N3         4.1120   -2.6360    4.1160 N.2   301  CXR301     -0.0444
     22  C4         3.5530   -3.5370    5.0410 C.2   301  CXR301      0.3394
     23  N9         4.0300   -4.3150    6.0290 N.pl3 301  CXR301     -0.1444
     24  C1'        5.4220   -4.3440    6.5000 C.3   301  CXR301      0.3186
     25  O4'        5.7560   -2.9910    7.0750 O.3   301  CXR301     -0.3135
     26  C2'        6.3860   -4.6140    5.3280 C.3   301  CXR301      0.2570
     27  O2'        6.6870   -6.0270    5.5290 O.3   301  CXR301     -0.2130
     28  C3'        7.5690   -3.7750    5.6930 C.3   301  CXR301      0.2184
     29  O3'        8.3390   -3.2770    4.6130 O.3   301  CXR301     -0.2174
     30  C4'        7.0960   -2.5980    6.5330 C.3   301  CXR301      0.1821
     31  C5'        7.0420   -1.3840    5.6840 C.3   301  CXR301      0.1813
     32  O5'        6.4820   -0.4270    6.4490 O.3   301  CXR301     -0.3112
     33  PA         6.5930    1.1440    5.7700 P.3   301  CXR301      0.2189
     34  O2A        5.8950    2.1900    6.7430 O.3   301  CXR301     -0.4371
     35  O1A        7.9190    1.5120    5.1750 O.2   301  CXR301     -0.5170
@<TRIPOS>BOND
     1     6     7    1
     2     6     5    1
     3    12     7    1
     4    12    13    1
     5     7     8    1
     6     4     2    2
     7    11    10    1
     8    13    14    1
     9    13    10    1
    10     5     2    1
    11     8    10    1
    12     8     9    1
    13    14    20    1
    14    14    15    1
    15     2     1    1
    16     2     3    1
    17    20    21    1
    18    16    15    1
    19    15    17    1
    20    21    22    2
    21     3    33    1
    22    29    28    1
    23    17    22    1
    24    17    18    2
    25    22    23    1
    26    35    33    2
    27    26    27    1
    28    26    28    1
    29    26    24    1
    30    31    32    1
    31    31    30    1
    32    28    30    1
    33    33    32    1
    34    33    34    1
    35    18    19    1
    36    23    24    1
    37    23    19    1
    38    24    25    1
    39    30    25    1
