@<TRIPOS>MOLECULE
2o3s_CXR_A_1.pdb
 35 39 0 0 0
SMALL
GASTEIGER

@<TRIPOS>ATOM
      1  O2B        4.7500    2.9690    3.8380 O.3   301  CXR301     -0.4371
      2  PB         5.5260    1.6520    3.3670 P.3   301  CXR301      0.2189
      3  O3A        5.7750    0.7280    4.6340 O.3   301  CXR301     -0.2703
      4  O1B        6.7900    1.7160    2.5210 O.2   301  CXR301     -0.5170
      5  O5D        4.4730    0.7360    2.6090 O.3   301  CXR301     -0.3112
      6  C5D        3.6450    1.1730    1.4810 C.3   301  CXR301      0.1813
      7  C4D        2.2240    0.6710    1.6650 C.3   301  CXR301      0.1796
      8  C3D        1.6890    0.8470    3.0760 C.3   301  CXR301      0.2155
      9  O3D        1.1040    2.1950    3.3200 O.3   301  CXR301     -0.2176
     10  C2D        0.6690   -0.2580    3.1820 C.3   301  CXR301      0.2273
     11  O2D       -0.4720    0.1720    2.3350 O.3   301  CXR301     -0.2161
     12  O4D        2.1810   -0.7840    1.4850 O.3   301  CXR301     -0.3353
     13  C1D        1.2770   -1.4100    2.4190 C.3   301  CXR301      0.2141
     14  N1         2.1360   -2.3860    3.1840 N.3   301  CXR301     -0.1827
     15  C6         1.5370   -3.1980    4.1240 C.3   301  CXR301      0.2036
     16  N6         0.2180   -3.3930    4.1080 N.3   301  CXR301     -0.1079
     17  C5         2.4040   -3.9450    5.0260 C.2   301  CXR301      0.1722
     18  N7         2.1070   -4.8920    6.0030 N.2   301  CXR301     -0.2179
     19  C8         3.2790   -5.2100    6.6380 C.3   301  CXR301      0.3373
     20  C2         3.5470   -2.1510    3.2670 C.3   301  CXR301      0.3456
     21  N3         4.3500   -2.8160    4.1390 N.2   301  CXR301     -0.0444
     22  C4         3.7960   -3.6970    5.0670 C.2   301  CXR301      0.3394
     23  N9         4.3180   -4.5050    6.0280 N.pl3 301  CXR301     -0.1444
     24  C1'        5.7100   -4.6050    6.4830 C.3   301  CXR301      0.3186
     25  O4'        6.0040   -3.2550    6.9460 O.3   301  CXR301     -0.3135
     26  C2'        6.6640   -4.9500    5.4090 C.3   301  CXR301      0.2570
     27  O2'        7.1470   -6.2100    5.7480 O.3   301  CXR301     -0.2130
     28  C3'        7.8410   -4.0700    5.6670 C.3   301  CXR301      0.2184
     29  O3'        8.7480   -3.9530    4.4860 O.3   301  CXR301     -0.2174
     30  C4'        7.3130   -2.7980    6.3440 C.3   301  CXR301      0.1821
     31  C5'        7.1820   -1.5760    5.4540 C.3   301  CXR301      0.1813
     32  O5'        7.1090   -0.4740    6.3360 O.3   301  CXR301     -0.3112
     33  PA         6.9360    1.0390    5.8120 P.3   301  CXR301      0.2189
     34  O2A        6.2000    1.8330    6.9380 O.3   301  CXR301     -0.4371
     35  O1A        8.2210    1.5950    5.2380 O.2   301  CXR301     -0.5170
@<TRIPOS>BOND
     1     6     7    1
     2     6     5    1
     3    12     7    1
     4    12    13    1
     5     7     8    1
     6    11    10    1
     7    13    10    1
     8    13    14    1
     9     4     2    2
    10     5     2    1
    11     8    10    1
    12     8     9    1
    13    14    20    1
    14    14    15    1
    15    20    21    1
    16     2     1    1
    17     2     3    1
    18    16    15    1
    19    15    17    1
    20    21    22    2
    21    29    28    1
    22     3    33    1
    23    17    22    1
    24    17    18    2
    25    22    23    1
    26    35    33    2
    27    26    28    1
    28    26    27    1
    29    26    24    1
    30    31    32    1
    31    31    30    1
    32    28    30    1
    33    33    32    1
    34    33    34    1
    35    18    19    1
    36    23    24    1
    37    23    19    1
    38    30    25    1
    39    24    25    1
