@<TRIPOS>MOLECULE
2o3t_CGR_A_1.pdb
 36 40 0 0 0
SMALL
GASTEIGER

@<TRIPOS>ATOM
      1  O2B        5.7850    3.9130    3.3840 O.3   301  CGR301     -0.4371
      2  PB         4.3660    4.4240    3.5620 P.3   301  CGR301      0.2189
      3  O1B        3.9140    5.7890    3.0980 O.2   301  CGR301     -0.5170
      4  O3         3.8560    4.3850    5.0950 O.3   301  CGR301     -0.2703
      5  PA         4.4160    3.3560    6.2180 P.3   301  CGR301      0.2189
      6  O2A        5.8520    3.7070    6.5650 O.2   301  CGR301     -0.5170
      7  O1A        3.4700    3.4710    7.3620 O.3   301  CGR301     -0.4371
      8 O5'R        3.3940    3.4080    2.7840 O.3   301  CGR301     -0.3112
      9 C5'R        1.9530    3.6190    2.8140 C.3   301  CGR301      0.1813
     10 C4'R        1.3950    3.9080    1.4090 C.3   301  CGR301      0.1796
     11 O4'R        1.8640    2.9730    0.3920 O.3   301  CGR301     -0.3353
     12 C1'R        0.9710    1.8380    0.2700 C.3   301  CGR301      0.2120
     13 C2'R       -0.3880    2.3690    0.7320 C.3   301  CGR301      0.2272
     14 O2'R       -1.2540    2.5410   -0.4180 O.3   301  CGR301     -0.2161
     15 C3'R       -0.1280    3.7170    1.4260 C.3   301  CGR301      0.2155
     16 O3'R       -0.7490    4.8460    0.7540 O.3   301  CGR301     -0.2176
     17  N7         1.5280    0.7730    1.1730 N.3   301  CGR301     -0.2106
     18  C8         2.8280    0.7560    1.5580 C.3   301  CGR301      0.1753
     19  N9         3.0600   -0.2870    2.3840 N.pl3 301  CGR301     -0.2453
     20  C1'        4.3290   -0.6580    3.0440 C.3   301  CGR301      0.2287
     21  O4'        4.0840   -0.7670    4.4370 O.3   301  CGR301     -0.3326
     22  C2'        5.3760    0.4270    2.8720 C.3   301  CGR301      0.2310
     23  O2'        6.0280    0.2280    1.6060 O.3   301  CGR301     -0.2158
     24  C3'        6.2370    0.2230    4.1000 C.3   301  CGR301      0.2158
     25  O3'        7.2350   -0.7850    3.8010 O.3   301  CGR301     -0.2175
     26  C4'        5.2590   -0.3030    5.1440 C.3   301  CGR301      0.1799
     27  C5'        4.8030    0.7410    6.1520 C.3   301  CGR301      0.1813
     28  O5'        4.3180    1.9260    5.4960 O.3   301  CGR301     -0.3112
     29  C4A        1.9240   -0.9580    2.5500 C.2   301  CGR301      0.2086
     30  C5A        0.9560   -0.3120    1.8040 C.3   301  CGR301      0.2493
     31  N3A        1.6390   -2.0550    3.2800 N.2   301  CGR301     -0.3118
     32  C2A        0.3740   -2.5430    3.2560 C.1   301  CGR301      0.2525
     33  N2A        0.0910   -3.6330    3.9820 N.pl3 301  CGR301     -0.0226
     34  N1A       -0.6160   -1.9560    2.5170 N.2   301  CGR301     -0.2526
     35  C6A       -0.3410   -0.8390    1.7700 C.1   301  CGR301      0.2146
     36  O6A       -1.2530   -0.3290    1.0840 O.2   301  CGR301     -0.2115
@<TRIPOS>BOND
     1    14    13    1
     2    12    11    1
     3    12    13    1
     4    12    17    1
     5    11    10    1
     6    13    15    1
     7    16    15    1
     8    36    35    2
     9    17    18    1
    10    17    30    1
    11    10    15    1
    12    10     9    1
    13    18    19    1
    14    23    22    1
    15    35    30    1
    16    35    34    2
    17    30    29    1
    18    19    29    1
    19    19    20    1
    20    34    32    2
    21    29    31    2
    22     8     9    1
    23     8     2    1
    24    22    20    1
    25    22    24    1
    26    20    21    1
    27     3     2    2
    28    32    31    2
    29    32    33    1
    30     1     2    1
    31     2     4    1
    32    25    24    1
    33    24    26    1
    34    21    26    1
    35     4     5    1
    36    26    27    1
    37    28    27    1
    38    28     5    1
    39     5     6    2
    40     5     7    1
