@<TRIPOS>MOLECULE
2o3u_NGD_A_1.pdb
 45 49 0 0 0
SMALL
GASTEIGER

@<TRIPOS>ATOM
      1  O6A       11.5460   -0.1500    0.6910 O.2   301  NGD301     -0.2069
      2  C6A       10.7600    0.2370    1.5890 C.1   301  NGD301      0.2372
      3  C5A       10.0760   -0.6750    2.3920 C.2   301  NGD301      0.2182
      4  N7A       10.0420   -2.0150    2.4520 N.2   301  NGD301     -0.2322
      5  C8A        9.1950   -2.3690    3.4330 C.3   301  NGD301      0.2246
      6  N9A        8.6890   -1.2540    3.9990 N.pl3 301  NGD301     -0.2354
      7  C4A        9.2220   -0.1950    3.3780 C.2   301  NGD301      0.2300
      8  N3A        9.0680    1.1440    3.5450 N.2   301  NGD301     -0.3074
      9  C2A        9.7300    2.0170    2.7630 C.1   301  NGD301      0.2531
     10  N2A        9.5580    3.3540    2.9560 N.pl3 301  NGD301     -0.0226
     11  N1A       10.5660    1.5620    1.7930 N.2   301  NGD301     -0.2485
     12  C1'        7.7040   -1.2440    5.1210 C.3   301  NGD301      0.2293
     13  O4'        6.3860   -0.7970    4.7550 O.3   301  NGD301     -0.3326
     14  C2'        8.0830   -0.2840    6.2320 C.3   301  NGD301      0.2310
     15  O2'        9.1800   -0.7850    7.0030 O.3   301  NGD301     -0.2158
     16  C3'        6.7880   -0.2360    7.0080 C.3   301  NGD301      0.2158
     17  O3'        6.7890   -1.3260    7.9200 O.3   301  NGD301     -0.2175
     18  C4'        5.6910   -0.5110    5.9810 C.3   301  NGD301      0.1799
     19  C5'        4.5710    0.5730    5.9430 C.3   301  NGD301      0.1813
     20  O5'        4.9170    1.8770    5.4630 O.3   301  NGD301     -0.3112
     21  PA         4.7050    3.2940    6.2530 P.3   301  NGD301      0.2189
     22  O1A        3.7140    3.2870    7.3640 O.3   301  NGD301     -0.4371
     23  O2A        6.1040    3.8300    6.4710 O.2   301  NGD301     -0.5170
     24  O3         3.9850    4.1890    5.1100 O.3   301  NGD301     -0.2703
     25  PB         4.4950    4.3020    3.5720 P.3   301  NGD301      0.2189
     26  O1B        4.0690    5.6910    3.1470 O.2   301  NGD301     -0.5170
     27  O2B        5.9310    3.8530    3.4630 O.3   301  NGD301     -0.4371
     28 O5'R        3.5610    3.2520    2.7800 O.3   301  NGD301     -0.3112
     29 C5'R        2.1340    3.3700    2.8760 C.3   301  NGD301      0.1813
     30 C4'R        1.4830    3.7860    1.5540 C.3   301  NGD301      0.1799
     31 C3'R       -0.0050    3.5080    1.6040 C.3   301  NGD301      0.2158
     32 O3'R       -0.7520    4.3590    0.6940 O.3   301  NGD301     -0.2175
     33 C2'R       -0.1100    2.0430    1.2340 C.3   301  NGD301      0.2309
     34 O2'R       -1.2330    1.9080    0.3780 O.3   301  NGD301     -0.2158
     35 O4'R        1.9410    2.9320    0.5050 O.3   301  NGD301     -0.3327
     36 C1'R        1.2010    1.7010    0.5140 C.3   301  NGD301      0.2263
     37  N1         2.0340    0.6960    1.2150 N.pl3 301  NGD301     -0.2787
     38  C6         3.3840    0.6960    1.0240 C.3   301  NGD301      0.1195
     39  C5         4.2450   -0.2050    1.6660 C.2   301  NGD301     -0.0045
     40  C4         3.6520   -1.1550    2.5060 C.2   301  NGD301      0.0030
     41  C2         1.4590   -0.2200    2.0210 C.2   301  NGD301      0.0679
     42  C3         2.2530   -1.1630    2.6810 C.2   301  NGD301      0.0710
     43  C7         1.6340   -2.1720    3.5910 C.2   301  NGD301      0.2854
     44  N7         0.3890   -2.3920    3.6510 N.am  301  NGD301     -0.0837
     45  O7         2.4390   -2.8460    4.3820 O.2   301  NGD301     -0.2666
@<TRIPOS>BOND
     1    34    33    1
     2    35    36    1
     3    35    30    1
     4    36    37    1
     5    36    33    1
     6     1     2    2
     7    32    31    1
     8    38    37    1
     9    38    39    1
    10    37    41    1
    11    33    31    1
    12    30    31    1
    13    30    29    1
    14     2    11    2
    15     2     3    1
    16    39    40    2
    17    11     9    2
    18    41    42    2
    19     3     4    2
    20     3     7    1
    21     4     5    1
    22    40    42    1
    23    42    43    1
    24     9    10    1
    25     9     8    2
    26    28    29    1
    27    28    25    1
    28    26    25    2
    29     7     8    2
    30     7     6    1
    31     5     6    1
    32    27    25    1
    33    25    24    1
    34    43    44   am
    35    43    45    2
    36     6    12    1
    37    13    12    1
    38    13    18    1
    39    24    21    1
    40    12    14    1
    41    20    19    1
    42    20    21    1
    43    19    18    1
    44    18    16    1
    45    14    15    1
    46    14    16    1
    47    21    23    2
    48    21    22    1
    49    16    17    1
