@<TRIPOS>MOLECULE
2o3z_AI7_A_1.pdb
 17 17 0 0 0
SMALL
GASTEIGER

@<TRIPOS>ATOM
      1  C1        57.1940   64.1350   -4.6460 C.ar  301  AI7301      0.0435
      2  C2        55.4340   64.4770   -6.8270 C.ar  301  AI7301      0.0033
      3  C3        56.7900   64.1500   -7.0760 C.ar  301  AI7301      0.0068
      4  C4        51.6920   64.1080    1.0020 C.3   301  AI7301      0.0000
      5  C5        59.1280   63.6270   -6.2290 C.2   301  AI7301      0.3879
      6  C6        54.1090   64.9360   -1.1200 C.3   301  AI7301      0.0473
      7  C7        54.9660   64.6300   -5.4890 C.ar  301  AI7301      0.0369
      8  C8        54.1390   64.7240   -2.6290 C.3   301  AI7301      0.2054
      9  C9        49.6200   64.5760    2.3840 C.3   301  AI7301      0.0000
     10  C10       51.1350   64.3450    2.4100 C.3   301  AI7301      0.0000
     11  C11       55.8340   64.4630   -4.3560 C.ar  301  AI7301      0.1388
     12  C12       53.2100   63.8700    1.0200 C.3   301  AI7301      0.0001
     13  C13       53.7690   63.6300   -0.3920 C.3   301  AI7301      0.0038
     14  C14       57.6880   63.9750   -5.9760 C.ar  301  AI7301      0.0828
     15  O15       59.6300   63.4640   -7.4640 O.co2 301  AI7301     -0.2406
     16  O16       55.4880   64.5870   -3.0250 O.3   301  AI7301     -0.4755
     17  O17       59.9220   63.4720   -5.3000 O.co2 301  AI7301     -0.2406
@<TRIPOS>BOND
     1    15     5   ar
     2     3     2   ar
     3     3    14   ar
     4     2     7   ar
     5     5    14    1
     6     5    17   ar
     7    14     1   ar
     8     7    11   ar
     9     1    11   ar
    10    11    16    1
    11    16     8    1
    12     8     6    1
    13     6    13    1
    14    13    12    1
    15     4    12    1
    16     4    10    1
    17     9    10    1
