@<TRIPOS>MOLECULE
2o48_AC6_X_1.pdb
 10 10 0 0 0
SMALL
GASTEIGER

@<TRIPOS>ATOM
      1  C1       -15.4010  -47.0530    3.6450 C.ar  2001  AC62001     0.1957
      2  C2       -16.3860  -46.1510    3.3250 C.ar  2001  AC62001     0.0421
      3  C3       -16.0910  -44.7990    3.3040 C.ar  2001  AC62001     0.0061
      4  C4       -14.8030  -44.3350    3.6310 C.ar  2001  AC62001     0.0349
      5  C5       -13.8020  -45.2800    3.9530 C.ar  2001  AC62001     0.0061
      6  C6       -14.1020  -46.6570    3.9590 C.ar  2001  AC62001     0.0421
      7  O1       -15.6970  -48.3480    3.6690 O.3   2001  AC62001    -0.2866
      8  O2       -15.3410  -42.0860    3.1170 O.2   2001  AC62001    -0.2913
      9  C7       -14.4840  -42.8510    3.5470 C.2   2001  AC62001     0.1735
     10  C8       -13.1010  -42.3510    3.8530 C.3   2001  AC62001     0.0773
@<TRIPOS>BOND
     1     8     9    2
     2     3     2   ar
     3     3     4   ar
     4     2     1   ar
     5     9     4    1
     6     9    10    1
     7     4     5   ar
     8     1     7    1
     9     1     6   ar
    10     5     6   ar
