@<TRIPOS>MOLECULE
2o4c_NAD_A_1.pdb
 44 48 0 0 0
SMALL
GASTEIGER

@<TRIPOS>ATOM
      1  PA        16.6570   84.3990   -1.3320 P.3   1002  NAD1002     0.2189
      2  O1A       16.8880   83.0830   -1.9390 O.3   1002  NAD1002    -0.4371
      3  O2A       16.3400   85.5550   -2.1930 O.2   1002  NAD1002    -0.5170
      4  O5B       15.4120   84.2330   -0.3370 O.3   1002  NAD1002    -0.3112
      5  C5B       14.7080   85.3460    0.2140 C.3   1002  NAD1002     0.1813
      6  C4B       13.2560   84.9310    0.4460 C.3   1002  NAD1002     0.1821
      7  O4B       12.6220   85.9320    1.2170 O.3   1002  NAD1002    -0.3135
      8  C3B       12.5430   84.9000   -0.9090 C.3   1002  NAD1002     0.2184
      9  O3B       11.9170   83.6290   -1.0290 O.3   1002  NAD1002    -0.2174
     10  C2B       11.5140   86.0290   -0.8190 C.3   1002  NAD1002     0.2570
     11  O2B       10.2750   85.6920   -1.4810 O.3   1002  NAD1002    -0.2130
     12  C1B       11.3000   86.1040    0.6800 C.3   1002  NAD1002     0.3186
     13  N9A       10.7460   87.4270    1.0880 N.pl3 1002  NAD1002    -0.1439
     14  C8A       10.9190   88.6050    0.4740 C.3   1002  NAD1002     0.3377
     15  N7A       10.2700   89.5540    1.1570 N.2   1002  NAD1002    -0.2095
     16  C5A        9.6810   88.9870    2.2090 C.2   1002  NAD1002     0.2526
     17  C6A        8.8820   89.4470    3.2570 C.2   1002  NAD1002     0.4393
     18  N6A        8.5280   90.7320    3.3640 N.pl3 1002  NAD1002     0.2180
     19  N1A        8.4440   88.5700    4.1810 N.2   1002  NAD1002     0.0021
     20  C2A        8.7640   87.2910    4.0910 C.3   1002  NAD1002     0.5254
     21  N3A        9.5190   86.8290    3.1080 N.2   1002  NAD1002    -0.0055
     22  C4A        9.9920   87.6390    2.1630 C.2   1002  NAD1002     0.3518
     23  O3        17.8560   84.8140   -0.3270 O.3   1002  NAD1002    -0.2703
     24  PN        18.7480   83.7850    0.5510 P.3   1002  NAD1002     0.2189
     25  O1N       17.9050   82.7110    1.1410 O.3   1002  NAD1002    -0.4371
     26  O2N       19.9690   83.4440   -0.1820 O.2   1002  NAD1002    -0.5170
     27  O5D       19.2000   84.7230    1.7630 O.3   1002  NAD1002    -0.3112
     28  C5D       18.2070   85.3000    2.6160 C.3   1002  NAD1002     0.1813
     29  C4D       18.8150   86.3610    3.5320 C.3   1002  NAD1002     0.1799
     30  O4D       19.9180   85.7740    4.2820 O.3   1002  NAD1002    -0.3327
     31  C3D       19.4090   87.5130    2.6980 C.3   1002  NAD1002     0.2158
     32  O3D       19.1940   88.7340    3.4100 O.3   1002  NAD1002    -0.2175
     33  C2D       20.8890   87.1740    2.6590 C.3   1002  NAD1002     0.2309
     34  O2D       21.6800   88.3440    2.4850 O.3   1002  NAD1002    -0.2158
     35  C1D       21.0690   86.6090    4.0730 C.3   1002  NAD1002     0.2263
     36  N1N       22.2620   85.7480    4.1280 N.pl3 1002  NAD1002    -0.2787
     37  C2N       23.0920   85.8580    5.2510 C.3   1002  NAD1002     0.1244
     38  C3N       24.2320   85.0790    5.3530 C.2   1002  NAD1002     0.0544
     39  C7N       25.1190   85.1930    6.5890 C.2   1002  NAD1002     0.2818
     40  O7N       26.3650   84.6910    6.5880 O.2   1002  NAD1002    -0.2670
     41  N7N       24.5990   85.7440    7.6800 N.am  1002  NAD1002    -0.0839
     42  C4N       24.5470   84.1880    4.3230 C.2   1002  NAD1002     0.0033
     43  C5N       23.7120   84.0480    3.2070 C.2   1002  NAD1002     0.0157
     44  C6N       22.5670   84.8250    3.0960 C.2   1002  NAD1002     0.0633
@<TRIPOS>BOND
     1     3     1    2
     2     2     1    1
     3    11    10    1
     4     1     4    1
     5     1    23    1
     6     9     8    1
     7     8    10    1
     8     8     6    1
     9    10    12    1
    10     4     5    1
    11    23    24    1
    12    26    24    2
    13     5     6    1
    14     6     7    1
    15    14    13    1
    16    14    15    1
    17    24    25    1
    18    24    27    1
    19    12    13    1
    20    12     7    1
    21    13    22    1
    22    15    16    2
    23    27    28    1
    24    22    16    1
    25    22    21    2
    26    16    17    1
    27    34    33    1
    28    28    29    1
    29    33    31    1
    30    33    35    1
    31    31    32    1
    32    31    29    1
    33    44    43    2
    34    44    36    1
    35    21    20    1
    36    43    42    1
    37    17    18    1
    38    17    19    2
    39    29    30    1
    40    35    36    1
    41    35    30    1
    42    20    19    1
    43    36    37    1
    44    42    38    2
    45    37    38    1
    46    38    39    1
    47    40    39    2
    48    39    41   am
