@<TRIPOS>MOLECULE
2o4g_TMP_A_1.pdb
 21 22 0 0 0
SMALL
GASTEIGER

@<TRIPOS>ATOM
      1  P         23.5990   -7.6340    7.0570 P.3   1000  TMP1000     0.5327
      2  O1P       22.5990   -8.3970    6.2140 O.3   1000  TMP1000    -0.1145
      3  O2P       24.5530   -8.4310    7.9090 O.3   1000  TMP1000    -0.1145
      4  O3P       24.4090   -6.7980    6.1370 O.2   1000  TMP1000    -0.2224
      5  O5'       22.6840   -6.7060    8.0200 O.3   1000  TMP1000    -0.2675
      6  C5'       23.1910   -5.6660    8.8550 C.3   1000  TMP1000     0.1858
      7  C4'       22.7930   -5.8800   10.3240 C.3   1000  TMP1000     0.1774
      8  O4'       21.4250   -6.2720   10.5310 O.3   1000  TMP1000    -0.3339
      9  C3'       23.6000   -6.9800   10.9790 C.3   1000  TMP1000     0.1857
     10  O3'       24.8530   -6.4660   11.3940 O.3   1000  TMP1000    -0.2203
     11  C2'       22.7340   -7.4550   12.1300 C.3   1000  TMP1000     0.0874
     12  C1'       21.3130   -7.1350   11.6830 C.3   1000  TMP1000     0.2090
     13  N1        20.5650   -8.3710   11.3480 N.am  1000  TMP1000    -0.1794
     14  C2        19.7300   -9.0320   12.3100 C.1   1000  TMP1000     0.2844
     15  O2        19.6030   -8.5960   13.4800 O.2   1000  TMP1000    -0.1918
     16  N3        19.0570  -10.1550   11.9880 N.2   1000  TMP1000    -0.2455
     17  C4        19.1380  -10.6890   10.7550 C.1   1000  TMP1000     0.2134
     18  O4        18.5060  -11.7310   10.4670 O.2   1000  TMP1000    -0.2088
     19  C5        19.9940  -10.0280    9.7370 C.2   1000  TMP1000     0.0891
     20  C5M       20.1250  -10.5870    8.3390 C.3   1000  TMP1000     0.0462
     21  C6        20.6800   -8.8780   10.1040 C.2   1000  TMP1000     0.0877
@<TRIPOS>BOND
     1     4     1    2
     2     2     1    1
     3     1     3    1
     4     1     5    1
     5     5     6    1
     6    20    19    1
     7     6     7    1
     8    19    21    2
     9    19    17    1
    10    21    13    1
    11     7     8    1
    12     7     9    1
    13    18    17    2
    14     8    12    1
    15    17    16    2
    16     9    10    1
    17     9    11    1
    18    13    12    1
    19    13    14   am
    20    12    11    1
    21    16    14    2
    22    14    15    2
