@<TRIPOS>MOLECULE
2o4h_AS9_A_1.pdb
 13 12 0 0 0
SMALL
GASTEIGER

@<TRIPOS>ATOM
      1  CAA      -41.9710    9.6210  -39.3200 C.3   501  AS9501      0.1179
      2  PAM      -42.7180    9.5120  -40.9470 P.3   501  AS9501      0.3268
      3  OAG      -44.2310    8.9610  -40.8000 O.3   501  AS9501     -0.1502
      4  OAD      -42.7220   10.8440  -41.5630 O.2   501  AS9501     -0.2686
      5  N        -41.8770    8.3600  -41.7090 N.3   501  AS9501     -0.1338
      6  CA       -42.4630    7.8770  -42.9760 C.3   501  AS9501      0.1956
      7  C        -43.4070    6.6550  -42.7570 C.2   501  AS9501      0.3813
      8  OXT      -44.4220    6.5840  -43.4770 O.co2 501  AS9501     -0.2441
      9  O        -43.1170    5.8060  -41.8830 O.co2 501  AS9501     -0.2441
     10  CB       -41.2840    7.4890  -43.8800 C.3   501  AS9501      0.1434
     11  CG       -41.3850    8.0210  -45.3200 C.2   501  AS9501      0.3669
     12  OD2      -41.8310    9.1860  -45.5040 O.co2 501  AS9501     -0.2456
     13  OD1      -40.9900    7.2320  -46.2080 O.co2 501  AS9501     -0.2456
@<TRIPOS>BOND
     1    13    11   ar
     2    12    11   ar
     3    11    10    1
     4    10     6    1
     5     8     7   ar
     6     6     7    1
     7     6     5    1
     8     7     9   ar
     9     5     2    1
    10     4     2    2
    11     2     3    1
    12     2     1    1
