@<TRIPOS>MOLECULE
2o4j_VD4_A_1.pdb
 30 32 0 0 0
SMALL
GASTEIGER

@<TRIPOS>ATOM
      1  O3        66.0780   -2.2520   -7.5030 O.3   500  VD4500     -0.2257
      2  C25       66.7390   -1.2690   -6.7360 C.3   500  VD4500      0.1268
      3  C26       68.1700   -1.2490   -7.2550 C.3   500  VD4500      0.0329
      4  C27       66.7170   -1.6540   -5.2520 C.3   500  VD4500      0.0329
      5  C24       66.0450    0.0710   -7.0080 C.3   500  VD4500      0.0307
      6  C23       64.5270    0.0530   -6.7210 C.3   500  VD4500      0.0068
      7  C22       63.7350    1.2920   -7.1990 C.3   500  VD4500      0.0215
      8  C20       62.2900    1.1450   -6.7360 C.2   500  VD4500     -0.0518
      9  C21       61.5610   -0.1030   -7.1510 C.3   500  VD4500      0.0257
     10  C17       61.6050    2.0550   -5.9730 C.2   500  VD4500     -0.0524
     11  C13       62.0810    3.3840   -5.4160 C.3   500  VD4500      0.0180
     12  C18       62.9790    3.1330   -4.1730 C.3   500  VD4500      0.0043
     13  C12       62.7520    4.3780   -6.3790 C.3   500  VD4500      0.0043
     14  C11       62.9010    5.7980   -5.7400 C.3   500  VD4500      0.0047
     15  C9        61.5560    6.3180   -5.1950 C.3   500  VD4500      0.0220
     16  C16       60.1730    1.7580   -5.5270 C.3   500  VD4500      0.0217
     17  C15       59.8290    2.8210   -4.4700 C.3   500  VD4500      0.0086
     18  C14       60.6800    3.9330   -5.0930 C.3   500  VD4500      0.0220
     19  C8        60.9060    5.2250   -4.3410 C.2   500  VD4500     -0.0443
     20  C7        60.6340    5.3700   -3.0160 C.2   500  VD4500     -0.0091
     21  C6        60.8570    6.6340   -2.2500 C.2   500  VD4500     -0.0090
     22  C5        61.1850    6.7150   -0.9310 C.2   500  VD4500     -0.0385
     23  C10       61.4140    5.4710   -0.0630 C.3   500  VD4500      0.0593
     24  C1        60.7390    5.6080    1.3160 C.3   500  VD4500      0.1767
     25  O1        61.0800    4.4990    2.1930 O.3   500  VD4500     -0.2182
     26  C4        61.3620    8.0740   -0.2730 C.3   500  VD4500      0.0593
     27  C3        60.7520    8.1160    1.1380 C.3   500  VD4500      0.1767
     28  O2        59.3120    8.1580    1.0580 O.3   500  VD4500     -0.2182
     29  C2        61.1430    6.9020    1.9360 C.2   500  VD4500      0.0160
     30  C28       61.7690    7.0410    3.0930 C.2   500  VD4500     -0.0041
@<TRIPOS>BOND
     1     1     2    1
     2     3     2    1
     3     7     8    1
     4     7     6    1
     5     9     8    1
     6     5     2    1
     7     5     6    1
     8     2     4    1
     9     8    10    2
    10    13    14    1
    11    13    11    1
    12    10    16    1
    13    10    11    1
    14    14    15    1
    15    16    17    1
    16    11    18    1
    17    11    12    1
    18    15    19    1
    19    18    17    1
    20    18    19    1
    21    19    20    2
    22    20    21    1
    23    21    22    2
    24    22    26    1
    25    22    23    1
    26    26    27    1
    27    23    24    1
    28    28    27    1
    29    27    29    1
    30    24    29    1
    31    24    25    1
    32    29    30    2
