@<TRIPOS>MOLECULE
2o4l_TPV_A_1.pdb
 42 45 0 0 0
SMALL
GASTEIGER

@<TRIPOS>ATOM
      1  O1       -16.0880   22.0460   17.0640 O.3   403  TPV403     -0.4524
      2  C2       -17.3050   21.3080   17.2500 C.2   403  TPV403      0.3401
      3  C3       -17.2570   19.9700   17.8440 C.2   403  TPV403      0.0918
      4  C4       -16.0410   19.4140   18.0920 C.2   403  TPV403      0.1791
      5  C5       -14.7450   20.1290   17.7510 C.3   403  TPV403      0.1090
      6  C6       -14.8580   21.6540   17.6830 C.3   403  TPV403      0.1438
      7  O7       -18.3210   21.8640   16.8750 O.2   403  TPV403     -0.2451
      8  O8       -15.9190   18.1980   18.6100 O.2   403  TPV403     -0.2913
      9  C9       -14.7790   22.2010   19.1190 C.3   403  TPV403      0.0406
     10  C10      -14.9540   23.7160   19.2320 C.3   403  TPV403      0.0036
     11  C11      -14.8230   24.1530   20.6710 C.3   403  TPV403      0.0001
     12  C12      -13.7470   22.2220   16.7960 C.3   403  TPV403      0.0452
     13  C13      -13.8150   21.7920   15.3290 C.3   403  TPV403      0.0299
     14  C14      -12.7100   22.4940   14.5620 C.ar  403  TPV403     -0.0221
     15  C15      -11.4090   21.9960   14.6290 C.ar  403  TPV403     -0.0043
     16  C16      -10.3780   22.6300   13.9420 C.ar  403  TPV403     -0.0003
     17  C17      -10.6470   23.7590   13.1720 C.ar  403  TPV403     -0.0000
     18  C18      -11.9520   24.2610   13.0980 C.ar  403  TPV403     -0.0003
     19  C19      -12.9830   23.6270   13.7910 C.ar  403  TPV403     -0.0043
     20  C20      -18.5930   19.2740   18.0760 C.3   403  TPV403      0.0538
     21  C21      -18.6860   18.4680   19.3850 C.3   403  TPV403      0.0090
     22  C22      -18.5710   19.3060   20.6440 C.3   403  TPV403      0.0007
     23  C23      -18.9780   18.4390   16.8780 C.ar  403  TPV403     -0.0168
     24  C24      -18.0340   18.0090   15.9410 C.ar  403  TPV403     -0.0039
     25  C25      -18.4250   17.2430   14.8460 C.ar  403  TPV403      0.0011
     26  C26      -19.7590   16.8950   14.6730 C.ar  403  TPV403      0.0180
     27  C27      -20.7190   17.3000   15.5930 C.ar  403  TPV403      0.0908
     28  N28      -22.0280   16.9480   15.4050 N.pl3 403  TPV403     -0.0952
     29  C29      -20.3210   18.0740   16.6870 C.ar  403  TPV403      0.0141
     30  S30      -22.6400   15.5980   16.0560 S.O2  403  TPV403      0.1095
     31  O31      -21.7500   14.5110   15.6780 O.2   403  TPV403     -0.1468
     32  O32      -24.0140   15.4550   15.6110 O.2   403  TPV403     -0.1468
     33  C33      -22.5560   15.8920   17.6470 C.ar  403  TPV403      0.2078
     34  N34      -21.5050   15.4150   18.3750 N.ar  403  TPV403     -0.2242
     35  C35      -21.3790   15.6760   19.6930 C.ar  403  TPV403      0.1043
     36  C36      -22.3150   16.4520   20.3730 C.ar  403  TPV403      0.0906
     37  C37      -23.3950   16.9690   19.6480 C.ar  403  TPV403      0.0084
     38  C38      -23.5280   16.6890   18.2820 C.ar  403  TPV403      0.0398
     39  C39      -22.1310   16.7670   21.8380 C.3   403  TPV403      0.4200
     40  F40      -21.4310   15.8570   22.4940 F     403  TPV403     -0.1658
     41  F41      -23.2750   16.9800   22.4520 F     403  TPV403     -0.1658
     42  F42      -21.4210   17.8850   21.8740 F     403  TPV403     -0.1658
@<TRIPOS>BOND
     1    18    17   ar
     2    18    19   ar
     3    17    16   ar
     4    19    14   ar
     5    16    15   ar
     6    14    15   ar
     7    14    13    1
     8    26    25   ar
     9    26    27   ar
    10    25    24   ar
    11    13    12    1
    12    28    27    1
    13    28    30    1
    14    27    29   ar
    15    32    30    2
    16    31    30    2
    17    24    23   ar
    18    30    33    1
    19    29    23   ar
    20    12     6    1
    21     7     2    2
    22    23    20    1
    23     1     2    1
    24     1     6    1
    25     2     3    1
    26    33    38   ar
    27    33    34   ar
    28     6     5    1
    29     6     9    1
    30     5     4    1
    31     3    20    1
    32     3     4    2
    33    20    21    1
    34     4     8    1
    35    38    37   ar
    36    34    35   ar
    37     9    10    1
    38    10    11    1
    39    21    22    1
    40    37    36   ar
    41    35    36   ar
    42    36    39    1
    43    39    42    1
    44    39    41    1
    45    39    40    1
