@<TRIPOS>MOLECULE
2o4n_TPV_A_1.pdb
 42 45 0 0 0
SMALL
GASTEIGER

@<TRIPOS>ATOM
      1  O1        13.4390   22.0880   17.3250 O.3   300  TPV300     -0.4524
      2  C2        12.2400   21.3430   17.4820 C.2   300  TPV300      0.3401
      3  C3        12.2880   19.9940   18.0750 C.2   300  TPV300      0.0918
      4  C4        13.5220   19.4490   18.2960 C.2   300  TPV300      0.1791
      5  C5        14.8020   20.1640   17.9180 C.3   300  TPV300      0.1090
      6  C6        14.6990   21.7010   17.8940 C.3   300  TPV300      0.1438
      7  O7        11.2280   21.9170   17.1000 O.2   300  TPV300     -0.2451
      8  O8        13.6870   18.2290   18.7820 O.2   300  TPV300     -0.2913
      9  C9        14.8250   22.2280   19.3320 C.3   300  TPV300      0.0406
     10  C10       14.4450   23.7110   19.5160 C.3   300  TPV300      0.0036
     11  C11       14.5990   24.0380   21.0030 C.3   300  TPV300      0.0001
     12  C12       15.7950   22.3330   17.0180 C.3   300  TPV300      0.0452
     13  C13       15.6390   22.0370   15.5170 C.3   300  TPV300      0.0299
     14  C14       16.7670   22.7170   14.7500 C.ar  300  TPV300     -0.0221
     15  C15       16.4990   23.8410   13.9580 C.ar  300  TPV300     -0.0043
     16  C16       17.5210   24.4830   13.2410 C.ar  300  TPV300     -0.0003
     17  C17       18.8210   23.9890   13.3560 C.ar  300  TPV300     -0.0000
     18  C18       19.1220   22.8720   14.1570 C.ar  300  TPV300     -0.0003
     19  C19       18.0800   22.2340   14.8530 C.ar  300  TPV300     -0.0043
     20  C20       10.9530   19.2680   18.2700 C.3   300  TPV300      0.0538
     21  C21       10.8480   18.4350   19.5670 C.3   300  TPV300      0.0090
     22  C22       10.9560   19.2550   20.8480 C.3   300  TPV300      0.0007
     23  C23       10.6340   18.4070   17.0850 C.ar  300  TPV300     -0.0168
     24  C24       11.6200   17.9050   16.2240 C.ar  300  TPV300     -0.0039
     25  C25       11.2600   17.1140   15.1180 C.ar  300  TPV300      0.0011
     26  C26        9.9160   16.7880   14.9010 C.ar  300  TPV300      0.0180
     27  C27        8.9110   17.2650   15.7460 C.ar  300  TPV300      0.0908
     28  N28        7.5750   16.9820   15.5310 N.pl3 300  TPV300     -0.0952
     29  C29        9.2900   18.0730   16.8220 C.ar  300  TPV300      0.0141
     30  S30        6.8810   15.6480   16.1240 S.O2  300  TPV300      0.1095
     31  O31        7.6780   14.5190   15.6970 O.2   300  TPV300     -0.1468
     32  O32        5.5130   15.5280   15.7180 O.2   300  TPV300     -0.1468
     33  C33        6.9500   15.8740   17.7350 C.ar  300  TPV300      0.2078
     34  N34        8.0500   15.4610   18.4170 N.ar  300  TPV300     -0.2242
     35  C35        8.1990   15.7020   19.7520 C.ar  300  TPV300      0.1043
     36  C36        7.2030   16.3550   20.4990 C.ar  300  TPV300      0.0906
     37  C37        6.0520   16.7900   19.8200 C.ar  300  TPV300      0.0084
     38  C38        5.9140   16.5380   18.4360 C.ar  300  TPV300      0.0398
     39  C39        7.3830   16.6610   21.9620 C.3   300  TPV300      0.4200
     40  F40        7.9860   15.7200   22.6680 F     300  TPV300     -0.1658
     41  F41        6.2520   17.0630   22.4930 F     300  TPV300     -0.1658
     42  F42        8.1600   17.7280   22.0300 F     300  TPV300     -0.1658
@<TRIPOS>BOND
     1    16    17   ar
     2    16    15   ar
     3    17    18   ar
     4    15    14   ar
     5    18    19   ar
     6    14    19   ar
     7    14    13    1
     8    26    25   ar
     9    26    27   ar
    10    25    24   ar
    11    13    12    1
    12    28    27    1
    13    28    30    1
    14    31    30    2
    15    32    30    2
    16    27    29   ar
    17    30    33    1
    18    24    23   ar
    19    29    23   ar
    20    12     6    1
    21    23    20    1
    22     7     2    2
    23     1     2    1
    24     1     6    1
    25     2     3    1
    26    33    34   ar
    27    33    38   ar
    28     6     5    1
    29     6     9    1
    30     5     4    1
    31     3    20    1
    32     3     4    2
    33    20    21    1
    34     4     8    1
    35    34    35   ar
    36    38    37   ar
    37     9    10    1
    38    10    11    1
    39    21    22    1
    40    35    36   ar
    41    37    36   ar
    42    36    39    1
    43    39    42    1
    44    39    41    1
    45    39    40    1
