@<TRIPOS>MOLECULE
2o4p_TPV_A_1.pdb
 42 45 0 0 0
SMALL
GASTEIGER

@<TRIPOS>ATOM
      1  O1        13.6940   22.0290   16.5860 O.3   300  TPV300     -0.4524
      2  C2        12.4450   21.3450   16.8100 C.2   300  TPV300      0.3401
      3  C3        12.4600   20.0390   17.4770 C.2   300  TPV300      0.0918
      4  C4        13.6860   19.5000   17.7840 C.2   300  TPV300      0.1791
      5  C5        15.0150   20.1740   17.4840 C.3   300  TPV300      0.1090
      6  C6        14.9040   21.6890   17.2540 C.3   300  TPV300      0.1438
      7  O7        11.4360   21.8930   16.4140 O.2   300  TPV300     -0.2451
      8  O8        13.8160   18.3200   18.3550 O.2   300  TPV300     -0.2913
      9  C9        14.8370   22.2820   18.6830 C.3   300  TPV300      0.0406
     10  C10       15.2090   23.7360   18.8770 C.3   300  TPV300      0.0036
     11  C11       15.1790   24.0350   20.3650 C.3   300  TPV300      0.0001
     12  C12       16.0530   22.2100   16.3850 C.3   300  TPV300      0.0452
     13  C13       16.0850   21.7480   14.9010 C.3   300  TPV300      0.0299
     14  C14       17.2110   22.5020   14.1730 C.ar  300  TPV300     -0.0221
     15  C15       16.9200   23.6110   13.3770 C.ar  300  TPV300     -0.0043
     16  C16       17.9730   24.2740   12.7280 C.ar  300  TPV300     -0.0003
     17  C17       19.3070   23.8590   12.8950 C.ar  300  TPV300     -0.0000
     18  C18       19.6000   22.7600   13.6920 C.ar  300  TPV300     -0.0003
     19  C19       18.5490   22.0790   14.2970 C.ar  300  TPV300     -0.0043
     20  C20       11.0990   19.3940   17.7140 C.3   300  TPV300      0.0538
     21  C21       10.8720   18.7230   19.0910 C.3   300  TPV300      0.0090
     22  C22       11.0610   19.6620   20.2900 C.3   300  TPV300      0.0007
     23  C23       10.7490   18.4410   16.6240 C.ar  300  TPV300     -0.0168
     24  C24       11.6810   17.8550   15.7750 C.ar  300  TPV300     -0.0039
     25  C25       11.2710   16.9740   14.7660 C.ar  300  TPV300      0.0011
     26  C26        9.9140   16.6820   14.6130 C.ar  300  TPV300      0.0180
     27  C27        8.9630   17.2540   15.4560 C.ar  300  TPV300      0.0908
     28  N28        7.6170   16.9830   15.3240 N.pl3 300  TPV300     -0.0952
     29  C29        9.3950   18.1330   16.4430 C.ar  300  TPV300      0.0141
     30  S30        7.0060   15.6130   15.8950 S.O2  300  TPV300      0.1095
     31  O31        7.8350   14.5030   15.4400 O.2   300  TPV300     -0.1468
     32  O32        5.6300   15.4630   15.4740 O.2   300  TPV300     -0.1468
     33  C33        7.1150   15.8600   17.4940 C.ar  300  TPV300      0.2078
     34  N34        8.1990   15.4390   18.2020 N.ar  300  TPV300     -0.2242
     35  C35        8.3130   15.7160   19.5290 C.ar  300  TPV300      0.1043
     36  C36        7.3350   16.4380   20.2360 C.ar  300  TPV300      0.0906
     37  C37        6.2270   16.9090   19.5160 C.ar  300  TPV300      0.0084
     38  C38        6.1380   16.6190   18.1520 C.ar  300  TPV300      0.0398
     39  C39        7.4870   16.7890   21.7000 C.3   300  TPV300      0.4200
     40  F40        7.9660   15.8230   22.4870 F     300  TPV300     -0.1658
     41  F41        6.3480   17.2330   22.1870 F     300  TPV300     -0.1658
     42  F42        8.3380   17.8100   21.7340 F     300  TPV300     -0.1658
@<TRIPOS>BOND
     1    16    17   ar
     2    16    15   ar
     3    17    18   ar
     4    15    14   ar
     5    18    19   ar
     6    14    19   ar
     7    14    13    1
     8    26    25   ar
     9    26    27   ar
    10    25    24   ar
    11    13    12    1
    12    28    27    1
    13    28    30    1
    14    31    30    2
    15    27    29   ar
    16    32    30    2
    17    24    23   ar
    18    30    33    1
    19    12     6    1
    20     7     2    2
    21    29    23   ar
    22     1     2    1
    23     1     6    1
    24    23    20    1
    25     2     3    1
    26     6     5    1
    27     6     9    1
    28     3    20    1
    29     3     4    2
    30     5     4    1
    31    33    38   ar
    32    33    34   ar
    33    20    21    1
    34     4     8    1
    35    38    37   ar
    36    34    35   ar
    37     9    10    1
    38    10    11    1
    39    21    22    1
    40    37    36   ar
    41    35    36   ar
    42    36    39    1
    43    39    42    1
    44    39    41    1
    45    39    40    1
