@<TRIPOS>MOLECULE
2o4r_VD5_A_1.pdb
 30 32 0 0 0
SMALL
GASTEIGER

@<TRIPOS>ATOM
      1  O2        58.6410    8.1120    1.1290 O.3   500  VD5500     -0.2182
      2  C3        60.0720    8.1510    1.1710 C.3   500  VD5500      0.1767
      3  C2        60.4990    6.9420    1.9700 C.2   500  VD5500      0.0160
      4  C28       61.1180    7.0430    3.1420 C.2   500  VD5500     -0.0041
      5  C1        60.1550    5.6100    1.4290 C.3   500  VD5500      0.1767
      6  O1        60.6250    4.6310    2.3660 O.3   500  VD5500     -0.2182
      7  C10       60.8200    5.4780    0.0380 C.3   500  VD5500      0.0593
      8  C4        60.5780    8.0860   -0.2670 C.3   500  VD5500      0.0593
      9  C5        60.5540    6.6880   -0.8610 C.2   500  VD5500     -0.0385
     10  C6        60.3190    6.5590   -2.2040 C.2   500  VD5500     -0.0090
     11  C7        60.3190    5.2430   -2.8880 C.2   500  VD5500     -0.0091
     12  C8        60.4950    5.1380   -4.2460 C.2   500  VD5500     -0.0443
     13  C9        60.6700    6.3700   -5.1360 C.3   500  VD5500      0.0220
     14  C11       61.9240    6.2130   -6.0160 C.3   500  VD5500      0.0047
     15  C12       62.1560    4.7980   -6.6190 C.3   500  VD5500      0.0043
     16  C14       60.6070    3.8140   -5.0110 C.3   500  VD5500      0.0220
     17  C13       62.0390    3.6800   -5.5630 C.3   500  VD5500      0.0180
     18  C18       63.1380    3.7650   -4.4740 C.3   500  VD5500      0.0043
     19  C15       60.2830    2.4580   -4.3800 C.3   500  VD5500      0.0086
     20  C16       61.0310    1.4330   -5.2850 C.3   500  VD5500      0.0217
     21  C17       62.0800    2.2350   -6.0340 C.2   500  VD5500     -0.0524
     22  C20       62.9260    1.7150   -6.9700 C.2   500  VD5500     -0.0518
     23  C21       63.9680    2.5330   -7.7070 C.3   500  VD5500      0.0257
     24  C22       62.8890    0.2630   -7.3870 C.3   500  VD5500      0.0215
     25  C23       63.7670   -0.5750   -6.4670 C.3   500  VD5500      0.0068
     26  C24       65.2380   -0.4300   -6.8750 C.3   500  VD5500      0.0307
     27  C25       66.0370   -1.6950   -6.6220 C.3   500  VD5500      0.1268
     28  C27       66.0010   -2.1750   -5.1590 C.3   500  VD5500      0.0329
     29  C26       67.4820   -1.3990   -6.9750 C.3   500  VD5500      0.0329
     30  O3        65.5130   -2.7450   -7.4440 O.3   500  VD5500     -0.2257
@<TRIPOS>BOND
     1    23    22    1
     2    30    27    1
     3    24    22    1
     4    24    25    1
     5    29    27    1
     6    22    21    2
     7    26    27    1
     8    26    25    1
     9    27    28    1
    10    15    14    1
    11    15    17    1
    12    21    17    1
    13    21    20    1
    14    14    13    1
    15    17    16    1
    16    17    18    1
    17    20    19    1
    18    13    12    1
    19    16    19    1
    20    16    12    1
    21    12    11    2
    22    11    10    1
    23    10     9    2
    24     9     8    1
    25     9     7    1
    26     8     2    1
    27     7     5    1
    28     1     2    1
    29     2     3    1
    30     5     3    1
    31     5     6    1
    32     3     4    2
