@<TRIPOS>MOLECULE
2o4s_AB1_A_1.pdb
 46 49 0 0 0
SMALL
GASTEIGER

@<TRIPOS>ATOM
      1  C1         5.3550  -16.4940  -17.3880 C.3   400  AB1400      0.1409
      2  C2         7.1810  -17.9060  -16.3700 C.3   400  AB1400      0.1053
      3  N1         8.1370  -16.9120  -16.8990 N.am  400  AB1400     -0.2295
      4  C3         7.7660  -15.8860  -17.7000 C.1   400  AB1400      0.2113
      5  N2         6.4440  -15.7130  -17.9600 N.2   400  AB1400     -0.1900
      6  C4        15.0010  -20.6720  -15.2640 C.ar  400  AB1400     -0.0204
      7  C5        16.2970  -21.1360  -15.1910 C.ar  400  AB1400     -0.0042
      8  C6        16.6200  -22.2150  -14.3630 C.ar  400  AB1400     -0.0003
      9  C7        15.6090  -22.8130  -13.6190 C.ar  400  AB1400     -0.0000
     10  C8        14.2900  -22.3490  -13.6890 C.ar  400  AB1400     -0.0003
     11  C9        13.9770  -21.2640  -14.5180 C.ar  400  AB1400     -0.0042
     12  O1         8.5990  -15.1510  -18.2070 O.2   400  AB1400     -0.2063
     13  C10        9.5600  -17.1760  -16.5720 C.3   400  AB1400      0.1614
     14  C11       10.0350  -18.4130  -17.2760 C.2   400  AB1400      0.2600
     15  N3        10.7510  -18.1740  -18.3790 N.am  400  AB1400     -0.2054
     16  C12       11.3260  -19.2370  -19.2530 C.3   400  AB1400      0.1023
     17  C13        9.8060  -17.2710  -15.0490 C.3   400  AB1400      0.0278
     18  C14       11.2730  -17.5360  -14.7110 C.3   400  AB1400      0.0022
     19  C15        9.2700  -16.0380  -14.2960 C.3   400  AB1400      0.0022
     20  O2         9.7790  -19.5400  -16.8360 O.2   400  AB1400     -0.2715
     21  C16        7.1320  -20.7430  -20.4720 C.ar  400  AB1400     -0.0003
     22  C17        6.3530  -19.5860  -20.4440 C.ar  400  AB1400     -0.0000
     23  C18        6.9430  -18.3120  -20.5200 C.ar  400  AB1400     -0.0003
     24  C19        8.3410  -18.1720  -20.5720 C.ar  400  AB1400     -0.0042
     25  C20        9.1270  -19.3190  -20.5630 C.ar  400  AB1400     -0.0205
     26  C21        8.5450  -20.6020  -20.5190 C.ar  400  AB1400     -0.0042
     27  C22       10.6170  -19.1520  -20.6220 C.3   400  AB1400      0.0481
     28  C23       12.8070  -18.9690  -19.5040 C.3   400  AB1400      0.0567
     29  C24       13.6990  -18.7180  -18.2880 C.3   400  AB1400      0.1738
     30  C25       13.8770  -19.9230  -17.3830 C.3   400  AB1400      0.1300
     31  N4        14.5820  -20.9910  -18.1200 N.am  400  AB1400     -0.2011
     32  C26       13.9330  -22.1590  -18.4080 C.2   400  AB1400      0.2859
     33  C27       14.7300  -23.2240  -19.1200 C.3   400  AB1400      0.2911
     34  O3        16.0560  -22.7710  -19.4160 O.3   400  AB1400     -0.4662
     35  C28       16.9460  -23.7580  -19.7400 C.ar  400  AB1400      0.1312
     36  O4        14.9960  -18.2990  -18.7190 O.3   400  AB1400     -0.2212
     37  C29       14.7380  -19.5010  -16.1910 C.3   400  AB1400      0.0506
     38  O5        12.7680  -22.4620  -18.1530 O.2   400  AB1400     -0.2693
     39  C30       16.8490  -24.3830  -20.9930 C.ar  400  AB1400      0.0118
     40  C31       17.7390  -25.4060  -21.2980 C.ar  400  AB1400     -0.0013
     41  C32       18.7080  -25.8360  -20.3880 C.ar  400  AB1400     -0.0004
     42  C33       18.7830  -25.2350  -19.1400 C.ar  400  AB1400     -0.0013
     43  C34       17.9080  -24.1810  -18.8110 C.ar  400  AB1400      0.0118
     44  C35       17.9730  -23.5370  -17.4460 C.3   400  AB1400      0.0342
     45  C36       15.8330  -23.9850  -22.0580 C.3   400  AB1400      0.0342
     46  C37        5.8420  -17.2030  -16.1170 C.3   400  AB1400      0.0495
@<TRIPOS>BOND
     1    45    39    1
     2    40    39   ar
     3    40    41   ar
     4    39    35   ar
     5    27    25    1
     6    27    16    1
     7    24    25   ar
     8    24    23   ar
     9    25    26   ar
    10    23    22   ar
    11    26    21   ar
    12    21    22   ar
    13    41    42   ar
    14    35    34    1
    15    35    43   ar
    16    28    16    1
    17    28    29    1
    18    34    33    1
    19    16    15    1
    20    42    43   ar
    21    33    32    1
    22    43    44    1
    23    36    29    1
    24    32    38    2
    25    32    31   am
    26    15    14   am
    27    29    30    1
    28    12     4    2
    29    31    30    1
    30     5     4    2
    31     5     1    1
    32     4     3   am
    33     1    46    1
    34    30    37    1
    35    14    20    2
    36    14    13    1
    37     3    13    1
    38     3     2    1
    39    13    17    1
    40     2    46    1
    41    37     6    1
    42     6     7   ar
    43     6    11   ar
    44     7     8   ar
    45    17    18    1
    46    17    19    1
    47    11    10   ar
    48     8     9   ar
    49    10     9   ar
