@<TRIPOS>MOLECULE
2o4v_C8E_A_1.pdb
 21 20 0 0 0
SMALL
GASTEIGER

@<TRIPOS>ATOM
      1  C1        55.6320   41.6810   27.5040 C.3   1297  C8E1297     0.0000
      2  C2        56.3890   42.3520   26.3610 C.3   1297  C8E1297     0.0000
      3  C3        56.3950   41.4750   25.1120 C.3   1297  C8E1297     0.0000
      4  C4        57.8170   41.2030   24.6360 C.3   1297  C8E1297     0.0000
      5  C5        58.2490   39.7880   25.0070 C.3   1297  C8E1297     0.0001
      6  C6        59.1860   39.1950   23.9610 C.3   1297  C8E1297     0.0026
      7  C7        58.5980   37.9380   23.3370 C.3   1297  C8E1297     0.0321
      8  C8        58.2850   38.1510   21.8600 C.3   1297  C8E1297     0.1423
      9  O9        57.3990   37.1410   21.4390 O.3   1297  C8E1297    -0.3511
     10  C10       56.5690   37.5420   20.3740 C.3   1297  C8E1297     0.1741
     11  C11       55.1480   37.0520   20.6270 C.3   1297  C8E1297     0.1742
     12  O12       54.5690   36.5950   19.4250 O.3   1297  C8E1297    -0.3484
     13  C13       53.1970   36.3180   19.5960 C.3   1297  C8E1297     0.1742
     14  C14       52.3830   36.9560   18.4760 C.3   1297  C8E1297     0.1742
     15  O15       51.4550   36.0130   17.9830 O.3   1297  C8E1297    -0.3484
     16  C16       50.3200   36.6140   17.4010 C.3   1297  C8E1297     0.1742
     17  C17       49.0620   35.8540   17.8100 C.3   1297  C8E1297     0.1742
     18  O18       48.9060   35.8750   19.2160 O.3   1297  C8E1297    -0.3483
     19  C19       47.8630   35.0200   19.6450 C.3   1297  C8E1297     0.1777
     20  C20       48.1100   34.5610   21.0830 C.3   1297  C8E1297     0.2140
     21  O21       47.1500   33.5910   21.4500 O.3   1297  C8E1297    -0.2176
@<TRIPOS>BOND
     1    16    17    1
     2    16    15    1
     3    17    18    1
     4    15    14    1
     5    14    13    1
     6    18    19    1
     7    12    13    1
     8    12    11    1
     9    19    20    1
    10    10    11    1
    11    10     9    1
    12    20    21    1
    13     9     8    1
    14     8     7    1
    15     7     6    1
    16     6     5    1
    17     4     5    1
    18     4     3    1
    19     3     2    1
    20     2     1    1
