@<TRIPOS>MOLECULE
2o51_FRU_A_1.pdb
 12 12 0 0 0
SMALL
GASTEIGER

@<TRIPOS>ATOM
      1  C1        13.8020   16.6380   13.6740 C.3   693  FRU693      0.2434
      2  C2        12.3930   15.9170   13.7740 C.3   693  FRU693      0.2807
      3  C3        12.0280   15.4520   15.1830 C.3   693  FRU693      0.2409
      4  C4        11.0590   14.2760   14.9730 C.3   693  FRU693      0.2168
      5  C5        11.5970   13.7060   13.6800 C.3   693  FRU693      0.1836
      6  C6        10.4690   13.4920   12.6720 C.3   693  FRU693      0.2142
      7  O1        15.1530   16.2650   14.0530 O.3   693  FRU693     -0.2148
      8  O2        11.4850   16.8040   13.1100 O.3   693  FRU693     -0.1896
      9  O3        11.6110   16.1860   16.3230 O.3   693  FRU693     -0.2149
     10  O4        11.1280   13.3690   16.0610 O.3   693  FRU693     -0.2175
     11  O5        12.6510   14.6370   13.2210 O.3   693  FRU693     -0.3253
     12  O6        10.9480   12.5600   11.7840 O.3   693  FRU693     -0.2176
@<TRIPOS>BOND
     1    12     6    1
     2     6     5    1
     3     8     2    1
     4    11     5    1
     5    11     2    1
     6     1     2    1
     7     1     7    1
     8     5     4    1
     9     2     3    1
    10     4     3    1
    11     4    10    1
    12     3     9    1
