@<TRIPOS>MOLECULE
2o52_GDP_A_1.pdb
 28 30 0 0 0
SMALL
GASTEIGER

@<TRIPOS>ATOM
      1  PB        21.0320  -12.6250    1.7510 P.3   601  GDP601      0.5373
      2  O1B       21.0880  -14.0340    1.2480 O.2   601  GDP601     -0.2221
      3  O2B       19.7460  -12.3670    2.4600 O.3   601  GDP601     -0.1143
      4  O3B       22.1740  -12.3740    2.6900 O.3   601  GDP601     -0.1143
      5  O3A       21.1690  -11.6250    0.4990 O.3   601  GDP601     -0.2261
      6  PA        20.6030  -10.1190    0.4360 P.3   601  GDP601      0.2231
      7  O1A       19.1290  -10.0780    0.1240 O.2   601  GDP601     -0.5169
      8  O2A       20.9400   -9.3420    1.6720 O.3   601  GDP601     -0.4370
      9  O5'       21.4400   -9.6000   -0.8510 O.3   601  GDP601     -0.3111
     10  C5'       22.8390   -9.3480   -0.7020 C.3   601  GDP601      0.1813
     11  C4'       23.3410   -8.4520   -1.8270 C.3   601  GDP601      0.1799
     12  O4'       23.0110   -9.0020   -3.1080 O.3   601  GDP601     -0.3326
     13  C3'       22.6940   -7.0880   -1.7560 C.3   601  GDP601      0.2158
     14  O3'       23.6910   -6.1220   -2.0420 O.3   601  GDP601     -0.2175
     15  C2'       21.5820   -7.1570   -2.7850 C.3   601  GDP601      0.2310
     16  O2'       21.1700   -5.8980   -3.3400 O.3   601  GDP601     -0.2158
     17  C1'       22.1710   -8.0860   -3.8110 C.3   601  GDP601      0.2293
     18  N9        21.1510   -8.8410   -4.5650 N.pl3 601  GDP601     -0.2354
     19  C8        20.1780   -9.6100   -4.1050 C.3   601  GDP601      0.2246
     20  N7        19.4760  -10.1500   -5.1270 N.2   601  GDP601     -0.2322
     21  C5        20.0020   -9.7270   -6.2670 C.2   601  GDP601      0.2182
     22  C6        19.7630   -9.8950   -7.7160 C.1   601  GDP601      0.2372
     23  O6        18.8310  -10.6150   -8.1500 O.2   601  GDP601     -0.2069
     24  N1        20.5940   -9.2540   -8.5650 N.2   601  GDP601     -0.2485
     25  C2        21.6080   -8.4740   -8.1420 C.1   601  GDP601      0.2531
     26  N2        22.4280   -7.8420   -9.0340 N.pl3 601  GDP601     -0.0226
     27  N3        21.8630   -8.2810   -6.8430 N.2   601  GDP601     -0.3074
     28  C4        21.1180   -8.8730   -5.8850 C.2   601  GDP601      0.2300
@<TRIPOS>BOND
     1    26    25    1
     2    24    25    2
     3    24    22    2
     4    23    22    2
     5    25    27    2
     6    22    21    1
     7    27    28    2
     8    21    28    1
     9    21    20    2
    10    28    18    1
    11    20    19    1
    12    18    19    1
    13    18    17    1
    14    17    12    1
    15    17    15    1
    16    16    15    1
    17    12    11    1
    18    15    13    1
    19    14    13    1
    20    11    13    1
    21    11    10    1
    22     9    10    1
    23     9     6    1
    24     7     6    2
    25     6     5    1
    26     6     8    1
    27     5     1    1
    28     2     1    2
    29     1     3    1
    30     1     4    1
