@<TRIPOS>MOLECULE
2o58_MNR_X_1.pdb
 43 50 0 0 0
SMALL
GASTEIGER

@<TRIPOS>ATOM
      1  CHA       -0.7110    9.7000   16.3130 C.2   154  MNR154      0.0000
      2  CHB       -4.2640    6.4500   15.2390 C.2   154  MNR154      0.0000
      3  CHC       -0.8470    3.1600   13.9730 C.2   154  MNR154      0.0000
      4  CHD        2.6260    6.2430   15.0980 C.2   154  MNR154      0.0000
      5  C1A       -2.0240    9.0490   16.1580 C.2   154  MNR154      0.0000
      6  C2A       -3.1700    9.7940   16.4600 C.2   154  MNR154      0.0000
      7  C3A       -4.2440    8.8140   16.2370 C.2   154  MNR154      0.0000
      8  C4A       -3.5090    7.6130   15.7470 C.2   154  MNR154      0.0000
      9  CMA       -5.7460    9.0090   16.2760 C.3   154  MNR154      0.0000
     10  CAA       -3.3300   11.2520   16.8650 C.3   154  MNR154      0.0000
     11  CBA       -3.8690   12.0480   15.6660 C.3   154  MNR154      0.0000
     12  CGA       -2.8980   12.0720   14.4820 C.2   154  MNR154      0.0000
     13  O1A       -1.7110   12.4530   14.6790 O.co2 154  MNR154      0.0000
     14  O2A       -3.3450   11.6790   13.3640 O.co2 154  MNR154      0.0000
     15  C1B       -3.6170    5.1910   14.8040 C.ar  154  MNR154      0.0000
     16  C2B       -4.4100    4.0750   14.5010 C.ar  154  MNR154      0.0000
     17  C3B       -3.3750    3.1310   14.1060 C.ar  154  MNR154      0.0000
     18  C4B       -2.0190    3.7620   14.2310 C.ar  154  MNR154      0.0000
     19  CMB       -5.9110    3.8350   14.5000 C.3   154  MNR154      0.0000
     20  CAB       -3.6720    1.7400   13.6680 C.2   154  MNR154      0.0000
     21  CBB       -4.6480    1.0200   14.2030 C.2   154  MNR154      0.0000
     22  C1C        0.2890    3.7310   14.1880 C.2   154  MNR154      0.0000
     23  C2C        1.5470    2.9370   13.9700 C.2   154  MNR154      0.0000
     24  C3C        2.6600    3.9660   14.1130 C.2   154  MNR154      0.0000
     25  C4C        1.9210    5.1770   14.6620 C.2   154  MNR154      0.0000
     26  CMC        1.6230    1.4530   13.5930 C.3   154  MNR154      0.0000
     27  CAC        4.0850    3.6350   14.5130 C.2   154  MNR154      0.0000
     28  CBC        4.6760    2.5270   14.1310 C.2   154  MNR154      0.0000
     29  C1D        2.0060    7.5210   15.5270 C.ar  154  MNR154      0.0000
     30  C2D        2.8680    8.6800   15.9390 C.ar  154  MNR154      0.0000
     31  C3D        1.8670    9.6590   16.3830 C.ar  154  MNR154      0.0000
     32  C4D        0.5750    8.9880   16.0990 C.ar  154  MNR154      0.0000
     33  CMD        4.3690    8.8370   15.9200 C.3   154  MNR154      0.0000
     34  CAD        2.1400   10.9790   17.0850 C.3   154  MNR154      0.0000
     35  CBD        2.4140   10.6220   18.5420 C.3   154  MNR154      0.0000
     36  CGD        2.6180   11.8230   19.4450 C.2   154  MNR154      0.0000
     37  O1D        1.6210   12.3850   19.9530 O.co2 154  MNR154      0.0000
     38  O2D        3.7910   12.1760   19.6900 O.co2 154  MNR154      0.0000
     39 MN         -0.7780    6.4400   14.9610 Mn    154  MNR154      0.0000
     40  NA        -2.1640    7.7830   15.7280 N.2   154  MNR154      0.0000
     41  NB        -2.2750    5.0260   14.6600 N.ar  154  MNR154      0.0000
     42  NC         0.5940    4.9840   14.5710 N.2   154  MNR154      0.0000
     43  ND         0.6780    7.7510   15.5920 N.ar  154  MNR154      0.0000
@<TRIPOS>BOND
     1    14    12   ar
     2    26    23    1
     3    20    17    1
     4    20    21    2
     5    23    24    2
     6    23    22    1
     7     3    22    2
     8     3    18    1
     9    17    18   ar
    10    17    16   ar
    11    24    27    1
    12    24    25    1
    13    28    27    2
    14    22    42    1
    15    18    41   ar
    16    12    13   ar
    17    12    11    1
    18    19    16    1
    19    16    15   ar
    20    42    25    2
    21    42    39    1
    22    41    15   ar
    23    41    39    1
    24    25     4    1
    25    15     2    1
    26    39    43    1
    27    39    40    1
    28     4    29    2
    29     2     8    2
    30    29    43   ar
    31    29    30   ar
    32    43    32   ar
    33    11    10    1
    34    40     8    1
    35    40     5    2
    36     8     7    1
    37    33    30    1
    38    30    31   ar
    39    32     1    2
    40    32    31   ar
    41     5     1    1
    42     5     6    1
    43     7     9    1
    44     7     6    2
    45    31    34    1
    46     6    10    1
    47    34    35    1
    48    35    36    1
    49    36    38   ar
    50    36    37   ar
