@<TRIPOS>MOLECULE
2o5b_MNH_X_1.pdb
 43 50 0 0 0
SMALL
GASTEIGER

@<TRIPOS>ATOM
      1 MN         -0.8530    6.4310   14.7740 Mn    154  MNH154      0.0000
      2  CHA       -0.8550    9.7510   16.3040 C.2   154  MNH154      0.0000
      3  CHB       -4.4560    6.4470   15.0010 C.2   154  MNH154      0.0000
      4  CHC       -0.8060    3.1720   14.1300 C.2   154  MNH154      0.0000
      5  CHD        2.6000    6.3740   15.2170 C.2   154  MNH154      0.0000
      6  NA        -2.2640    7.7430   15.5700 N.ar  154  MNH154      0.0000
      7  C1A       -2.0950    9.0060   16.0230 C.ar  154  MNH154      0.0000
      8  C2A       -3.3020    9.7090   16.2190 C.ar  154  MNH154      0.0000
      9  C3A       -4.3800    8.7840   15.8760 C.ar  154  MNH154      0.0000
     10  C4A       -3.6290    7.5970   15.4600 C.ar  154  MNH154      0.0000
     11  CMA       -5.9060    9.0350   15.9830 C.3   154  MNH154      0.0000
     12  CAA       -3.5250   11.1630   16.6850 C.3   154  MNH154      0.0000
     13  CBA       -3.8550   12.0080   15.4830 C.3   154  MNH154      0.0000
     14  CGA       -2.8210   12.0480   14.3530 C.2   154  MNH154      0.0000
     15  O1A       -1.6330   12.3920   14.5630 O.co2 154  MNH154      0.0000
     16  O2A       -3.2200   11.7330   13.1790 O.co2 154  MNH154      0.0000
     17  NB        -2.3690    5.0540   14.6500 N.2   154  MNH154      0.0000
     18  C1B       -3.6980    5.1750   14.6880 C.2   154  MNH154      0.0000
     19  C2B       -4.3870    4.0230   14.4450 C.2   154  MNH154      0.0000
     20  C3B       -3.2930    3.0830   14.1850 C.2   154  MNH154      0.0000
     21  C4B       -2.0000    3.8020   14.3170 C.2   154  MNH154      0.0000
     22  CMB       -5.9010    3.9090   14.4350 C.3   154  MNH154      0.0000
     23  CAB       -3.3960    1.6290   13.8560 C.2   154  MNH154      0.0000
     24  CBB       -4.5150    0.9350   13.8140 C.2   154  MNH154      0.0000
     25  NC         0.5930    5.0060   14.7010 N.ar  154  MNH154      0.0000
     26  C1C        0.2990    3.7560   14.3620 C.ar  154  MNH154      0.0000
     27  C2C        1.5580    2.9660   14.3030 C.ar  154  MNH154      0.0000
     28  C3C        2.6240    4.0460   14.4590 C.ar  154  MNH154      0.0000
     29  C4C        1.8820    5.2620   14.8750 C.ar  154  MNH154      0.0000
     30  CMC        1.6570    1.4860   13.9650 C.3   154  MNH154      0.0000
     31  CAC        4.0610    3.9300   15.0300 C.2   154  MNH154      0.0000
     32  CBC        4.9660    3.0740   14.6720 C.2   154  MNH154      0.0000
     33  ND         0.4960    7.8130   15.5880 N.2   154  MNH154      0.0000
     34  C1D        1.8870    7.6470   15.6290 C.2   154  MNH154      0.0000
     35  C2D        2.7300    8.7710   16.1380 C.2   154  MNH154      0.0000
     36  C3D        1.7060    9.7540   16.5580 C.2   154  MNH154      0.0000
     37  C4D        0.4410    9.0660   16.1560 C.2   154  MNH154      0.0000
     38  CMD        4.2530    8.7850   16.3240 C.3   154  MNH154      0.0000
     39  CAD        1.9130   11.1260   17.2530 C.3   154  MNH154      0.0000
     40  CBD        2.3660   10.7390   18.6620 C.3   154  MNH154      0.0000
     41  CGD        2.5590   11.9350   19.6130 C.2   154  MNH154      0.0000
     42  O1D        1.5570   12.5400   20.0380 O.co2 154  MNH154      0.0000
     43  O2D        3.7120   12.2700   20.0030 O.co2 154  MNH154      0.0000
@<TRIPOS>BOND
     1    16    14   ar
     2    24    23    2
     3    23    20    1
     4    30    27    1
     5     4    21    2
     6     4    26    1
     7    20    21    1
     8    20    19    2
     9    27    26   ar
    10    27    28   ar
    11    21    17    1
    12    14    15   ar
    13    14    13    1
    14    26    25   ar
    15    22    19    1
    16    19    18    1
    17    28    29   ar
    18    28    31    1
    19    17    18    2
    20    17     1    1
    21    32    31    2
    22    18     3    1
    23    25     1    1
    24    25    29   ar
    25     1     6    1
    26     1    33    1
    27    29     5    1
    28     3    10    2
    29     5    34    2
    30    10     6   ar
    31    10     9   ar
    32    13    12    1
    33     6     7   ar
    34    33    34    1
    35    33    37    2
    36    34    35    1
    37     9    11    1
    38     9     8   ar
    39     7     8   ar
    40     7     2    2
    41    35    38    1
    42    35    36    2
    43    37     2    1
    44    37    36    1
    45     8    12    1
    46    36    39    1
    47    39    40    1
    48    40    41    1
    49    41    43   ar
    50    41    42   ar
