@<TRIPOS>MOLECULE
2o5d_VR1_A_1.pdb
 38 41 0 0 0
SMALL
GASTEIGER

@<TRIPOS>ATOM
      1  C1        11.4860   30.7270   70.6960 C.ar  600  VR1600      0.1228
      2  C2        11.7110   31.9020   71.4350 C.ar  600  VR1600      0.0361
      3  C3        10.4910   32.4060   71.8220 C.ar  600  VR1600      0.0403
      4  C4         9.4990   31.5460   71.3360 C.ar  600  VR1600      0.1462
      5  O5        10.1160   30.5260   70.6480 O.2   600  VR1600     -0.4577
      6  C6        12.5010   29.8260   70.0390 C.3   600  VR1600      0.0645
      7  C7        13.0200   30.4510   68.7270 C.3   600  VR1600      0.0084
      8  C8         8.0050   31.6510   71.4580 C.2   600  VR1600      0.0568
      9  C9         7.2250   32.6240   72.0530 C.2   600  VR1600      0.1306
     10  C10        5.7450   32.6990   71.9690 C.1   600  VR1600      0.2128
     11  N11        5.2790   33.7990   72.6650 N.2   600  VR1600     -0.3086
     12  C12        6.2760   34.4900   73.2180 C.2   600  VR1600      0.2446
     13  S13        7.8790   33.9210   72.9870 S.3   600  VR1600     -0.0248
     14  O14        5.0420   31.8980   71.3660 O.2   600  VR1600     -0.2087
     15  N15        5.9690   35.6480   73.9530 N.pl3 600  VR1600     -0.1911
     16  C16        6.9150   36.5270   74.6700 C.3   600  VR1600      0.1968
     17  C17        6.1520   37.5060   75.5460 C.2   600  VR1600      0.2863
     18  O18        5.2780   38.2860   75.0920 O.2   600  VR1600     -0.2694
     19  N19        6.4540   37.5050   76.8230 N.am  600  VR1600     -0.0570
     20  S20        5.6810   38.5480   77.8920 S.O2  600  VR1600      0.0954
     21  C21        7.8580   37.3350   73.7180 C.ar  600  VR1600      0.0064
     22  C22        7.3590   38.3090   72.7200 C.ar  600  VR1600      0.0002
     23  C23        8.2810   39.0250   71.8870 C.ar  600  VR1600      0.0294
     24  C24        9.6980   38.7920   72.0250 C.ar  600  VR1600      0.1401
     25  C25       10.2010   37.8470   72.9870 C.ar  600  VR1600      0.0294
     26  C26        9.2850   37.1240   73.8290 C.ar  600  VR1600      0.0002
     27  F         10.5710   39.4690   71.2450 F     600  VR1600     -0.2042
     28  O28        6.4920   38.5090   79.3000 O.2   600  VR1600     -0.1482
     29  O29        5.7010   40.0240   77.2150 O.2   600  VR1600     -0.1482
     30  C30        4.0220   37.9630   78.0420 C.ar  600  VR1600      0.1272
     31  C31        2.9530   38.8090   77.6680 C.ar  600  VR1600      0.0220
     32  C32        1.6210   38.3420   77.7940 C.ar  600  VR1600      0.0255
     33  C33        1.3400   37.0230   78.2940 C.ar  600  VR1600      0.1430
     34  C34        2.4530   36.1840   78.6630 C.ar  600  VR1600      0.0255
     35  C35        3.7910   36.6440   78.5410 C.ar  600  VR1600      0.0220
     36  N36       -0.0920   36.5300   78.4290 N.pl3 600  VR1600      0.0577
     37  O37       -1.0440   37.2400   78.1180 O.2   600  VR1600     -0.1261
     38  O38       -0.3420   35.4040   78.8550 O.2   600  VR1600     -0.1261
@<TRIPOS>BOND
     1     7     6    1
     2     6     1    1
     3     5     1   ar
     4     5     4   ar
     5     1     2   ar
     6    27    24    1
     7     4     8    1
     8     4     3   ar
     9    14    10    2
    10     2     3   ar
    11     8     9    2
    12    23    24   ar
    13    23    22   ar
    14    10     9    1
    15    10    11    2
    16    24    25   ar
    17     9    13    1
    18    11    12    2
    19    22    21   ar
    20    13    12    1
    21    25    26   ar
    22    12    15    1
    23    21    26   ar
    24    21    16    1
    25    15    16    1
    26    16    17    1
    27    18    17    2
    28    17    19   am
    29    19    20    1
    30    29    20    2
    31    31    32   ar
    32    31    30   ar
    33    32    33   ar
    34    20    30    1
    35    20    28    2
    36    30    35   ar
    37    37    36    2
    38    33    36    1
    39    33    34   ar
    40    36    38    2
    41    35    34   ar
