@<TRIPOS>MOLECULE
2o5j_APC_D_1.pdb
 31 33 0 0 0
SMALL
GASTEIGER

@<TRIPOS>ATOM
      1  PG        56.9560   70.9860   -9.0980 P.3   3999  APC3999     0.5389
      2  O1G       57.5740   69.6000   -8.9260 O.3   3999  APC3999    -0.1143
      3  O2G       56.1930   71.0700  -10.4180 O.2   3999  APC3999    -0.2220
      4  O3G       58.0790   72.0070   -9.1080 O.3   3999  APC3999    -0.1143
      5  PB        56.5490   71.3780   -6.3480 P.3   3999  APC3999     0.3895
      6  O1B       55.7100   70.5100   -5.4940 O.3   3999  APC3999    -0.1388
      7  O2B       57.9980   71.1180   -6.4570 O.2   3999  APC3999    -0.2544
      8  O3B       55.9530   71.2860   -7.8500 O.3   3999  APC3999    -0.2026
      9  PA        55.9730   74.1700   -6.8700 P.3   3999  APC3999     0.3820
     10  O1A       57.2060   74.9770   -7.0670 O.3   3999  APC3999    -0.1392
     11  O2A       55.2250   73.6530   -8.0450 O.2   3999  APC3999    -0.2548
     12  C3A       56.3580   72.9310   -5.8600 C.3   3999  APC3999     0.2357
     13  O5'       54.9060   75.0120   -6.0430 O.3   3999  APC3999    -0.2896
     14  C5'       55.2060   76.2600   -5.4060 C.3   3999  APC3999     0.1836
     15  C4'       55.5910   76.0470   -3.9530 C.3   3999  APC3999     0.1822
     16  O4'       55.1610   77.2280   -3.1980 O.3   3999  APC3999    -0.3135
     17  C3'       55.0440   74.8330   -3.1840 C.3   3999  APC3999     0.2184
     18  O3'       56.0450   73.9790   -2.6850 O.3   3999  APC3999    -0.2174
     19  C2'       54.2360   75.3710   -2.0080 C.3   3999  APC3999     0.2570
     20  O2'       55.1090   75.1460   -0.9050 O.3   3999  APC3999    -0.2130
     21  C1'       54.1540   76.8760   -2.2640 C.3   3999  APC3999     0.3186
     22  N9        52.7920   77.2910   -2.6770 N.pl3 3999  APC3999    -0.1439
     23  C8        52.0880   77.4910   -3.8560 C.3   3999  APC3999     0.3377
     24  N7        50.8060   77.7740   -3.6660 N.2   3999  APC3999    -0.2095
     25  C5        50.6760   77.7820   -2.2860 C.2   3999  APC3999     0.2526
     26  C6        49.5970   77.9990   -1.4060 C.2   3999  APC3999     0.4393
     27  N6        48.3330   78.2810   -1.7320 N.pl3 3999  APC3999     0.2180
     28  N1        49.8660   77.9130   -0.1000 N.2   3999  APC3999     0.0021
     29  C2        51.0910   77.6480    0.3100 C.3   3999  APC3999     0.5254
     30  N3        52.1610   77.4350   -0.3850 N.2   3999  APC3999    -0.0055
     31  C4        51.8920   77.5110   -1.6820 C.2   3999  APC3999     0.3518
@<TRIPOS>BOND
     1     3     1    2
     2     4     1    1
     3     1     2    1
     4     1     8    1
     5    11     9    2
     6     8     5    1
     7    10     9    1
     8     9    13    1
     9     9    12    1
    10     7     5    2
    11     5    12    1
    12     5     6    1
    13    13    14    1
    14    14    15    1
    15    15    16    1
    16    15    17    1
    17    23    24    1
    18    23    22    1
    19    24    25    2
    20    16    21    1
    21    17    18    1
    22    17    19    1
    23    22    21    1
    24    22    31    1
    25    25    31    1
    26    25    26    1
    27    21    19    1
    28    19    20    1
    29    27    26    1
    30    31    30    2
    31    26    28    2
    32    30    29    1
    33    28    29    1
