@<TRIPOS>MOLECULE
2o5k_HBM_A_1.pdb
 34 37 0 0 0
SMALL
GASTEIGER

@<TRIPOS>ATOM
      1  C2        12.6940   32.1200   -7.0910 C.ar    0  HBM0        0.0106
      2  C4        13.1860   33.8080   -8.8920 C.ar    0  HBM0        0.2285
      3  C6        11.3450   32.0610   -9.1550 C.ar    0  HBM0        0.1817
      4  C10        9.7050   32.4190  -12.3080 C.ar    0  HBM0        0.0962
      5  C11       10.2440   32.8290  -13.6510 C.ar    0  HBM0        0.0138
      6  C1        11.6220   31.4910   -7.8370 C.ar    0  HBM0        0.0883
      7  C3        13.4520   33.2390   -7.5920 C.ar    0  HBM0        0.0451
      8  C5        12.1250   33.2380   -9.7060 C.ar    0  HBM0        0.2128
      9  N7        10.4250   31.6800  -10.0340 N.2     0  HBM0       -0.3369
     10  C8        10.5100   32.5030  -11.1550 C.1     0  HBM0        0.1389
     11  N9        11.5430   33.4580  -10.9700 N.2     0  HBM0       -0.3338
     12  C12        9.4860   32.7690  -14.8500 C.ar    0  HBM0        0.0122
     13  C13        8.0970   32.2880  -14.8260 C.ar    0  HBM0        0.0586
     14  C14        7.4720   31.8630  -13.5890 C.ar    0  HBM0        0.0235
     15  C15        8.2090   31.9120  -12.3580 C.ar    0  HBM0        0.0698
     16 CL16        7.2040   32.2260  -16.2910 Cl      0  HBM0       -0.0822
     17 CL17        7.3180   31.3670  -10.9620 Cl      0  HBM0       -0.0815
     18  C18       10.9130   30.3350   -7.2080 C.2     0  HBM0        0.2674
     19  N19        9.8420   29.6890   -7.9300 N.am    0  HBM0       -0.2012
     20  C20        9.6050   28.2410   -7.8410 C.3     0  HBM0        0.1201
     21  C21        9.4320   27.6960   -9.2830 C.3     0  HBM0        0.0498
     22  C22        8.1030   26.9260   -9.6250 C.ar    0  HBM0       -0.0203
     23  C23        6.8750   27.6250  -10.1620 C.ar    0  HBM0       -0.0028
     24  C24        5.6430   26.8880  -10.4740 C.ar    0  HBM0        0.0177
     25  C25        5.5840   25.4040  -10.2620 C.ar    0  HBM0        0.0906
     26  C26        6.7870   24.7100   -9.7370 C.ar    0  HBM0        0.0177
     27  C27        8.0040   25.4460   -9.4290 C.ar    0  HBM0       -0.0028
     28  N28        4.4120   24.6440  -10.5450 N.pl3   0  HBM0       -0.1006
     29  S29        4.3310   23.8470  -12.0890 S.O2    0  HBM0        0.0750
     30  C30        2.5700   23.7350  -12.6020 C.3     0  HBM0        0.2016
     31  O31        4.9510   24.6940  -13.0950 O.2     0  HBM0       -0.1528
     32  O32        4.7690   22.4350  -11.9830 O.2     0  HBM0       -0.1528
     33  O33       11.3030   30.0020   -6.0710 O.2     0  HBM0       -0.2683
     34  O34       14.0370   34.8510   -9.1310 O.3     0  HBM0       -0.2837
@<TRIPOS>BOND
     1    16    13    1
     2    12    13   ar
     3    12     5   ar
     4    13    14   ar
     5     5     4   ar
     6    14    15   ar
     7    31    29    2
     8    30    29    1
     9    15     4   ar
    10    15    17    1
    11     4    10    1
    12    29    32    2
    13    29    28    1
    14    10    11    2
    15    10     9    2
    16    11     8    2
    17    28    25    1
    18    24    25   ar
    19    24    23   ar
    20    25    26   ar
    21    23    22   ar
    22     9     3    2
    23    26    27   ar
    24     8     3   ar
    25     8     2   ar
    26    22    27   ar
    27    22    21    1
    28    21    20    1
    29     3     6   ar
    30    34     2    1
    31     2     7   ar
    32    19    20    1
    33    19    18   am
    34     6    18    1
    35     6     1   ar
    36     7     1   ar
    37    18    33    2
