@<TRIPOS>MOLECULE
2o5l_MNR_X_1.pdb
 43 50 0 0 0
SMALL
GASTEIGER

@<TRIPOS>ATOM
      1  CHA       -0.5440    9.6190   16.2370 C.2   154  MNR154      0.0000
      2  CHB       -4.2020    6.3410   15.3510 C.2   154  MNR154      0.0000
      3  CHC       -0.8120    3.0970   13.8130 C.2   154  MNR154      0.0000
      4  CHD        2.6920    6.1960   14.8690 C.2   154  MNR154      0.0000
      5  C1A       -1.8580    8.9530   16.1380 C.2   154  MNR154      0.0000
      6  C2A       -3.0200    9.7010   16.4230 C.2   154  MNR154      0.0000
      7  C3A       -4.0960    8.7390   16.1970 C.2   154  MNR154      0.0000
      8  C4A       -3.3900    7.4990   15.7510 C.2   154  MNR154      0.0000
      9  CMA       -5.5940    8.9480   16.3000 C.3   154  MNR154      0.0000
     10  CAA       -3.1550   11.1620   16.8120 C.3   154  MNR154      0.0000
     11  CBA       -3.7400   11.9930   15.6600 C.3   154  MNR154      0.0000
     12  CGA       -2.8200   11.9680   14.4390 C.2   154  MNR154      0.0000
     13  O1A       -1.6130   12.2810   14.6010 O.co2 154  MNR154      0.0000
     14  O2A       -3.2760   11.6130   13.3150 O.co2 154  MNR154      0.0000
     15  C1B       -3.5560    5.1120   14.8240 C.ar  154  MNR154      0.0000
     16  C2B       -4.3600    4.0250   14.4860 C.ar  154  MNR154      0.0000
     17  C3B       -3.3340    3.0840   14.0080 C.ar  154  MNR154      0.0000
     18  C4B       -1.9630    3.6990   14.1360 C.ar  154  MNR154      0.0000
     19  CMB       -5.8580    3.8300   14.5270 C.3   154  MNR154      0.0000
     20  CAB       -3.6660    1.7050   13.5270 C.2   154  MNR154      0.0000
     21  CBB       -4.5630    0.9800   14.1960 C.2   154  MNR154      0.0000
     22  C1C        0.3160    3.6850   14.0260 C.2   154  MNR154      0.0000
     23  C2C        1.5750    2.8900   13.7950 C.2   154  MNR154      0.0000
     24  C3C        2.7000    3.9060   13.9870 C.2   154  MNR154      0.0000
     25  C4C        1.9650    5.1320   14.5030 C.2   154  MNR154      0.0000
     26  CMC        1.6290    1.4330   13.3560 C.3   154  MNR154      0.0000
     27  CAC        4.1440    3.5950   14.4050 C.2   154  MNR154      0.0000
     28  CBC        4.6980    2.4550   14.0530 C.2   154  MNR154      0.0000
     29  C1D        2.0840    7.4630   15.3020 C.ar  154  MNR154      0.0000
     30  C2D        2.9830    8.6090   15.6240 C.ar  154  MNR154      0.0000
     31  C3D        2.0190    9.5660   16.1440 C.ar  154  MNR154      0.0000
     32  C4D        0.7080    8.8960   15.9160 C.ar  154  MNR154      0.0000
     33  CMD        4.4650    8.6070   15.8720 C.3   154  MNR154      0.0000
     34  CAD        2.3130   10.8780   16.8450 C.3   154  MNR154      0.0000
     35  CBD        2.4360   10.4880   18.3020 C.3   154  MNR154      0.0000
     36  CGD        2.5690   11.7090   19.1790 C.2   154  MNR154      0.0000
     37  O1D        1.5380   12.1820   19.7160 O.co2 154  MNR154      0.0000
     38  O2D        3.7190   12.1770   19.3570 O.co2 154  MNR154      0.0000
     39 MN         -0.7150    6.2950   15.0010 Mn    154  MNR154      0.0000
     40  NA        -2.0540    7.6710   15.7780 N.2   154  MNR154      0.0000
     41  NB        -2.2260    4.9230   14.6390 N.ar  154  MNR154      0.0000
     42  NC         0.6450    4.9150   14.4400 N.2   154  MNR154      0.0000
     43  ND         0.7470    7.6530   15.4260 N.ar  154  MNR154      0.0000
@<TRIPOS>BOND
     1    14    12   ar
     2    26    23    1
     3    20    17    1
     4    20    21    2
     5    23    24    2
     6    23    22    1
     7     3    22    2
     8     3    18    1
     9    24    27    1
    10    24    25    1
    11    17    18   ar
    12    17    16   ar
    13    22    42    1
    14    28    27    2
    15    18    41   ar
    16    12    13   ar
    17    12    11    1
    18    42    25    2
    19    42    39    1
    20    16    19    1
    21    16    15   ar
    22    25     4    1
    23    41    15   ar
    24    41    39    1
    25    15     2    1
    26     4    29    2
    27    39    43    1
    28    39    40    1
    29    29    43   ar
    30    29    30   ar
    31     2     8    2
    32    43    32   ar
    33    30    33    1
    34    30    31   ar
    35    11    10    1
    36     8    40    1
    37     8     7    1
    38    40     5    2
    39    32    31   ar
    40    32     1    2
    41     5     1    1
    42     5     6    1
    43    31    34    1
    44     7     9    1
    45     7     6    2
    46     6    10    1
    47    34    35    1
    48    35    36    1
    49    36    38   ar
    50    36    37   ar
