@<TRIPOS>MOLECULE
2o5m_MNR_X_1.pdb
 43 50 0 0 0
SMALL
GASTEIGER

@<TRIPOS>ATOM
      1  CHA       -0.6200    9.6230   16.2770 C.2   154  MNR154      0.0000
      2  CHB       -4.1660    6.3990   15.2540 C.2   154  MNR154      0.0000
      3  CHC       -0.7520    3.2060   14.0510 C.2   154  MNR154      0.0000
      4  CHD        2.6630    6.2760   14.9630 C.2   154  MNR154      0.0000
      5  C1A       -1.9200    9.0050   16.1740 C.2   154  MNR154      0.0000
      6  C2A       -3.0860    9.7480   16.4690 C.2   154  MNR154      0.0000
      7  C3A       -4.1490    8.7830   16.2390 C.2   154  MNR154      0.0000
      8  C4A       -3.4590    7.5710   15.7550 C.2   154  MNR154      0.0000
      9  CMA       -5.6290    8.9850   16.2630 C.3   154  MNR154      0.0000
     10  CAA       -3.2200   11.2210   16.8230 C.3   154  MNR154      0.0000
     11  CBA       -3.7860   12.0410   15.6510 C.3   154  MNR154      0.0000
     12  CGA       -2.8400   12.0600   14.4520 C.2   154  MNR154      0.0000
     13  O1A       -1.6690   12.4450   14.6570 O.co2 154  MNR154      0.0000
     14  O2A       -3.2670   11.6870   13.3220 O.co2 154  MNR154      0.0000
     15  C1B       -3.5350    5.1450   14.8290 C.ar  154  MNR154      0.0000
     16  C2B       -4.2990    4.0350   14.4940 C.ar  154  MNR154      0.0000
     17  C3B       -3.2890    3.0440   14.1070 C.ar  154  MNR154      0.0000
     18  C4B       -1.9640    3.7210   14.2710 C.ar  154  MNR154      0.0000
     19  CMB       -5.7980    3.8870   14.5200 C.3   154  MNR154      0.0000
     20  CAB       -3.5740    1.6560   13.6790 C.2   154  MNR154      0.0000
     21  CBB       -4.5490    0.9950   14.2840 C.2   154  MNR154      0.0000
     22  C1C        0.4020    3.7340   14.1770 C.2   154  MNR154      0.0000
     23  C2C        1.6520    2.9360   13.9400 C.2   154  MNR154      0.0000
     24  C3C        2.7480    3.9700   14.0660 C.2   154  MNR154      0.0000
     25  C4C        2.0090    5.1760   14.5690 C.2   154  MNR154      0.0000
     26  CMC        1.7650    1.4640   13.5690 C.3   154  MNR154      0.0000
     27  CAC        4.1650    3.7030   14.5380 C.2   154  MNR154      0.0000
     28  CBC        4.7990    2.6170   14.1750 C.2   154  MNR154      0.0000
     29  C1D        2.1130    7.5380   15.4280 C.ar  154  MNR154      0.0000
     30  C2D        2.9600    8.6970   15.8620 C.ar  154  MNR154      0.0000
     31  C3D        1.9590    9.6600   16.3190 C.ar  154  MNR154      0.0000
     32  C4D        0.6680    8.9890   16.0340 C.ar  154  MNR154      0.0000
     33  CMD        4.4610    8.8350   15.7960 C.3   154  MNR154      0.0000
     34  CAD        2.1750   10.9780   17.0380 C.3   154  MNR154      0.0000
     35  CBD        2.4180   10.6150   18.4980 C.3   154  MNR154      0.0000
     36  CGD        2.6770   11.8490   19.3360 C.2   154  MNR154      0.0000
     37  O1D        1.7370   12.3470   19.9950 O.co2 154  MNR154      0.0000
     38  O2D        3.8400   12.3070   19.3470 O.co2 154  MNR154      0.0000
     39 MN         -0.7030    6.3910   15.0490 Mn    154  MNR154      0.0000
     40  NA        -2.1270    7.7480   15.7700 N.2   154  MNR154      0.0000
     41  NB        -2.1880    4.9820   14.6860 N.ar  154  MNR154      0.0000
     42  NC         0.6740    4.9980   14.5360 N.2   154  MNR154      0.0000
     43  ND         0.7950    7.7570   15.5330 N.ar  154  MNR154      0.0000
@<TRIPOS>BOND
     1    14    12   ar
     2    26    23    1
     3    20    17    1
     4    20    21    2
     5    23    24    2
     6    23    22    1
     7     3    22    2
     8     3    18    1
     9    24    27    1
    10    24    25    1
    11    17    18   ar
    12    17    16   ar
    13    28    27    2
    14    22    42    1
    15    18    41   ar
    16    12    13   ar
    17    12    11    1
    18    16    19    1
    19    16    15   ar
    20    42    25    2
    21    42    39    1
    22    25     4    1
    23    41    15   ar
    24    41    39    1
    25    15     2    1
    26     4    29    2
    27    39    43    1
    28    39    40    1
    29     2     8    2
    30    29    43   ar
    31    29    30   ar
    32    43    32   ar
    33    11    10    1
    34     8    40    1
    35     8     7    1
    36    40     5    2
    37    33    30    1
    38    30    31   ar
    39    32     1    2
    40    32    31   ar
    41     5     1    1
    42     5     6    1
    43     7     9    1
    44     7     6    2
    45    31    34    1
    46     6    10    1
    47    34    35    1
    48    35    36    1
    49    36    38   ar
    50    36    37   ar
