@<TRIPOS>MOLECULE
2o5o_MNR_X_1.pdb
 43 50 0 0 0
SMALL
GASTEIGER

@<TRIPOS>ATOM
      1  CHA       -0.4980    9.5930   16.3720 C.2   154  MNR154      0.0000
      2  CHB       -4.0650    6.4190   15.2960 C.2   154  MNR154      0.0000
      3  CHC       -0.6580    3.2560   13.9940 C.2   154  MNR154      0.0000
      4  CHD        2.7770    6.2750   14.9640 C.2   154  MNR154      0.0000
      5  C1A       -1.8110    9.0170   16.1620 C.2   154  MNR154      0.0000
      6  C2A       -2.9790    9.7490   16.4620 C.2   154  MNR154      0.0000
      7  C3A       -4.0530    8.7770   16.2800 C.2   154  MNR154      0.0000
      8  C4A       -3.3520    7.5950   15.7560 C.2   154  MNR154      0.0000
      9  CMA       -5.5520    8.9500   16.3830 C.3   154  MNR154      0.0000
     10  CAA       -3.1030   11.2150   16.8370 C.3   154  MNR154      0.0000
     11  CBA       -3.6540   12.0400   15.6640 C.3   154  MNR154      0.0000
     12  CGA       -2.7170   12.0510   14.4630 C.2   154  MNR154      0.0000
     13  O1A       -1.5190   12.4080   14.6360 O.co2 154  MNR154      0.0000
     14  O2A       -3.1950   11.6910   13.3500 O.co2 154  MNR154      0.0000
     15  C1B       -3.4190    5.1960   14.8380 C.ar  154  MNR154      0.0000
     16  C2B       -4.1970    4.0840   14.5080 C.ar  154  MNR154      0.0000
     17  C3B       -3.1790    3.1040   14.1020 C.ar  154  MNR154      0.0000
     18  C4B       -1.8600    3.7800   14.2470 C.ar  154  MNR154      0.0000
     19  CMB       -5.6990    3.9150   14.5410 C.3   154  MNR154      0.0000
     20  CAB       -3.4440    1.7270   13.6480 C.2   154  MNR154      0.0000
     21  CBB       -4.3910    1.0190   14.2530 C.2   154  MNR154      0.0000
     22  C1C        0.5000    3.7600   14.1690 C.2   154  MNR154      0.0000
     23  C2C        1.7450    2.9480   13.9190 C.2   154  MNR154      0.0000
     24  C3C        2.8460    3.9630   14.0660 C.2   154  MNR154      0.0000
     25  C4C        2.1160    5.1830   14.5710 C.2   154  MNR154      0.0000
     26  CMC        1.8630    1.4750   13.5110 C.3   154  MNR154      0.0000
     27  CAC        4.2690    3.6490   14.4970 C.2   154  MNR154      0.0000
     28  CBC        4.8800    2.5610   14.0770 C.2   154  MNR154      0.0000
     29  C1D        2.2170    7.5300   15.4180 C.ar  154  MNR154      0.0000
     30  C2D        3.0600    8.6660   15.8540 C.ar  154  MNR154      0.0000
     31  C3D        2.0820    9.6450   16.3230 C.ar  154  MNR154      0.0000
     32  C4D        0.7830    8.9800   16.0540 C.ar  154  MNR154      0.0000
     33  CMD        4.5590    8.7290   15.8480 C.3   154  MNR154      0.0000
     34  CAD        2.3400   10.9660   17.0230 C.3   154  MNR154      0.0000
     35  CBD        2.3390   10.6650   18.5150 C.3   154  MNR154      0.0000
     36  CGD        2.7970   11.8560   19.3280 C.2   154  MNR154      0.0000
     37  O1D        1.9890   12.3710   20.1290 O.co2 154  MNR154      0.0000
     38  O2D        3.9780   12.2530   19.1980 O.co2 154  MNR154      0.0000
     39 MN         -0.5840    6.4230   15.0360 Mn    154  MNR154      0.0000
     40  NA        -2.0280    7.7870   15.7040 N.2   154  MNR154      0.0000
     41  NB        -2.0780    5.0470   14.6560 N.ar  154  MNR154      0.0000
     42  NC         0.7870    5.0210   14.5380 N.2   154  MNR154      0.0000
     43  ND         0.9090    7.7570   15.5310 N.ar  154  MNR154      0.0000
@<TRIPOS>BOND
     1    14    12   ar
     2    26    23    1
     3    20    17    1
     4    20    21    2
     5    23    24    2
     6    23    22    1
     7     3    22    2
     8     3    18    1
     9    24    27    1
    10    24    25    1
    11    28    27    2
    12    17    18   ar
    13    17    16   ar
    14    22    42    1
    15    18    41   ar
    16    12    13   ar
    17    12    11    1
    18    16    19    1
    19    16    15   ar
    20    42    25    2
    21    42    39    1
    22    25     4    1
    23    41    15   ar
    24    41    39    1
    25    15     2    1
    26     4    29    2
    27    39    43    1
    28    39    40    1
    29     2     8    2
    30    29    43   ar
    31    29    30   ar
    32    43    32   ar
    33    11    10    1
    34    40     8    1
    35    40     5    2
    36     8     7    1
    37    33    30    1
    38    30    31   ar
    39    32    31   ar
    40    32     1    2
    41     5     1    1
    42     5     6    1
    43     7     9    1
    44     7     6    2
    45    31    34    1
    46     6    10    1
    47    34    35    1
    48    35    36    1
    49    38    36   ar
    50    36    37   ar
