@<TRIPOS>MOLECULE
2o5q_MNH_X_1.pdb
 43 50 0 0 0
SMALL
GASTEIGER

@<TRIPOS>ATOM
      1 MN         -0.7030    6.4180   15.0020 Mn    154  MNH154      0.0000
      2  CHA       -0.4870    9.6380   16.3770 C.2   154  MNH154      0.0000
      3  CHB       -4.1350    6.4170   15.2630 C.2   154  MNH154      0.0000
      4  CHC       -0.7540    3.2080   14.0100 C.2   154  MNH154      0.0000
      5  CHD        2.7830    6.1930   14.9660 C.2   154  MNH154      0.0000
      6  NA        -2.0480    7.6810   15.9640 N.2   154  MNH154      0.0000
      7  C1A       -1.8200    9.0120   16.2110 C.2   154  MNH154      0.0000
      8  C2A       -2.9850    9.7300   16.4770 C.2   154  MNH154      0.0000
      9  C3A       -4.0830    8.8170   16.1870 C.2   154  MNH154      0.0000
     10  C4A       -3.4000    7.5920   15.7600 C.2   154  MNH154      0.0000
     11  CMA       -5.5870    9.0770   16.3720 C.3   154  MNH154      0.0000
     12  CAA       -3.0820   11.1760   16.9180 C.3   154  MNH154      0.0000
     13  CBA       -3.5690   11.9830   15.7060 C.3   154  MNH154      0.0000
     14  CGA       -2.6090   12.0010   14.5300 C.2   154  MNH154      0.0000
     15  O1A       -1.4580   12.4470   14.7160 O.co2 154  MNH154      0.0000
     16  O2A       -3.0070   11.5970   13.3980 O.co2 154  MNH154      0.0000
     17  NB        -2.1960    4.9840   14.6420 N.ar  154  MNH154      0.0000
     18  C1B       -3.5430    5.1290   14.8520 C.ar  154  MNH154      0.0000
     19  C2B       -4.3210    4.0120   14.5610 C.ar  154  MNH154      0.0000
     20  C3B       -3.2940    3.0310   14.1620 C.ar  154  MNH154      0.0000
     21  C4B       -1.9740    3.7010   14.2920 C.ar  154  MNH154      0.0000
     22  CMB       -5.8330    3.8290   14.6100 C.3   154  MNH154      0.0000
     23  CAB       -3.5460    1.6330   13.7620 C.2   154  MNH154      0.0000
     24  CBB       -4.4880    0.8380   14.3230 C.2   154  MNH154      0.0000
     25  NC         0.7020    4.9770   14.5600 N.2   154  MNH154      0.0000
     26  C1C        0.4250    3.7040   14.1550 C.2   154  MNH154      0.0000
     27  C2C        1.6580    2.8910   13.9020 C.2   154  MNH154      0.0000
     28  C3C        2.7720    3.8730   14.0970 C.2   154  MNH154      0.0000
     29  C4C        2.0610    5.0950   14.6320 C.2   154  MNH154      0.0000
     30  CMC        1.7610    1.4560   13.4120 C.3   154  MNH154      0.0000
     31  CAC        4.2340    3.5940   14.4090 C.2   154  MNH154      0.0000
     32  CBC        4.8960    2.5250   14.0240 C.2   154  MNH154      0.0000
     33  ND         0.8990    7.6720   15.5560 N.ar  154  MNH154      0.0000
     34  C1D        2.2300    7.4670   15.4480 C.ar  154  MNH154      0.0000
     35  C2D        3.0430    8.6460   15.9140 C.ar  154  MNH154      0.0000
     36  C3D        2.0250    9.5870   16.3700 C.ar  154  MNH154      0.0000
     37  C4D        0.7390    8.9180   16.0750 C.ar  154  MNH154      0.0000
     38  CMD        4.5580    8.8270   15.9540 C.3   154  MNH154      0.0000
     39  CAD        2.2980   10.8880   17.1210 C.3   154  MNH154      0.0000
     40  CBD        2.5110   10.4720   18.5740 C.3   154  MNH154      0.0000
     41  CGD        2.6050   11.6840   19.5000 C.2   154  MNH154      0.0000
     42  O1D        1.5720   12.1760   19.9850 O.co2 154  MNH154      0.0000
     43  O2D        3.7280   12.1200   19.7960 O.co2 154  MNH154      0.0000
@<TRIPOS>BOND
     1    16    14   ar
     2    30    27    1
     3    23    20    1
     4    23    24    2
     5    27    28    2
     6    27    26    1
     7     4    26    2
     8     4    21    1
     9    32    31    2
    10    28    31    1
    11    28    29    1
    12    26    25    1
    13    20    21   ar
    14    20    19   ar
    15    21    17   ar
    16    14    15   ar
    17    14    13    1
    18    25    29    2
    19    25     1    1
    20    19    22    1
    21    19    18   ar
    22    29     5    1
    23    17    18   ar
    24    17     1    1
    25    18     3    1
    26     5    34    2
    27     1    33    1
    28     1     6    1
    29     3    10    2
    30    34    33   ar
    31    34    35   ar
    32    33    37   ar
    33    13    12    1
    34    10     6    1
    35    10     9    1
    36    35    38    1
    37    35    36   ar
    38     6     7    2
    39    37    36   ar
    40    37     2    2
    41     9    11    1
    42     9     8    2
    43     7     2    1
    44     7     8    1
    45    36    39    1
    46     8    12    1
    47    39    40    1
    48    40    41    1
    49    41    43   ar
    50    41    42   ar
