@<TRIPOS>MOLECULE
2o5s_COH_X_1.pdb
 43 50 0 0 0
SMALL
GASTEIGER

@<TRIPOS>ATOM
      1 CO        -16.7170   -6.2740   15.0420 Co.oh 154  COH154      0.0000
      2  CHA      -16.8410   -9.4900   16.3340 C.2   154  COH154      0.0000
      3  CHB      -13.2830   -6.2560   15.3250 C.2   154  COH154      0.0000
      4  CHC      -16.6290   -3.1670   13.8320 C.2   154  COH154      0.0000
      5  CHD      -20.0770   -6.1060   14.8990 C.2   154  COH154      0.0000
      6  NA       -15.3160   -7.6420   15.6650 N.2   154  COH154      0.0000
      7  C1A      -15.5400   -8.8680   16.1600 C.2   154  COH154      0.0000
      8  C2A      -14.3650   -9.5550   16.4620 C.2   154  COH154      0.0000
      9  C3A      -13.2830   -8.6240   16.2120 C.2   154  COH154      0.0000
     10  C4A      -13.9890   -7.4460   15.7290 C.2   154  COH154      0.0000
     11  CMA      -11.7870   -8.8500   16.3460 C.3   154  COH154      0.0000
     12  CAA      -14.2180  -10.9770   16.9300 C.3   154  COH154      0.0000
     13  CBA      -13.7440  -11.8500   15.7630 C.3   154  COH154      0.0000
     14  CGA      -14.7310  -11.8950   14.6120 C.2   154  COH154      0.0000
     15  O1A      -15.9040  -12.3020   14.8450 O.co2 154  COH154      0.0000
     16  O2A      -14.2980  -11.5370   13.4850 O.co2 154  COH154      0.0000
     17  NB       -15.2250   -4.9050   14.6170 N.ar  154  COH154      0.0000
     18  C1B      -13.8930   -5.0820   14.7760 C.ar  154  COH154      0.0000
     19  C2B      -13.1050   -3.9790   14.4350 C.ar  154  COH154      0.0000
     20  C3B      -14.1050   -3.0210   13.9640 C.ar  154  COH154      0.0000
     21  C4B      -15.4260   -3.6780   14.1220 C.ar  154  COH154      0.0000
     22  CMB      -11.6030   -3.8130   14.4760 C.3   154  COH154      0.0000
     23  CAB      -13.8120   -1.6630   13.4730 C.2   154  COH154      0.0000
     24  CBB      -12.9180   -0.9430   14.1400 C.2   154  COH154      0.0000
     25  NC       -18.0730   -4.8800   14.5160 N.2   154  COH154      0.0000
     26  C1C      -17.7800   -3.6460   14.0530 C.2   154  COH154      0.0000
     27  C2C      -19.0170   -2.8460   13.7800 C.2   154  COH154      0.0000
     28  C3C      -20.1290   -3.8410   13.9750 C.2   154  COH154      0.0000
     29  C4C      -19.4020   -5.0360   14.5260 C.2   154  COH154      0.0000
     30  CMC      -19.0910   -1.3960   13.3350 C.3   154  COH154      0.0000
     31  CAC      -21.5710   -3.5350   14.3590 C.2   154  COH154      0.0000
     32  CBC      -22.1100   -2.3940   14.0150 C.2   154  COH154      0.0000
     33  ND       -18.2070   -7.6030   15.4970 N.ar  154  COH154      0.0000
     34  C1D      -19.5200   -7.3610   15.3730 C.ar  154  COH154      0.0000
     35  C2D      -20.3660   -8.5000   15.8100 C.ar  154  COH154      0.0000
     36  C3D      -19.3890   -9.4410   16.3500 C.ar  154  COH154      0.0000
     37  C4D      -18.0900   -8.8220   16.0430 C.ar  154  COH154      0.0000
     38  CMD      -21.8690   -8.6050   15.7970 C.3   154  COH154      0.0000
     39  CAD      -19.6180  -10.7160   17.1340 C.3   154  COH154      0.0000
     40  CBD      -19.7570  -10.4080   18.6160 C.3   154  COH154      0.0000
     41  CGD      -19.9750  -11.6940   19.3840 C.2   154  COH154      0.0000
     42  O1D      -18.9910  -12.2640   19.9050 O.co2 154  COH154      0.0000
     43  O2D      -21.1410  -12.1350   19.4660 O.co2 154  COH154      0.0000
@<TRIPOS>BOND
     1    30    27    1
     2    23    20    1
     3    23    24    2
     4    16    14   ar
     5    27    28    2
     6    27    26    1
     7     4    26    2
     8     4    21    1
     9    20    21   ar
    10    20    19   ar
    11    28    31    1
    12    28    29    1
    13    32    31    2
    14    26    25    1
    15    21    17   ar
    16    19    22    1
    17    19    18   ar
    18    25    29    2
    19    25     1    1
    20    29     5    1
    21    14    15   ar
    22    14    13    1
    23    17    18   ar
    24    17     1    1
    25    18     3    1
    26     5    34    2
    27     1    33    1
    28     1     6    1
    29     3    10    2
    30    34    33   ar
    31    34    35   ar
    32    33    37   ar
    33     6    10    1
    34     6     7    2
    35    10     9    1
    36    13    12    1
    37    38    35    1
    38    35    36   ar
    39    37     2    2
    40    37    36   ar
    41     7     2    1
    42     7     8    1
    43     9    11    1
    44     9     8    2
    45    36    39    1
    46     8    12    1
    47    39    40    1
    48    40    41    1
    49    41    43   ar
    50    41    42   ar
