@<TRIPOS>MOLECULE
2o5t_COH_X_1.pdb
 43 50 0 0 0
SMALL
GASTEIGER

@<TRIPOS>ATOM
      1 CO          0.8540   -6.3090   15.0020 Co.oh 154  COH154      0.0000
      2  CHA        0.6920   -9.5530   16.2790 C.2   154  COH154      0.0000
      3  CHB        4.3700   -6.3870   15.2150 C.2   154  COH154      0.0000
      4  CHC        0.9550   -3.2110   13.8490 C.2   154  COH154      0.0000
      5  CHD       -2.5420   -6.1120   14.8660 C.2   154  COH154      0.0000
      6  NA         2.2530   -7.7120   15.6630 N.2   154  COH154      0.0000
      7  C1A        2.0260   -8.9880   16.1010 C.2   154  COH154      0.0000
      8  C2A        3.1770   -9.7280   16.4070 C.2   154  COH154      0.0000
      9  C3A        4.2630   -8.7550   16.1940 C.2   154  COH154      0.0000
     10  C4A        3.5910   -7.5500   15.6680 C.2   154  COH154      0.0000
     11  CMA        5.7670   -8.8840   16.3200 C.3   154  COH154      0.0000
     12  CAA        3.3280  -11.1800   16.8730 C.3   154  COH154      0.0000
     13  CBA        3.7980  -12.0910   15.7410 C.3   154  COH154      0.0000
     14  CGA        2.8400  -12.0250   14.5590 C.2   154  COH154      0.0000
     15  O1A        1.6770  -12.4310   14.7640 O.co2 154  COH154      0.0000
     16  O2A        3.2530  -11.5340   13.4630 O.co2 154  COH154      0.0000
     17  NB         2.3920   -4.9890   14.5710 N.ar  154  COH154      0.0000
     18  C1B        3.7340   -5.1520   14.7220 C.ar  154  COH154      0.0000
     19  C2B        4.4970   -4.0490   14.3560 C.ar  154  COH154      0.0000
     20  C3B        3.4610   -3.0830   13.9170 C.ar  154  COH154      0.0000
     21  C4B        2.1530   -3.7490   14.0980 C.ar  154  COH154      0.0000
     22  CMB        6.0100   -3.9050   14.3760 C.3   154  COH154      0.0000
     23  CAB        3.6820   -1.6950   13.4480 C.2   154  COH154      0.0000
     24  CBB        4.6090   -0.9530   14.0470 C.2   154  COH154      0.0000
     25  NC        -0.5140   -4.9150   14.4780 N.2   154  COH154      0.0000
     26  C1C       -0.2140   -3.6740   14.0720 C.2   154  COH154      0.0000
     27  C2C       -1.4320   -2.8500   13.8470 C.2   154  COH154      0.0000
     28  C3C       -2.5790   -3.8180   14.0230 C.2   154  COH154      0.0000
     29  C4C       -1.8600   -5.0410   14.5140 C.2   154  COH154      0.0000
     30  CMC       -1.4100   -1.4280   13.2980 C.3   154  COH154      0.0000
     31  CAC       -4.0200   -3.5700   14.4810 C.2   154  COH154      0.0000
     32  CBC       -4.7390   -2.5320   14.0780 C.2   154  COH154      0.0000
     33  ND        -0.6760   -7.6140   15.4570 N.ar  154  COH154      0.0000
     34  C1D       -1.9980   -7.3710   15.3450 C.ar  154  COH154      0.0000
     35  C2D       -2.8320   -8.5210   15.7520 C.ar  154  COH154      0.0000
     36  C3D       -1.8610   -9.4890   16.2470 C.ar  154  COH154      0.0000
     37  C4D       -0.5570   -8.8490   15.9900 C.ar  154  COH154      0.0000
     38  CMD       -4.3320   -8.5830   15.8610 C.3   154  COH154      0.0000
     39  CAD       -2.1680  -10.8010   16.9680 C.3   154  COH154      0.0000
     40  CBD       -2.3210  -10.4110   18.4210 C.3   154  COH154      0.0000
     41  CGD       -2.4200  -11.6520   19.2870 C.2   154  COH154      0.0000
     42  O1D       -1.4140  -12.1360   19.8320 O.co2 154  COH154      0.0000
     43  O2D       -3.5490  -12.1570   19.4290 O.co2 154  COH154      0.0000
@<TRIPOS>BOND
     1    30    27    1
     2    23    20    1
     3    23    24    2
     4    16    14   ar
     5    27    28    2
     6    27    26    1
     7     4    26    2
     8     4    21    1
     9    20    21   ar
    10    20    19   ar
    11    28    31    1
    12    28    29    1
    13    26    25    1
    14    32    31    2
    15    21    17   ar
    16    19    22    1
    17    19    18   ar
    18    25    29    2
    19    25     1    1
    20    29     5    1
    21    14    15   ar
    22    14    13    1
    23    17    18   ar
    24    17     1    1
    25    18     3    1
    26     5    34    2
    27     1    33    1
    28     1     6    1
    29     3    10    2
    30    34    33   ar
    31    34    35   ar
    32    33    37   ar
    33     6    10    1
    34     6     7    2
    35    10     9    1
    36    13    12    1
    37    35    38    1
    38    35    36   ar
    39    37    36   ar
    40    37     2    2
    41     7     2    1
    42     7     8    1
    43     9    11    1
    44     9     8    2
    45    36    39    1
    46     8    12    1
    47    39    40    1
    48    40    41    1
    49    41    43   ar
    50    41    42   ar
