@<TRIPOS>MOLECULE
2o5y_STR_H_1.pdb
 23 26 0 0 0
SMALL
GASTEIGER

@<TRIPOS>ATOM
      1  C1        67.2790   -6.1190  -21.0780 C.3   249  STR249      0.0118
      2  C2        66.3540   -6.9250  -21.9740 C.3   249  STR249      0.0694
      3  C3        64.9560   -6.5940  -21.5460 C.2   249  STR249      0.1725
      4  O3        64.1170   -7.4720  -21.5970 O.2   249  STR249     -0.2914
      5  C4        64.6320   -5.2340  -21.0610 C.2   249  STR249      0.0289
      6  C5        65.5930   -4.3050  -21.0190 C.2   249  STR249     -0.0420
      7  C6        65.2120   -2.8830  -20.7240 C.3   249  STR249      0.0221
      8  C7        66.2340   -2.2320  -19.7760 C.3   249  STR249      0.0044
      9  C8        67.6540   -2.3800  -20.2700 C.3   249  STR249      0.0006
     10  C9        67.9960   -3.8790  -20.3360 C.3   249  STR249      0.0035
     11  C10       67.0510   -4.6380  -21.2770 C.3   249  STR249      0.0157
     12  C11       69.4750   -4.1640  -20.6860 C.3   249  STR249      0.0003
     13  C12       70.4930   -3.3570  -19.8750 C.3   249  STR249      0.0004
     14  C13       70.0820   -1.8830  -19.8410 C.3   249  STR249      0.0065
     15  C14       68.6490   -1.7200  -19.3300 C.3   249  STR249      0.0004
     16  C15       68.4830   -0.2570  -18.9210 C.3   249  STR249      0.0004
     17  C16       69.9040    0.1820  -18.5450 C.3   249  STR249      0.0073
     18  C17       70.7720   -1.0700  -18.7430 C.3   249  STR249      0.0576
     19  C18       70.2900   -1.2880  -21.2630 C.3   249  STR249      0.0004
     20  C19       67.3060   -4.2460  -22.7370 C.3   249  STR249      0.0041
     21  C20       72.2360   -0.8020  -18.9740 C.2   249  STR249      0.1507
     22  O20       72.6100    0.3490  -18.9550 O.2   249  STR249     -0.2961
     23  C21       73.1960   -1.9390  -19.1980 C.3   249  STR249      0.0722
@<TRIPOS>BOND
     1    20    11    1
     2     2     3    1
     3     2     1    1
     4     4     3    2
     5     3     5    1
     6    11     1    1
     7    11     6    1
     8    11    10    1
     9    19    14    1
    10     5     6    2
    11     6     7    1
    12     7     8    1
    13    12    10    1
    14    12    13    1
    15    10     9    1
    16     9     8    1
    17     9    15    1
    18    13    14    1
    19    14    15    1
    20    14    18    1
    21    15    16    1
    22    23    21    1
    23    21    22    2
    24    21    18    1
    25    16    17    1
    26    18    17    1
