@<TRIPOS>MOLECULE
2o5z_ANO_H_1.pdb
 21 24 0 0 0
SMALL
GASTEIGER

@<TRIPOS>ATOM
      1  C1        68.6330   -0.2300  -20.2990 C.3   201  ANO201      0.0078
      2  C2        69.1430   -0.1570  -18.8580 C.3   201  ANO201      0.0645
      3  C3        70.4880   -0.8410  -18.7710 C.2   201  ANO201      0.1506
      4  O3        71.4760   -0.2930  -18.2930 O.2   201  ANO201     -0.2961
      5  C4        70.5920   -2.2420  -19.3070 C.3   201  ANO201      0.0645
      6  C5        70.1380   -2.2680  -20.7590 C.3   201  ANO201      0.0073
      7  C6        70.2100   -3.7300  -21.2120 C.3   201  ANO201      0.0004
      8  C7        68.9930   -4.5740  -20.8190 C.3   201  ANO201      0.0000
      9  C8        67.7100   -3.9170  -21.3100 C.3   201  ANO201      0.0004
     10  C9        67.6080   -2.5530  -20.5920 C.3   201  ANO201      0.0000
     11  C10       68.7710   -1.5920  -21.0010 C.3   201  ANO201      0.0008
     12  C11       66.2020   -1.9050  -20.6030 C.3   201  ANO201      0.0004
     13  C12       64.9700   -2.8270  -20.7480 C.3   201  ANO201      0.0069
     14  C13       65.2410   -4.0750  -21.5970 C.3   201  ANO201      0.0515
     15  C14       66.4740   -4.7680  -21.0500 C.3   201  ANO201      0.0070
     16  C15       66.3890   -6.2160  -21.5520 C.3   201  ANO201      0.0082
     17  C16       64.8870   -6.5440  -21.6090 C.3   201  ANO201      0.0645
     18  C17       64.2320   -5.1780  -21.4820 C.2   201  ANO201      0.1498
     19  O17       63.0310   -4.9740  -21.3030 O.2   201  ANO201     -0.2961
     20  C18       65.3250   -3.8160  -23.0920 C.3   201  ANO201      0.0073
     21  C19       68.7890   -1.2650  -22.4980 C.3   201  ANO201      0.0000
@<TRIPOS>BOND
     1    20    14    1
     2    21    11    1
     3    17    16    1
     4    17    18    1
     5    14    18    1
     6    14    15    1
     7    14    13    1
     8    16    15    1
     9    18    19    2
    10     9    15    1
    11     9     8    1
    12     9    10    1
    13     7     8    1
    14     7     6    1
    15    11     6    1
    16    11    10    1
    17    11     1    1
    18     6     5    1
    19    13    12    1
    20    12    10    1
    21     1     2    1
    22     5     3    1
    23     2     3    1
    24     3     4    2
