@<TRIPOS>MOLECULE
2o63_MYC_A_1.pdb
 23 25 0 0 0
SMALL
GASTEIGER

@<TRIPOS>ATOM
      1  C1        76.1760   33.0730   -1.5020 C.ar  501  MYC501      0.0843
      2  C2        75.6950   34.1640   -2.2140 C.ar  501  MYC501      0.2050
      3  C3        75.5110   35.4250   -1.4930 C.ar  501  MYC501      0.1158
      4  C4        75.8190   35.4800   -0.0670 C.ar  501  MYC501      0.1549
      5  C5        76.2800   34.3540    0.5730 C.ar  501  MYC501      0.0798
      6  C6        76.4420   33.1690   -0.1350 C.ar  501  MYC501      0.2020
      7  C9        75.0160   36.6390   -2.1640 C.ar  501  MYC501      0.2433
      8  C10       74.8600   37.8440   -1.3710 C.ar  501  MYC501      0.2685
      9  C11       75.1360   37.8380   -0.0590 C.ar  501  MYC501      0.1873
     10  C14       75.0120   39.0280    0.8590 C.ar  501  MYC501      0.0445
     11  C15       74.5230   40.2730    0.4350 C.ar  501  MYC501      0.0487
     12  C16       74.4470   41.3480    1.3250 C.ar  501  MYC501      0.2376
     13  C17       74.8850   41.1750    2.7190 C.ar  501  MYC501      0.2727
     14  C18       75.3830   39.8400    3.1330 C.ar  501  MYC501      0.2376
     15  C19       75.4180   38.8170    2.1920 C.ar  501  MYC501      0.0487
     16  O12       75.6310   36.6410    0.6020 O.2   501  MYC501     -0.4498
     17  O13       74.7690   36.6220   -3.3600 O.2   501  MYC501     -0.2828
     18  O23       75.7850   39.6490    4.3880 O.3   501  MYC501     -0.2830
     19  O24       74.8130   42.1920    3.5760 O.3   501  MYC501     -0.2797
     20  O25       73.9940   42.5470    0.9600 O.3   501  MYC501     -0.2830
     21  O27       74.4100   38.9180   -2.0100 O.3   501  MYC501     -0.2798
     22  O29       76.8960   32.1090    0.5290 O.3   501  MYC501     -0.2864
     23  O30       75.4130   34.1070   -3.5160 O.3   501  MYC501     -0.2862
@<TRIPOS>BOND
     1    23     2    1
     2    17     7    2
     3     2     1   ar
     4     2     3   ar
     5     7     3   ar
     6     7     8   ar
     7    21     8    1
     8     1     6   ar
     9     3     4   ar
    10     8     9   ar
    11     6    22    1
    12     6     5   ar
    13     4     5   ar
    14     4    16   ar
    15     9    16   ar
    16     9    10    1
    17    11    10   ar
    18    11    12   ar
    19    10    15   ar
    20    20    12    1
    21    12    13   ar
    22    15    14   ar
    23    13    14   ar
    24    13    19    1
    25    14    18    1
