@<TRIPOS>MOLECULE
2o64_MYU_A_1.pdb
 23 25 0 0 0
SMALL
GASTEIGER

@<TRIPOS>ATOM
      1  O20       74.0290   38.9190   -1.5840 O.2   501  MYU501     -0.2828
      2  C11       74.3420   37.8600   -1.0440 C.ar  501  MYU501      0.2434
      3  C12       74.6040   36.6660   -1.8290 C.ar  501  MYU501      0.2685
      4  O19       74.5220   36.7960   -3.1630 O.3   501  MYU501     -0.2798
      5  C10       74.4120   37.7750    0.4280 C.ar  501  MYU501      0.1191
      6  C13       74.1450   38.9430    1.2880 C.ar  501  MYU501      0.2436
      7  O21       73.8540   40.1350    0.7860 O.3   501  MYU501     -0.2828
      8  C9        74.7510   36.4930    1.0510 C.ar  501  MYU501      0.1551
      9  C16       74.8110   36.3470    2.4310 C.ar  501  MYU501      0.0832
     10  C15       74.5680   37.4190    3.2870 C.ar  501  MYU501      0.2406
     11  O22       74.6230   37.2070    4.6040 O.3   501  MYU501     -0.2829
     12  C14       74.2320   38.7670    2.7390 C.ar  501  MYU501      0.2730
     13  O23       73.9910   39.8210    3.5090 O.3   501  MYU501     -0.2797
     14  O8        74.9890   35.4310    0.2540 O.2   501  MYU501     -0.4498
     15  C7        74.8940   35.5200   -1.1910 C.ar  501  MYU501      0.1872
     16  C6        75.2110   34.2050   -1.8280 C.ar  501  MYU501      0.0413
     17  C5        75.7170   33.2280   -0.9570 C.ar  501  MYU501      0.0485
     18  C4        76.0520   31.9730   -1.4390 C.ar  501  MYU501      0.2344
     19  O17       76.5390   31.0080   -0.6750 O.3   501  MYU501     -0.2831
     20  C3        75.8560   31.7120   -2.8510 C.ar  501  MYU501      0.2343
     21  O18       76.1860   30.5230   -3.2750 O.3   501  MYU501     -0.2831
     22  C2        75.3380   32.6850   -3.6970 C.ar  501  MYU501      0.0455
     23  C1        75.0140   33.9390   -3.1760 C.ar  501  MYU501      0.0066
@<TRIPOS>BOND
     1    22    23   ar
     2    22    20   ar
     3    21    20    1
     4    23    16   ar
     5     4     3    1
     6    20    18   ar
     7     3    15   ar
     8     3     2   ar
     9    16    15    1
    10    16    17   ar
    11     1     2    2
    12    18    17   ar
    13    18    19    1
    14    15    14   ar
    15     2     5   ar
    16    14     8   ar
    17     5     8   ar
    18     5     6   ar
    19     7     6    1
    20     8     9   ar
    21     6    12   ar
    22     9    10   ar
    23    12    10   ar
    24    12    13    1
    25    10    11    1
