@<TRIPOS>MOLECULE
2o65_MYF_A_1.pdb
 22 24 0 0 0
SMALL
GASTEIGER

@<TRIPOS>ATOM
      1  O22       75.0050   36.1570   -2.5710 O.2   501  MYF501     -0.2862
      2  C7        75.3120   35.7230   -1.4820 C.ar  501  MYF501      0.2048
      3  C6        75.7840   34.3130   -1.2840 C.ar  501  MYF501      0.1126
      4  C1        75.9250   33.2870   -2.3650 C.ar  501  MYF501      0.2049
      5  O21       75.6350   33.5700   -3.6340 O.3   501  MYF501     -0.2862
      6  C2        76.3860   32.0010   -2.0430 C.ar  501  MYF501      0.0843
      7  C3        76.7080   31.6640   -0.7210 C.ar  501  MYF501      0.2020
      8  O20       77.1320   30.4420   -0.4210 O.3   501  MYF501     -0.2864
      9  C5        76.1510   33.9010    0.0940 C.ar  501  MYF501      0.1546
     10  C4        76.5820   32.5810    0.3250 C.ar  501  MYF501      0.0798
     11  O10       76.0520   34.8120    1.1300 O.2   501  MYF501     -0.4531
     12  C9        75.6070   36.1690    0.8810 C.ar  501  MYF501      0.1486
     13  C8        75.2280   36.6180   -0.3290 C.ar  501  MYF501      0.0797
     14  C11       75.4620   37.0190    2.0780 C.ar  501  MYF501      0.0412
     15  C12       75.2920   38.3970    1.9260 C.ar  501  MYF501      0.0486
     16  C13       75.0920   39.2130    3.0380 C.ar  501  MYF501      0.2376
     17  O19       74.9690   40.5250    2.8320 O.3   501  MYF501     -0.2830
     18  C14       75.0260   38.5970    4.4060 C.ar  501  MYF501      0.2727
     19  O18       74.8330   39.3720    5.4760 O.3   501  MYF501     -0.2797
     20  C15       75.1680   37.1020    4.5140 C.ar  501  MYF501      0.2376
     21  C16       75.3740   36.3740    3.3270 C.ar  501  MYF501      0.0486
     22  O17       75.0910   36.4740    5.7040 O.3   501  MYF501     -0.2830
@<TRIPOS>BOND
     1     5     4    1
     2     1     2    2
     3     4     6   ar
     4     4     3   ar
     5     6     7   ar
     6     2     3   ar
     7     2    13   ar
     8     3     9   ar
     9     7     8    1
    10     7    10   ar
    11    13    12   ar
    12     9    10   ar
    13     9    11   ar
    14    12    11   ar
    15    12    14    1
    16    15    14   ar
    17    15    16   ar
    18    14    21   ar
    19    17    16    1
    20    16    18   ar
    21    21    20   ar
    22    18    20   ar
    23    18    19    1
    24    20    22    1
