@<TRIPOS>MOLECULE
2o66_FLC_A_1.pdb
 13 12 0 0 0
SMALL
GASTEIGER

@<TRIPOS>ATOM
      1  CAC       15.6560   16.4590    2.4050 C.2   201  FLC201      0.3680
      2  CA        17.0770   16.3070    2.8950 C.3   201  FLC201      0.1560
      3  CB        17.3000   14.9910    3.6360 C.3   201  FLC201      0.2402
      4  CBC       18.4460   15.2020    4.5940 C.2   201  FLC201      0.3927
      5  CG        17.6220   13.8700    2.6450 C.3   201  FLC201      0.1560
      6  CGC       17.7150   12.5230    3.3300 C.2   201  FLC201      0.3680
      7  OA1       15.3220   15.8850    1.3470 O.co2 201  FLC201     -0.2455
      8  OA2       14.8800   17.1650    3.0800 O.co2 201  FLC201     -0.2455
      9  OB1       18.2780   14.9410    5.8060 O.co2 201  FLC201     -0.2429
     10  OB2       19.5350   15.6260    4.1520 O.co2 201  FLC201     -0.2429
     11  OG1       16.8490   11.6560    3.0940 O.co2 201  FLC201     -0.2455
     12  OG2       18.6600   12.3130    4.1120 O.co2 201  FLC201     -0.2455
     13  OHB       16.1440   14.6270    4.3930 O.3   201  FLC201     -0.2129
@<TRIPOS>BOND
     1     7     1   ar
     2     1     2    1
     3     1     8   ar
     4     5     6    1
     5     5     3    1
     6     2     3    1
     7    11     6   ar
     8     6    12   ar
     9     3    13    1
    10     3     4    1
    11    10     4   ar
    12     4     9   ar
