@<TRIPOS>MOLECULE
2o6h_INI_A_1.pdb
 21 21 0 0 0
SMALL
GASTEIGER

@<TRIPOS>ATOM
      1  N1        -2.6210   61.5270   62.5700 N.2   201  INI201     -0.2923
      2  C2        -2.0070   61.6250   61.3230 C.1   201  INI201      0.3663
      3  O2        -2.7250   61.4140   60.3540 O.2   201  INI201     -0.1745
      4  N3        -0.6740   61.9460   61.3020 N.2   201  INI201     -0.2344
      5  C4         0.1230   62.1860   62.4240 C.1   201  INI201      0.2293
      6  O4         1.3310   62.4690   62.1440 O.2   201  INI201     -0.2107
      7  C5        -0.5770   62.0760   63.8390 C.3   201  INI201      0.3505
      8  N5         0.2480   62.3310   65.0220 N.pl3 201  INI201      0.0583
      9  O51        1.3960   62.6100   64.9190 O.2   201  INI201     -0.1294
     10  O52       -0.2470   62.2610   66.1170 O.2   201  INI201     -0.1294
     11  C6        -2.0280   61.7230   63.8330 C.2   201  INI201      0.2365
     12  N7        -2.9190   61.5600   64.9500 N.pl3 201  INI201     -0.2071
     13  C8        -3.0390   60.1590   65.4650 C.3   201  INI201      0.1501
     14  C9        -4.3350   59.3720   65.0020 C.3   201  INI201      0.2063
     15  O9        -4.2790   59.5000   63.5980 O.3   201  INI201     -0.2184
     16  C10       -5.7910   59.9290   65.3640 C.3   201  INI201      0.2166
     17  O10       -5.8970   61.2460   64.9470 O.3   201  INI201     -0.2175
     18  C11       -6.3410   59.9200   66.9760 C.3   201  INI201      0.2175
     19  O11       -5.2020   59.2620   67.6510 O.3   201  INI201     -0.2175
     20  C12       -7.5430   59.0540   67.5910 C.3   201  INI201      0.2175
     21  O12       -8.0980   58.3210   66.5280 O.3   201  INI201     -0.2175
@<TRIPOS>BOND
     1     3     2    2
     2     4     2    2
     3     4     5    2
     4     2     1    2
     5     6     5    2
     6     5     7    1
     7     1    11    2
     8    15    14    1
     9    11     7    1
    10    11    12    1
    11     7     8    1
    12     9     8    2
    13    17    16    1
    14    12    13    1
    15    14    16    1
    16    14    13    1
    17     8    10    2
    18    16    18    1
    19    21    20    1
    20    18    20    1
    21    18    19    1
