@<TRIPOS>MOLECULE
2o6p_HEM_A_1.pdb
 43 50 0 0 0
SMALL
GASTEIGER

@<TRIPOS>ATOM
      1  CHA      -10.0750  -53.7510   -9.3930 C.2   190  HEM190      0.0000
      2  CHB       -6.9110  -55.0270  -12.8400 C.2   190  HEM190      0.0000
      3  CHC      -10.2490  -54.1180  -16.2560 C.2   190  HEM190      0.0000
      4  CHD      -13.2350  -52.4240  -12.8840 C.2   190  HEM190      0.0000
      5  C1A       -8.9310  -54.1890  -10.0100 C.2   190  HEM190      0.0000
      6  C2A       -7.7060  -54.6090   -9.3440 C.2   190  HEM190      0.0000
      7  C3A       -6.8300  -54.9630  -10.2980 C.2   190  HEM190      0.0000
      8  C4A       -7.4610  -54.7730  -11.5980 C.2   190  HEM190      0.0000
      9  CMA       -5.3890  -55.4750  -10.0480 C.3   190  HEM190      0.0000
     10  CAA       -7.4970  -54.6390   -7.8050 C.3   190  HEM190      0.0000
     11  CBA       -8.2460  -55.8570   -7.2530 C.3   190  HEM190      0.0000
     12  CGA       -7.8970  -56.1150   -5.8060 C.2   190  HEM190      0.0000
     13  O1A       -6.7920  -55.7060   -5.3590 O.co2 190  HEM190      0.0000
     14  O2A       -8.7270  -56.7480   -5.1040 O.co2 190  HEM190      0.0000
     15  C1B       -7.5290  -54.9010  -14.0710 C.ar  190  HEM190      0.0000
     16  C2B       -6.9400  -55.1750  -15.3800 C.ar  190  HEM190      0.0000
     17  C3B       -7.8750  -54.9090  -16.3120 C.ar  190  HEM190      0.0000
     18  C4B       -9.0750  -54.4620  -15.6340 C.ar  190  HEM190      0.0000
     19  CMB       -5.4850  -55.6630  -15.6230 C.3   190  HEM190      0.0000
     20  CAB       -7.8130  -54.9930  -17.8570 C.2   190  HEM190      0.0000
     21  CBB       -6.8650  -55.6380  -18.5340 C.2   190  HEM190      0.0000
     22  C1C      -11.3390  -53.5620  -15.6370 C.2   190  HEM190      0.0000
     23  C2C      -12.5240  -53.0490  -16.3070 C.2   190  HEM190      0.0000
     24  C3C      -13.3530  -52.5720  -15.3630 C.2   190  HEM190      0.0000
     25  C4C      -12.7090  -52.7810  -14.0860 C.2   190  HEM190      0.0000
     26  CMC      -12.7760  -53.0740  -17.8340 C.3   190  HEM190      0.0000
     27  CAC      -14.7520  -51.9300  -15.5150 C.2   190  HEM190      0.0000
     28  CBC      -15.1300  -51.2730  -16.6100 C.2   190  HEM190      0.0000
     29  C1D      -12.6670  -52.6120  -11.6470 C.ar  190  HEM190      0.0000
     30  C2D      -13.2790  -52.2410  -10.3960 C.ar  190  HEM190      0.0000
     31  C3D      -12.3010  -52.6490   -9.3090 C.ar  190  HEM190      0.0000
     32  C4D      -11.1880  -53.2420  -10.0180 C.ar  190  HEM190      0.0000
     33  CMD      -14.6500  -51.5670  -10.2110 C.3   190  HEM190      0.0000
     34  CAD      -12.4900  -52.4790   -7.7840 C.3   190  HEM190      0.0000
     35  CBD      -11.6230  -51.3320   -7.2650 C.3   190  HEM190      0.0000
     36  CGD      -11.8940  -50.0350   -7.9940 C.2   190  HEM190      0.0000
     37  O1D      -10.9170  -49.4150   -8.5210 O.co2 190  HEM190      0.0000
     38  O2D      -13.0840  -49.6100   -8.0500 O.co2 190  HEM190      0.0000
     39  NA        -8.7570  -54.3150  -11.3660 N.2   190  HEM190      0.0000
     40  NB        -8.8250  -54.4800  -14.2790 N.ar  190  HEM190      0.0000
     41  NC       -11.4740  -53.3740  -14.2730 N.2   190  HEM190      0.0000
     42  ND       -11.4370  -53.2010  -11.3870 N.ar  190  HEM190      0.0000
     43 FE        -10.2920  -54.2770  -12.7990 Fe    190  HEM190      0.0000
@<TRIPOS>BOND
     1    21    20    2
     2    20    17    1
     3    26    23    1
     4    28    27    2
     5    17    18   ar
     6    17    16   ar
     7    23    22    1
     8    23    24    2
     9     3    22    2
    10     3    18    1
    11    22    41    1
    12    18    40   ar
    13    19    16    1
    14    27    24    1
    15    16    15   ar
    16    24    25    1
    17    40    15   ar
    18    40    43    1
    19    41    25    2
    20    41    43    1
    21    25     4    1
    22    15     2    1
    23     4    29    2
    24     2     8    2
    25    43    42    1
    26    43    39    1
    27    29    42   ar
    28    29    30   ar
    29     8    39    1
    30     8     7    1
    31    42    32   ar
    32    39     5    2
    33    30    33    1
    34    30    31   ar
    35     7     9    1
    36     7     6    2
    37    32     1    2
    38    32    31   ar
    39     5     1    1
    40     5     6    1
    41     6    10    1
    42    31    34    1
    43    37    36   ar
    44    38    36   ar
    45    36    35    1
    46    10    11    1
    47    34    35    1
    48    11    12    1
    49    12    13   ar
    50    12    14   ar
