@<TRIPOS>MOLECULE
2o73_2AL_A_1.pdb
 11 11 0 0 0
SMALL
GASTEIGER

@<TRIPOS>ATOM
      1  C4        -6.3700   21.7940   12.9180 C.3   6001  2AL6001     0.3311
      2  C5        -7.0060   22.5830   11.7850 C.1   6001  2AL6001     0.2371
      3  O5        -6.6140   23.6610   11.3390 O.2   6001  2AL6001    -0.2095
      4  N7        -8.1010   21.9420   11.3850 N.2   6001  2AL6001    -0.2430
      5  C8        -8.2250   20.8210   12.1050 C.1   6001  2AL6001     0.3089
      6  O8        -9.1470   20.0210   11.9570 O.2   6001  2AL6001    -0.1881
      7  N9        -7.2560   20.6340   13.0000 N.2   6001  2AL6001    -0.1367
      8  N3        -4.9150   21.5240   12.7700 N.am  6001  2AL6001    -0.1461
      9  C2        -4.2700   20.7080   13.6050 C.2   6001  2AL6001     0.3615
     10  N1        -4.9940   20.0780   14.5180 N.am  6001  2AL6001    -0.0678
     11  O2        -3.0510   20.5160   13.5200 O.2   6001  2AL6001    -0.2473
@<TRIPOS>BOND
     1     3     2    2
     2     4     2    2
     3     4     5    2
     4     2     1    1
     5     6     5    2
     6     5     7    2
     7     8     1    1
     8     8     9   am
     9     1     7    1
    10    11     9    2
    11     9    10   am
