@<TRIPOS>MOLECULE
2o74_GUN_A_1.pdb
 11 12 0 0 0
SMALL
GASTEIGER

@<TRIPOS>ATOM
      1  N9        -5.0070   19.5970   14.3020 N.2   1001  GUN1001    -0.1802
      2  C8        -3.8870   20.3730   14.1300 C.3   1001  GUN1001     0.2633
      3  N7        -4.0490   21.3460   13.2710 N.2   1001  GUN1001    -0.2212
      4  C5        -5.3620   21.2120   12.8380 C.2   1001  GUN1001     0.2482
      5  C6        -6.1200   21.9710   11.9080 C.1   1001  GUN1001     0.2442
      6  O6        -5.7950   22.9600   11.2470 O.2   1001  GUN1001    -0.2063
      7  N1        -7.4210   21.4890   11.7700 N.2   1001  GUN1001    -0.2474
      8  C2        -7.9140   20.4030   12.4590 C.1   1001  GUN1001     0.2608
      9  N2        -9.1740   20.0490   12.2080 N.pl3 1001  GUN1001    -0.0220
     10  N3        -7.2230   19.6790   13.3300 N.2   1001  GUN1001    -0.2682
     11  C4        -5.9540   20.1390   13.4690 C.1   1001  GUN1001     0.1289
@<TRIPOS>BOND
     1     6     5    2
     2     7     5    2
     3     7     8    2
     4     5     4    1
     5     9     8    1
     6     8    10    2
     7     4     3    2
     8     4    11    1
     9     3     2    1
    10    10    11    2
    11    11     1    2
    12     2     1    1
