@<TRIPOS>MOLECULE
2o78_TCA_A_1.pdb
 11 11 0 0 0
SMALL
GASTEIGER

@<TRIPOS>ATOM
      1  C1        21.2210   10.7960   37.9830 C.2   701  TCA701      0.3880
      2  O         21.9840    9.9130   38.4420 O.co2 701  TCA701     -0.2405
      3  OXT       19.9800   10.6830   38.0630 O.co2 701  TCA701     -0.2405
      4  C2        21.8190   11.9950   37.3380 C.2   701  TCA701      0.0861
      5  C3        22.6690   11.8950   36.2870 C.2   701  TCA701      0.0068
      6  C31       23.2510   13.0580   35.5080 C.ar  701  TCA701      0.0002
      7  C32       22.8560   14.4280   35.8050 C.ar  701  TCA701      0.0000
      8  C33       23.4150   15.5270   35.0570 C.ar  701  TCA701      0.0000
      9  C34       24.3690   15.2810   34.0110 C.ar  701  TCA701      0.0000
     10  C35       24.7690   13.9300   33.7070 C.ar  701  TCA701      0.0000
     11  C36       24.2130   12.8350   34.4500 C.ar  701  TCA701      0.0000
@<TRIPOS>BOND
     1    10     9   ar
     2    10    11   ar
     3     9     8   ar
     4    11     6   ar
     5     8     7   ar
     6     6     7   ar
     7     6     5    1
     8     5     4    2
     9     4     1    1
    10     1     3   ar
    11     1     2   ar
