@<TRIPOS>MOLECULE
2o7b_HC4_A_1.pdb
 12 12 0 0 0
SMALL
GASTEIGER

@<TRIPOS>ATOM
      1  C1        21.4290   10.9210   37.8670 C.2   701  HC4701      0.3880
      2  O1        22.0550    9.8460   37.9900 O.co2 701  HC4701     -0.2405
      3  O2        20.2260   11.0100   38.2080 O.co2 701  HC4701     -0.2405
      4  C2        22.1470   12.0980   37.3180 C.2   701  HC4701      0.0861
      5  C3        22.6710   12.0890   36.0780 C.2   701  HC4701      0.0068
      6  C1'       23.3870   13.2390   35.4230 C.ar  701  HC4701      0.0004
      7  C2'       23.0510   14.5860   35.7750 C.ar  701  HC4701      0.0033
      8  C3'       23.7190   15.6830   35.1520 C.ar  701  HC4701      0.0420
      9  C4'       24.7220   15.4440   34.1790 C.ar  701  HC4701      0.1957
     10  C5'       25.0590   14.1150   33.8270 C.ar  701  HC4701      0.0420
     11  C6'       24.3960   13.0240   34.4460 C.ar  701  HC4701      0.0033
     12  O4'       25.3620   16.4890   33.5850 O.3   701  HC4701     -0.2866
@<TRIPOS>BOND
     1    12     9    1
     2    10     9   ar
     3    10    11   ar
     4     9     8   ar
     5    11     6   ar
     6     8     7   ar
     7     6     7   ar
     8     6     5    1
     9     5     4    2
    10     4     1    1
    11     1     2   ar
    12     1     3   ar
