@<TRIPOS>MOLECULE
2o7d_DHC_A_1.pdb
 13 13 0 0 0
SMALL
GASTEIGER

@<TRIPOS>ATOM
      1  C1        21.5190   10.7420   37.9220 C.2   701  DHC701      0.3880
      2  O1        22.1890    9.6920   38.0010 O.co2 701  DHC701     -0.2405
      3  C2        22.1650   11.9640   37.3640 C.2   701  DHC701      0.0861
      4  C3        22.6970   11.9860   36.1270 C.2   701  DHC701      0.0069
      5  C1'       23.3970   13.1790   35.4770 C.ar  701  DHC701      0.0036
      6  C2'       23.0820   14.5420   35.8810 C.ar  701  DHC701      0.0454
      7  C3'       23.7410   15.6820   35.2770 C.ar  701  DHC701      0.2343
      8  C4'       24.7210   15.4820   34.2570 C.ar  701  DHC701      0.2343
      9  C5'       25.0530   14.1480   33.8460 C.ar  701  DHC701      0.0454
     10  C6'       24.3980   13.0000   34.4530 C.ar  701  DHC701      0.0035
     11  O4'       25.3500   16.5510   33.6780 O.3   701  DHC701     -0.2831
     12  O3'       23.3810   16.9150   35.7420 O.3   701  DHC701     -0.2831
     13  O2        20.3300   10.7640   38.3300 O.co2 701  DHC701     -0.2405
@<TRIPOS>BOND
     1    11     8    1
     2     9     8   ar
     3     9    10   ar
     4     8     7   ar
     5    10     5   ar
     6     7    12    1
     7     7     6   ar
     8     5     6   ar
     9     5     4    1
    10     4     3    2
    11     3     1    1
    12     1     2   ar
    13     1    13   ar
