@<TRIPOS>MOLECULE
2o7e_PMI_A_1.pdb
 14 15 0 0 0
SMALL
GASTEIGER

@<TRIPOS>ATOM
      1  O14       17.8760   11.8540   38.4490 O.3   701  PMI701     -0.3562
      2  P10       19.2930   11.4230   38.1420 P.3   701  PMI701      0.1333
      3  O12       20.2770   11.6930   39.2550 O.3   701  PMI701     -0.3562
      4  O13       19.3540    9.9740   37.7040 O.2   701  PMI701     -0.4587
      5  C8'       19.8360   12.4190   36.7270 C.3   701  PMI701      0.1304
      6  C9'       19.5240   13.9100   37.0140 C.3   701  PMI701      0.0509
      7  C2'       20.8060   14.6090   36.6620 C.ar  701  PMI701     -0.0242
      8  N11       19.0560   11.9370   35.5460 N.3   701  PMI701     -0.1263
      9  C7'       21.3650   12.2120   36.5160 C.3   701  PMI701      0.0509
     10  C1'       21.8810   13.6180   36.3640 C.ar  701  PMI701     -0.0242
     11  C6'       23.1730   14.0480   36.0090 C.ar  701  PMI701     -0.0045
     12  C5'       23.4070   15.4520   35.9310 C.ar  701  PMI701     -0.0003
     13  C4'       22.3750   16.4050   36.2170 C.ar  701  PMI701     -0.0003
     14  C3'       21.0650   15.9890   36.5770 C.ar  701  PMI701     -0.0045
@<TRIPOS>BOND
     1     8     5    1
     2    12    11   ar
     3    12    13   ar
     4    11    10   ar
     5    13    14   ar
     6    10     9    1
     7    10     7   ar
     8     9     5    1
     9    14     7   ar
    10     7     6    1
    11     5     6    1
    12     5     2    1
    13     4     2    2
    14     2     1    1
    15     2     3    1
