@<TRIPOS>MOLECULE
2o7f_HC4_A_1.pdb
 12 12 0 0 0
SMALL
GASTEIGER

@<TRIPOS>ATOM
      1  C1        21.8200   10.7640   37.7420 C.2   701  HC4701      0.3880
      2  O1        22.4000   10.0140   38.5610 O.co2 701  HC4701     -0.2405
      3  O2        20.5910   10.9740   37.8140 O.co2 701  HC4701     -0.2405
      4  C2        22.6370   11.4020   36.6780 C.2   701  HC4701      0.0861
      5  C3        22.5710   12.7240   36.4480 C.2   701  HC4701      0.0068
      6  C1'       23.3880   13.4680   35.4330 C.ar  701  HC4701      0.0004
      7  C2'       23.2150   14.8840   35.3440 C.ar  701  HC4701      0.0033
      8  C3'       23.9620   15.6390   34.4120 C.ar  701  HC4701      0.0420
      9  C4'       24.8940   15.0020   33.5500 C.ar  701  HC4701      0.1957
     10  C5'       25.0770   13.5940   33.6250 C.ar  701  HC4701      0.0420
     11  C6'       24.3240   12.8350   34.5620 C.ar  701  HC4701      0.0033
     12  O4'       25.6080   15.7430   32.6550 O.3   701  HC4701     -0.2866
@<TRIPOS>BOND
     1    12     9    1
     2     9    10   ar
     3     9     8   ar
     4    10    11   ar
     5     8     7   ar
     6    11     6   ar
     7     7     6   ar
     8     6     5    1
     9     5     4    2
    10     4     1    1
    11     1     3   ar
    12     1     2   ar
