@<TRIPOS>MOLECULE
2o7i_CBI_A_1.pdb
 23 24 0 0 0
SMALL
GASTEIGER

@<TRIPOS>ATOM
      1  C1       -33.9360   25.8400  -12.2420 C.3   1893  CBI1893     0.2695
      2  C2       -34.5680   24.4800  -12.4640 C.3   1893  CBI1893     0.2406
      3  C3       -35.8850   24.6120  -13.2200 C.3   1893  CBI1893     0.2198
      4  C4       -36.7880   25.6870  -12.6100 C.3   1893  CBI1893     0.2144
      5  C5       -36.0170   26.9960  -12.4000 C.3   1893  CBI1893     0.1835
      6  C6       -36.8100   28.1180  -11.7260 C.3   1893  CBI1893     0.2142
      7  O2       -33.7130   23.6400  -13.2270 O.3   1893  CBI1893    -0.2149
      8  O3       -36.5470   23.3470  -13.2130 O.3   1893  CBI1893    -0.2174
      9  O4       -37.9100   25.9090  -13.4950 O.3   1893  CBI1893    -0.2176
     10  O5       -34.8530   26.7240  -11.6120 O.3   1893  CBI1893    -0.3256
     11  O6       -37.3860   27.6540  -10.5050 O.3   1893  CBI1893    -0.2176
     12  C1'      -29.6410   28.3410  -10.4700 C.3   1893  CBI1893     0.3023
     13  C2'      -31.0300   28.8160  -10.0730 C.3   1893  CBI1893     0.2433
     14  C3'      -31.9760   27.6110  -10.0330 C.3   1893  CBI1893     0.2168
     15  C4'      -31.9710   26.9070  -11.3900 C.3   1893  CBI1893     0.1804
     16  C5'      -30.5300   26.5490  -11.7310 C.3   1893  CBI1893     0.1804
     17  C6'      -30.3580   25.8520  -13.0610 C.3   1893  CBI1893     0.2141
     18  O1'      -28.7230   29.4410  -10.5460 O.3   1893  CBI1893    -0.1869
     19  O2'      -30.9590   29.5050   -8.8170 O.3   1893  CBI1893    -0.2148
     20  O3'      -33.2980   28.0150   -9.6520 O.3   1893  CBI1893    -0.2175
     21  O4'      -32.7930   25.7310  -11.3910 O.3   1893  CBI1893    -0.3257
     22  O5'      -29.7380   27.7400  -11.7570 O.3   1893  CBI1893    -0.3237
     23  O6'      -28.9540   25.5490  -13.1830 O.3   1893  CBI1893    -0.2176
@<TRIPOS>BOND
     1     9     4    1
     2     7     2    1
     3     3     8    1
     4     3     4    1
     5     3     2    1
     6    23    17    1
     7    17    16    1
     8     4     5    1
     9     2     1    1
    10     5     6    1
    11     5    10    1
    12     1    10    1
    13     1    21    1
    14    22    16    1
    15    22    12    1
    16    16    15    1
    17     6    11    1
    18    21    15    1
    19    15    14    1
    20    18    12    1
    21    12    13    1
    22    13    14    1
    23    13    19    1
    24    14    20    1
