@<TRIPOS>MOLECULE
2o7n_2O7_A_1.pdb
 28 31 0 0 0
SMALL
GASTEIGER

@<TRIPOS>ATOM
      1  C1         2.6560   22.3970   -5.0690 C.3     1  2O71        0.0927
      2  C3         2.4160   24.6610   -4.1060 C.3     1  2O71        0.0940
      3  C9         1.7200   22.2900   -3.8330 C.3     1  2O71        0.0252
      4  C12        4.6110   23.6630   -4.7870 C.2     1  2O71        0.2496
      5  C13        5.0190   22.2440   -5.0240 C.2     1  2O71        0.0607
      6  C14        3.8850   21.4920   -5.1600 C.2     1  2O71        0.0670
      7  C15        3.7380   20.0630   -5.4340 C.1     1  2O71        0.0978
      8  C20        8.2650   20.1940   -4.7320 C.ar    1  2O71        0.0585
      9  C21        9.2110   21.0660   -5.2660 C.ar    1  2O71        0.0228
     10  C24        7.4210   22.7220   -5.5970 C.ar    1  2O71        0.0116
     11  O28        5.3100   24.6610   -4.6190 O.2     1  2O71       -0.2699
     12  C32        2.5690   22.8080   -7.6320 C.ar    1  2O71       -0.0202
     13  C33        2.9740   21.7810   -8.5120 C.ar    1  2O71       -0.0035
     14  C35        3.7930   22.0650   -9.6150 C.ar    1  2O71        0.0100
     15  N2         3.2760   23.6800   -4.7630 N.am    1  2O71       -0.2748
     16  C6         1.3500   23.7530   -3.4600 C.3     1  2O71        0.0235
     17  N16        3.6880   18.9300   -5.6500 N.1     1  2O71       -0.1911
     18  C17        6.4690   21.8290   -5.0710 C.ar    1  2O71        0.0064
     19  C18        6.9220   20.5680   -4.6080 C.ar    1  2O71        0.0116
     20  C23        8.7590   22.3250   -5.6680 C.ar    1  2O71        0.0585
     21 CL26        9.9290   23.4200   -6.2600 Cl      1  2O71       -0.0822
     22 CL27        8.7640   18.6380   -4.2650 Cl      1  2O71       -0.0822
     23  C29        1.8050   22.4820   -6.3700 C.3     1  2O71        0.0495
     24  C37        4.1860   23.3850   -9.8540 C.ar    1  2O71        0.0684
     25  C38        3.7500   24.4310   -9.0320 C.ar    1  2O71        0.0100
     26  C40        2.9310   24.1320   -7.9350 C.ar    1  2O71       -0.0035
     27  C42        5.0290   23.6920  -10.9630 C.1     1  2O71        0.1004
     28  N43        5.6800   23.9470  -11.8880 N.1     1  2O71       -0.1908
@<TRIPOS>BOND
     1    28    27    3
     2    27    24    1
     3    24    14   ar
     4    24    25   ar
     5    14    13   ar
     6    25    26   ar
     7    13    12   ar
     8    26    12   ar
     9    12    23    1
    10    23     1    1
    11    21    20    1
    12    20    10   ar
    13    20     9   ar
    14    17     7    3
    15    10    18   ar
    16     7     6    1
    17     9     8   ar
    18     6     1    1
    19     6     5    2
    20    18     5    1
    21    18    19   ar
    22     1    15    1
    23     1     3    1
    24     5     4    1
    25     4    15   am
    26     4    11    2
    27    15     2    1
    28     8    19   ar
    29     8    22    1
    30     2    16    1
    31     3    16    1
