@<TRIPOS>MOLECULE
2o7o_DXT_A_1.pdb
 32 35 0 0 0
SMALL
GASTEIGER

@<TRIPOS>ATOM
      1  C1        18.4800   32.3790   33.6910 C.2   222  DXT222      0.1957
      2  O1        17.8080   32.9260   32.7540 O.2   222  DXT222     -0.2925
      3  C2        18.1680   31.1620   34.3330 C.3   222  DXT222      0.1715
      4  O21       16.4740   29.5890   34.7730 O.2   222  DXT222     -0.2711
      5  C21       16.9390   30.4980   34.0260 C.2   222  DXT222      0.2700
      6  N21       16.2140   30.7850   32.9440 N.am  222  DXT222     -0.0874
      7  C3        18.8090   30.8270   35.4640 C.3   222  DXT222      0.1824
      8  O3        18.7230   29.6400   36.0460 O.3   222  DXT222     -0.2207
      9  C4        19.6500   31.8050   36.2910 C.3   222  DXT222      0.0947
     10  N4        20.8080   31.0350   36.9530 N.3   222  DXT222     -0.2691
     11  C41       21.4450   31.7930   38.1090 C.3   222  DXT222      0.0897
     12  C42       21.9890   30.6390   36.0810 C.3   222  DXT222      0.0897
     13  C4A       20.0010   33.0530   35.5160 C.3   222  DXT222      0.0893
     14  C5        19.1600   34.2470   35.9610 C.3   222  DXT222      0.1576
     15  O5        18.8900   34.2760   37.3220 O.3   222  DXT222     -0.2230
     16  C5A       19.4950   35.5760   35.3350 C.3   222  DXT222      0.0490
     17  C6        18.4440   36.6600   35.4690 C.3   222  DXT222      0.0258
     18  C61       17.9620   36.8040   36.8970 C.3   222  DXT222      0.0048
     19  C6A       19.0430   37.8940   34.9110 C.ar  222  DXT222     -0.0165
     20  C7        18.6960   39.1220   35.4120 C.ar  222  DXT222     -0.0040
     21  C8        19.2600   40.2590   34.8730 C.ar  222  DXT222      0.0030
     22  C9        20.1630   40.2290   33.8310 C.ar  222  DXT222      0.0421
     23  C10       20.5160   39.0280   33.2930 C.ar  222  DXT222      0.1981
     24  O10       21.3690   38.9910   32.2830 O.3   222  DXT222     -0.2865
     25  C6B       19.9620   37.8540   33.8690 C.ar  222  DXT222      0.0700
     26  C11       20.4360   36.5590   33.3330 C.2   222  DXT222      0.1826
     27  O11       21.0650   36.5880   32.2400 O.2   222  DXT222     -0.2908
     28  C5B       20.0800   35.4330   33.9580 C.3   222  DXT222      0.1250
     29  C12       20.2650   34.1850   33.3560 C.2   222  DXT222      0.1918
     30  O12       20.8520   34.0820   32.2280 O.2   222  DXT222     -0.2926
     31  C4B       19.8510   32.9020   34.0240 C.3   222  DXT222      0.2318
     32  O13       20.8060   31.8810   33.5740 O.3   222  DXT222     -0.2104
@<TRIPOS>BOND
     1    30    29    2
     2    27    26    2
     3    24    23    1
     4     2     1    2
     5     6     5   am
     6    23    22   ar
     7    23    25   ar
     8    26    25    1
     9    26    28    1
    10    29    28    1
    11    29    31    1
    12    32    31    1
    13     1    31    1
    14     1     3    1
    15    22    21   ar
    16    25    19   ar
    17    28    16    1
    18    31    13    1
    19     5     3    1
    20     5     4    2
    21     3     7    1
    22    21    20   ar
    23    19    20   ar
    24    19    17    1
    25    16    17    1
    26    16    14    1
    27     7     8    1
    28     7     9    1
    29    17    18    1
    30    13    14    1
    31    13     9    1
    32    14    15    1
    33    12    10    1
    34     9    10    1
    35    10    11    1
