@<TRIPOS>MOLECULE
2o7p_NAP_A_1.pdb
 48 52 0 0 0
SMALL
GASTEIGER

@<TRIPOS>ATOM
      1  PA        77.6080  -64.8220   41.8090 P.3   402  NAP402      0.2189
      2  O1A       76.9230  -63.9730   40.7880 O.2   402  NAP402     -0.5170
      3  O2A       76.8700  -66.0840   42.1300 O.3   402  NAP402     -0.4371
      4  O5B       79.1170  -65.0750   41.3610 O.3   402  NAP402     -0.3112
      5  C5B       80.0550  -64.0490   41.3800 C.3   402  NAP402      0.1813
      6  C4B       81.3620  -64.7340   41.0220 C.3   402  NAP402      0.1820
      7  O4B       81.4100  -64.9510   39.6220 O.3   402  NAP402     -0.3136
      8  C3B       82.5830  -63.8960   41.3620 C.3   402  NAP402      0.2157
      9  O3B       83.0810  -64.1090   42.6740 O.3   402  NAP402     -0.2175
     10  C2B       83.5270  -64.4060   40.3090 C.3   402  NAP402      0.2314
     11  O2B       83.9740  -65.6420   40.7760 O.3   402  NAP402     -0.2630
     12  C1B       82.6870  -64.6950   39.1000 C.3   402  NAP402      0.3158
     13  N9A       82.6660  -63.4640   38.2920 N.pl3 402  NAP402     -0.1439
     14  C8A       81.9790  -62.3270   38.5960 C.3   402  NAP402      0.3377
     15  N7A       82.1960  -61.4010   37.6490 N.2   402  NAP402     -0.2095
     16  C5A       83.0130  -61.9210   36.7290 C.2   402  NAP402      0.2526
     17  C6A       83.5350  -61.3780   35.5710 C.2   402  NAP402      0.4393
     18  N6A       83.2220  -60.1340   35.2310 N.pl3 402  NAP402      0.2180
     19  N1A       84.3740  -62.1320   34.7810 N.2   402  NAP402      0.0021
     20  C2A       84.6780  -63.4250   35.1780 C.3   402  NAP402      0.5254
     21  N3A       84.1580  -63.9620   36.3420 N.2   402  NAP402     -0.0055
     22  C4A       83.3270  -63.2140   37.1140 C.2   402  NAP402      0.3518
     23  O3        77.8310  -64.0220   43.1650 O.3   402  NAP402     -0.2703
     24  PN        76.8420  -62.9680   43.8560 P.3   402  NAP402      0.2189
     25  O1N       76.5500  -61.9010   42.8560 O.2   402  NAP402     -0.5170
     26  O2N       77.4120  -62.7030   45.1970 O.3   402  NAP402     -0.4371
     27  O5D       75.4780  -63.7620   44.1140 O.3   402  NAP402     -0.3112
     28  C5D       75.4940  -64.8930   44.9370 C.3   402  NAP402      0.1813
     29  C4D       74.0810  -65.0940   45.4500 C.3   402  NAP402      0.1799
     30  O4D       73.1860  -65.4470   44.4160 O.3   402  NAP402     -0.3327
     31  C3D       74.0170  -66.2030   46.4760 C.3   402  NAP402      0.2158
     32  O3D       73.6340  -65.5820   47.6670 O.3   402  NAP402     -0.2175
     33  C2D       72.9580  -67.1520   45.9720 C.3   402  NAP402      0.2309
     34  O2D       72.0590  -67.5780   46.9500 O.3   402  NAP402     -0.2158
     35  C1D       72.2140  -66.3080   44.9680 C.3   402  NAP402      0.2263
     36  N1N       71.6020  -67.1970   43.9670 N.pl3 402  NAP402     -0.2787
     37  C2N       70.2380  -67.2140   43.7770 C.3   402  NAP402      0.1244
     38  C3N       69.7010  -68.0800   42.8240 C.2   402  NAP402      0.0544
     39  C7N       68.3130  -67.8780   42.2670 C.2   402  NAP402      0.2818
     40  O7N       67.3240  -67.2910   43.0840 O.2   402  NAP402     -0.2670
     41  N7N       68.0500  -68.2780   41.0100 N.am  402  NAP402     -0.0839
     42  C4N       70.5520  -68.9160   42.1050 C.2   402  NAP402      0.0033
     43  C5N       71.9180  -68.8990   42.3100 C.2   402  NAP402      0.0157
     44  C6N       72.4320  -68.0260   43.2560 C.2   402  NAP402      0.0633
     45  P2B       85.4350  -65.7280   41.4590 P.3   402  NAP402      0.5328
     46  O1X       85.7060  -64.4110   42.1810 O.3   402  NAP402     -0.1145
     47  O2X       85.3970  -66.9630   42.3510 O.3   402  NAP402     -0.1145
     48  O3X       86.4870  -65.8220   40.3780 O.2   402  NAP402     -0.2224
@<TRIPOS>BOND
     1    19    20    1
     2    19    17    2
     3    20    21    1
     4    18    17    1
     5    17    16    1
     6    21    22    2
     7    16    22    1
     8    16    15    2
     9    22    13    1
    10    15    14    1
    11    13    14    1
    12    13    12    1
    13    12     7    1
    14    12    10    1
    15     7     6    1
    16    10    11    1
    17    10     8    1
    18    48    45    2
    19    11    45    1
    20     2     1    2
    21    41    39   am
    22     6     8    1
    23     6     5    1
    24     4     5    1
    25     4     1    1
    26     8     9    1
    27    45    46    1
    28    45    47    1
    29     1     3    1
    30     1    23    1
    31    42    43    1
    32    42    38    2
    33    39    38    1
    34    39    40    2
    35    43    44    2
    36    38    37    1
    37    25    24    2
    38    23    24    1
    39    44    36    1
    40    37    36    1
    41    24    27    1
    42    24    26    1
    43    36    35    1
    44    27    28    1
    45    30    35    1
    46    30    29    1
    47    28    29    1
    48    35    33    1
    49    29    31    1
    50    33    31    1
    51    33    34    1
    52    31    32    1
