@<TRIPOS>MOLECULE
2o7q_DHK_A_1.pdb
 11 11 0 0 0
SMALL
GASTEIGER

@<TRIPOS>ATOM
      1  C2        42.8610   52.5310   55.3450 C.3   9241  DHK9241     0.0468
      2  C3        42.7230   53.2860   54.0390 C.3   9241  DHK9241     0.1827
      3  O3        42.7200   54.7300   54.1640 O.3   9241  DHK9241    -0.2204
      4  C4        43.4080   52.5850   52.9210 C.3   9241  DHK9241     0.1821
      5  O4        43.2970   53.2560   51.6550 O.3   9241  DHK9241    -0.2204
      6  C5        42.4870   51.3550   52.9000 C.3   9241  DHK9241     0.0361
      7  C1        41.6200   51.6420   55.2680 C.3   9241  DHK9241     0.1061
      8  C6        42.2490   50.7880   54.0900 C.3   9241  DHK9241     0.0140
      9  C         41.5310   50.7490   56.4860 C.2   9241  DHK9241     0.3644
     10  O1        41.5290   49.4230   56.3400 O.co2 9241  DHK9241    -0.2457
     11  O2        41.4630   51.2200   57.5920 O.co2 9241  DHK9241    -0.2457
@<TRIPOS>BOND
     1     5     4    1
     2     6     4    1
     3     6     8    1
     4     4     2    1
     5     2     3    1
     6     2     1    1
     7     8     7    1
     8     7     1    1
     9     7     9    1
    10    10     9   ar
    11     9    11   ar
