@<TRIPOS>MOLECULE
2o7s_NAP_A_1.pdb
 48 52 0 0 0
SMALL
GASTEIGER

@<TRIPOS>ATOM
      1  PA        26.1650   42.3130   85.4090 P.3   1411  NAP1411     0.2189
      2  O1A       25.8870   42.8140   84.0440 O.2   1411  NAP1411    -0.5170
      3  O2A       26.9690   41.0920   85.6420 O.3   1411  NAP1411    -0.4371
      4  O5B       25.9770   43.3190   86.6740 O.3   1411  NAP1411    -0.3112
      5  C5B       25.2990   44.5190   86.2600 C.3   1411  NAP1411     0.1813
      6  C4B       24.4560   45.1020   87.3860 C.3   1411  NAP1411     0.1820
      7  O4B       24.2450   46.4490   86.9950 O.3   1411  NAP1411    -0.3136
      8  C3B       23.0730   44.7030   87.8530 C.3   1411  NAP1411     0.2157
      9  O3B       22.8880   44.5460   89.2700 O.3   1411  NAP1411    -0.2175
     10  C2B       22.1370   45.3240   86.7790 C.3   1411  NAP1411     0.2314
     11  O2B       20.8910   45.7950   87.3430 O.3   1411  NAP1411    -0.2630
     12  C1B       23.0560   46.4690   86.2640 C.3   1411  NAP1411     0.3158
     13  N9A       22.5900   47.8500   86.0630 N.pl3 1411  NAP1411    -0.1439
     14  C8A       22.7070   48.5890   84.8690 C.3   1411  NAP1411     0.3377
     15  N7A       22.1760   49.8310   85.0410 N.2   1411  NAP1411    -0.2095
     16  C5A       21.7440   49.8350   86.3270 C.2   1411  NAP1411     0.2526
     17  C6A       21.1150   50.8970   86.9920 C.2   1411  NAP1411     0.4393
     18  N6A       20.8960   52.0390   86.3380 N.pl3 1411  NAP1411     0.2180
     19  N1A       20.7220   50.7550   88.3330 N.2   1411  NAP1411     0.0021
     20  C2A       20.9840   49.5140   88.9710 C.3   1411  NAP1411     0.5254
     21  N3A       21.6190   48.4740   88.2610 N.2   1411  NAP1411    -0.0055
     22  C4A       21.9670   48.7260   86.9280 C.2   1411  NAP1411     0.3518
     23  O3        27.5360   43.1210   85.1480 O.3   1411  NAP1411    -0.2703
     24  PN        28.8920   42.7310   86.0740 P.3   1411  NAP1411     0.2189
     25  O1N       29.6340   41.6440   85.3870 O.2   1411  NAP1411    -0.5170
     26  O2N       28.5000   42.2740   87.4490 O.3   1411  NAP1411    -0.4371
     27  O5D       29.8740   44.0250   86.1800 O.3   1411  NAP1411    -0.3112
     28  C5D       29.2150   45.1360   86.8480 C.3   1411  NAP1411     0.1813
     29  C4D       30.1420   46.3830   87.0000 C.3   1411  NAP1411     0.1799
     30  O4D       31.1510   46.2670   88.0590 O.3   1411  NAP1411    -0.3327
     31  C3D       30.9060   46.7680   85.7000 C.3   1411  NAP1411     0.2158
     32  O3D       30.8010   48.2100   85.5530 O.3   1411  NAP1411    -0.2175
     33  C2D       32.3140   46.3780   85.9300 C.3   1411  NAP1411     0.2309
     34  O2D       33.2320   47.2650   85.3280 O.3   1411  NAP1411    -0.2158
     35  C1D       32.4720   46.3390   87.4560 C.3   1411  NAP1411     0.2263
     36  N1N       33.3880   45.2660   87.9080 N.pl3 1411  NAP1411    -0.2787
     37  C2N       34.6850   45.7050   88.2760 C.3   1411  NAP1411     0.1244
     38  C3N       35.5610   44.6670   88.7250 C.2   1411  NAP1411     0.0544
     39  C7N       36.9380   45.0330   89.1300 C.2   1411  NAP1411     0.2818
     40  O7N       37.7340   44.1670   89.5190 O.2   1411  NAP1411    -0.2670
     41  N7N       37.3410   46.3180   89.0790 N.am  1411  NAP1411    -0.0839
     42  C4N       35.1440   43.2930   88.7930 C.2   1411  NAP1411     0.0033
     43  C5N       33.8510   42.9340   88.4140 C.2   1411  NAP1411     0.0157
     44  C6N       32.9440   43.9100   87.9630 C.2   1411  NAP1411     0.0633
     45  P2B       19.7220   44.7160   87.0720 P.3   1411  NAP1411     0.5328
     46  O1X       20.0530   43.4200   87.7550 O.3   1411  NAP1411    -0.1145
     47  O2X       18.4750   45.2120   87.6230 O.3   1411  NAP1411    -0.1145
     48  O3X       19.5750   44.4790   85.6290 O.2   1411  NAP1411    -0.2224
@<TRIPOS>BOND
     1     2     1    2
     2    14    15    1
     3    14    13    1
     4    15    16    2
     5    23     1    1
     6    23    24    1
     7    34    33    1
     8    25    24    2
     9     1     3    1
    10     1     4    1
    11    32    31    1
    12    48    45    2
    13    31    33    1
    14    31    29    1
    15    33    35    1
    16    13    12    1
    17    13    22    1
    18    24    27    1
    19    24    26    1
    20    27    28    1
    21     5     4    1
    22     5     6    1
    23    12    10    1
    24    12     7    1
    25    16    22    1
    26    16    17    1
    27    18    17    1
    28    10    11    1
    29    10     8    1
    30    28    29    1
    31    22    21    2
    32    17    19    2
    33     7     6    1
    34    29    30    1
    35    45    11    1
    36    45    47    1
    37    45    46    1
    38     6     8    1
    39    35    36    1
    40    35    30    1
    41     8     9    1
    42    36    44    1
    43    36    37    1
    44    44    43    2
    45    21    20    1
    46    37    38    1
    47    19    20    1
    48    43    42    1
    49    38    42    2
    50    38    39    1
    51    41    39   am
    52    39    40    2
