@<TRIPOS>MOLECULE
2o7s_DHK_A_1.pdb
 11 11 0 0 0
SMALL
GASTEIGER

@<TRIPOS>ATOM
      1  C2        42.4150   53.2190   55.7810 C.3   9241  DHK9241     0.0468
      2  C3        42.6540   53.8480   54.3850 C.3   9241  DHK9241     0.1827
      3  O3        43.2260   55.1590   54.5330 O.3   9241  DHK9241    -0.2204
      4  C4        43.6070   52.9690   53.5400 C.3   9241  DHK9241     0.1821
      5  O4        43.5600   53.4090   52.1820 O.3   9241  DHK9241    -0.2204
      6  C5        43.2370   51.4950   53.6130 C.3   9241  DHK9241     0.0361
      7  C1        41.8090   51.8170   55.6040 C.3   9241  DHK9241     0.1061
      8  C6        42.7330   50.9990   54.7090 C.3   9241  DHK9241     0.0140
      9  C         41.6290   51.1450   56.9550 C.2   9241  DHK9241     0.3644
     10  O1        40.4500   50.5830   57.2770 O.co2 9241  DHK9241    -0.2457
     11  O2        42.5210   51.1600   57.7690 O.co2 9241  DHK9241    -0.2457
@<TRIPOS>BOND
     1     5     4    1
     2     4     6    1
     3     4     2    1
     4     6     8    1
     5     2     3    1
     6     2     1    1
     7     8     7    1
     8     7     1    1
     9     7     9    1
    10     9    10   ar
    11     9    11   ar
