@<TRIPOS>MOLECULE
2o86_HEM_A_1.pdb
 43 50 0 0 0
SMALL
GASTEIGER

@<TRIPOS>ATOM
      1  CHA        8.7070    0.0580   29.1320 C.2   3008  HEM3008     0.0000
      2  CHB        8.9810    4.8740   29.0510 C.2   3008  HEM3008     0.0000
      3  CHC       10.9700    4.4270   24.6410 C.2   3008  HEM3008     0.0000
      4  CHD       10.7140   -0.2950   24.6420 C.2   3008  HEM3008     0.0000
      5  C1A        8.6260    1.3620   29.5360 C.2   3008  HEM3008     0.0000
      6  C2A        8.1630    1.7980   30.8330 C.2   3008  HEM3008     0.0000
      7  C3A        8.2480    3.1390   30.8360 C.2   3008  HEM3008     0.0000
      8  C4A        8.7460    3.5830   29.5220 C.2   3008  HEM3008     0.0000
      9  CMA        7.8950    4.0080   32.0660 C.3   3008  HEM3008     0.0000
     10  CAA        7.6920    0.8600   31.9920 C.3   3008  HEM3008     0.0000
     11  CBA        8.8340    0.4830   32.9330 C.3   3008  HEM3008     0.0000
     12  CGA        8.3760   -0.6330   33.8370 C.2   3008  HEM3008     0.0000
     13  O1A        7.3480   -0.5220   34.5310 O.co2 3008  HEM3008     0.0000
     14  O2A        9.0500   -1.6710   33.8870 O.co2 3008  HEM3008     0.0000
     15  C1B        9.4970    5.2130   27.8130 C.ar  3008  HEM3008     0.0000
     16  C2B        9.7160    6.5340   27.2290 C.ar  3008  HEM3008     0.0000
     17  C3B       10.2620    6.3820   26.0190 C.ar  3008  HEM3008     0.0000
     18  C4B       10.4000    4.9570   25.7770 C.ar  3008  HEM3008     0.0000
     19  CMB        9.4090    7.9040   27.8300 C.3   3008  HEM3008     0.0000
     20  CAB       10.6670    7.4840   24.9980 C.2   3008  HEM3008     0.0000
     21  CBB       11.0490    8.7330   25.3180 C.2   3008  HEM3008     0.0000
     22  C1C       11.1370    3.1330   24.2710 C.2   3008  HEM3008     0.0000
     23  C2C       11.7180    2.6720   23.0380 C.2   3008  HEM3008     0.0000
     24  C3C       11.6700    1.3410   23.0530 C.2   3008  HEM3008     0.0000
     25  C4C       11.0050    0.9580   24.2500 C.2   3008  HEM3008     0.0000
     26  CMC       12.3900    3.5440   21.9570 C.3   3008  HEM3008     0.0000
     27  CAC       12.2260    0.3860   21.9620 C.2   3008  HEM3008     0.0000
     28  CBC       12.8100    0.8560   20.8290 C.2   3008  HEM3008     0.0000
     29  C1D       10.0550   -0.6170   25.8050 C.ar  3008  HEM3008     0.0000
     30  C2D        9.5830   -1.9420   26.0840 C.ar  3008  HEM3008     0.0000
     31  C3D        8.9500   -1.8650   27.4770 C.ar  3008  HEM3008     0.0000
     32  C4D        9.1340   -0.4650   27.9130 C.ar  3008  HEM3008     0.0000
     33  CMD        9.7140   -3.1450   25.1790 C.3   3008  HEM3008     0.0000
     34  CAD        8.2710   -3.0490   28.2440 C.3   3008  HEM3008     0.0000
     35  CBD        6.7830   -3.1670   27.8690 C.3   3008  HEM3008     0.0000
     36  CGD        6.1320   -4.2900   28.6380 C.2   3008  HEM3008     0.0000
     37  O1D        6.1950   -5.4350   28.1420 O.co2 3008  HEM3008     0.0000
     38  O2D        5.5670   -4.0330   29.7250 O.co2 3008  HEM3008     0.0000
     39  NA         8.9520    2.4570   28.7680 N.2   3008  HEM3008     0.0000
     40  NB         9.9360    4.2720   26.8880 N.ar  3008  HEM3008     0.0000
     41  NC        10.6900    2.0640   24.9860 N.2   3008  HEM3008     0.0000
     42  ND         9.7970    0.2330   26.8990 N.ar  3008  HEM3008     0.0000
     43 FE          9.7440    2.2620   26.8850 Fe    3008  HEM3008     0.0000
@<TRIPOS>BOND
     1    28    27    2
     2    26    23    1
     3    27    24    1
     4    23    24    2
     5    23    22    1
     6    24    25    1
     7    25     4    1
     8    25    41    2
     9    22     3    2
    10    22    41    1
    11     3    18    1
    12     4    29    2
    13    41    43    1
    14    20    21    2
    15    20    17    1
    16    33    30    1
    17    18    17   ar
    18    18    40   ar
    19    29    30   ar
    20    29    42   ar
    21    17    16   ar
    22    30    31   ar
    23    43    40    1
    24    43    42    1
    25    43    39    1
    26    40    15   ar
    27    42    32   ar
    28    16    15   ar
    29    16    19    1
    30    31    32   ar
    31    31    34    1
    32    15     2    1
    33    35    34    1
    34    35    36    1
    35    32     1    2
    36    37    36   ar
    37    36    38   ar
    38    39     8    1
    39    39     5    2
    40     2     8    2
    41     1     5    1
    42     8     7    1
    43     5     6    1
    44     6     7    2
    45     6    10    1
    46     7     9    1
    47    10    11    1
    48    11    12    1
    49    12    14   ar
    50    12    13   ar
