@<TRIPOS>MOLECULE
2o8h_227_A_1.pdb
 34 38 0 0 0
SMALL
GASTEIGER

@<TRIPOS>ATOM
      1  C34        7.9370   24.8170   36.6220 C.3   999  227999      0.0897
      2  C32       10.0700   25.2340   37.6230 C.3   999  227999      0.0915
      3  C4        11.7740   18.4970   42.2000 C.2   999  227999      0.0316
      4  C7        13.4500   16.8530   43.7390 C.2   999  227999      0.0553
      5  C9        12.3590   17.3890   41.6300 C.2   999  227999      0.1691
      6  C13       13.2160   16.5530   42.3880 C.2   999  227999      0.1733
      7  C20       11.3610   23.7230   43.5990 C.ar  999  227999     -0.0168
      8  C21       14.8840   14.7580   42.3200 C.3   999  227999      0.2526
      9  N5        10.5660   20.9420   43.5530 N.pl3 999  227999     -0.1894
     10  C18       11.2250   17.8680   39.4860 C.3   999  227999      0.2526
     11  C16       10.6320   23.1240   44.7710 C.3   999  227999      0.0770
     12  O17       13.7850   15.4800   41.7600 O.2   999  227999     -0.4683
     13  C19       12.2080   23.6100   41.3490 C.ar  999  227999      0.1218
     14  O26       12.4920   21.4350   39.6100 O.2   999  227999     -0.1528
     15  S22       12.4840   22.8520   39.6820 S.O2  999  227999      0.0632
     16  O27       13.7330   23.3480   39.3350 O.2   999  227999     -0.1528
     17  N25       11.1980   23.3940   38.6640 N.3   999  227999     -0.1527
     18  C30       11.0460   24.8610   38.7410 C.3   999  227999      0.1131
     19  N33        8.7950   24.5290   37.7880 N.3   999  227999     -0.2690
     20  C31        8.9060   23.0660   37.9220 C.3   999  227999      0.0915
     21  C29        9.9460   22.6980   38.9680 C.3   999  227999      0.1131
     22  C23       12.7040   24.9180   41.4800 C.ar  999  227999      0.0197
     23  C28       12.5330   25.6060   42.6850 C.ar  999  227999      0.0010
     24  C15       11.5320   23.0100   42.4030 C.ar  999  227999      0.0391
     25  C10       10.9920   21.5980   42.2850 C.3   999  227999      0.2303
     26  C24       11.8650   25.0050   43.7310 C.ar  999  227999     -0.0042
     27  C11        9.7830   21.9110   44.3290 C.3   999  227999      0.2070
     28  C2        11.4040   19.9570   44.1840 C.2   999  227999      0.3066
     29  C1        11.9990   18.8290   43.5440 C.3   999  227999      0.1701
     30  N6        11.6700   20.1390   45.4930 N.2   999  227999     -0.0404
     31  C12       12.3340   19.1900   46.1840 C.3   999  227999      0.3912
     32  N8        13.0480   18.2310   45.5780 N.2   999  227999     -0.2220
     33  C3        12.8380   17.9650   44.2980 C.2   999  227999      0.0768
     34  O14       12.1550   17.1180   40.3110 O.2   999  227999     -0.4687
@<TRIPOS>BOND
     1     1    19    1
     2     2    19    1
     3     2    18    1
     4    19    20    1
     5    20    21    1
     6    17    18    1
     7    17    21    1
     8    17    15    1
     9    16    15    2
    10    10    34    1
    11    14    15    2
    12    15    13    1
    13    34     5    1
    14    13    22   ar
    15    13    24   ar
    16    22    23   ar
    17     5     3    2
    18     5     6    1
    19    12     8    1
    20    12     6    1
    21     3    29    1
    22    25    24    1
    23    25     9    1
    24     6     4    2
    25    24     7   ar
    26    23    26   ar
    27    29    28    1
    28    29    33    1
    29     9    28    1
    30     9    27    1
    31     7    26   ar
    32     7    11    1
    33     4    33    1
    34    28    30    2
    35    33    32    2
    36    27    11    1
    37    30    31    1
    38    32    31    1
