@<TRIPOS>MOLECULE
2o8j_SAH_A_1.pdb
 26 28 0 0 0
SMALL
GASTEIGER

@<TRIPOS>ATOM
      1  N         10.5970   67.0540   40.6620 N.3   1505  SAH1505    -0.1208
      2  CA        11.0680   68.2030   41.4890 C.3   1505  SAH1505     0.1952
      3  CB        12.5720   68.4280   41.2290 C.3   1505  SAH1505     0.0422
      4  CG        13.4670   67.5090   42.0810 C.3   1505  SAH1505     0.0597
      5  SD        13.4930   68.0280   43.8300 S.3   1505  SAH1505    -0.1375
      6  C         10.1900   69.4370   41.3030 C.2   1505  SAH1505     0.3819
      7  O         10.4780   70.5340   41.8270 O.co2 1505  SAH1505    -0.2441
      8  OXT        9.1430   69.3540   40.6310 O.co2 1505  SAH1505    -0.2441
      9  C5'       13.1630   66.4080   44.5690 C.3   1505  SAH1505     0.0899
     10  C4'       11.6710   66.0890   44.6190 C.3   1505  SAH1505     0.1630
     11  O4'       11.2470   65.6690   43.3230 O.3   1505  SAH1505    -0.3153
     12  C3'       11.3430   64.9470   45.5700 C.3   1505  SAH1505     0.2168
     13  O3'       10.9070   65.4550   46.8130 O.3   1505  SAH1505    -0.2175
     14  C2'       10.2120   64.2440   44.8640 C.3   1505  SAH1505     0.2569
     15  O2'        9.0390   64.9780   45.0980 O.3   1505  SAH1505    -0.2130
     16  C1'       10.4990   64.4780   43.3920 C.3   1505  SAH1505     0.3185
     17  N9        11.2920   63.3670   42.8530 N.pl3 1505  SAH1505    -0.1439
     18  C8        12.6300   63.3640   42.5180 C.3   1505  SAH1505     0.3377
     19  N7        12.9450   62.1380   42.0490 N.2   1505  SAH1505    -0.2095
     20  C5        11.8320   61.3630   42.0950 C.2   1505  SAH1505     0.2526
     21  C6        11.5770   60.0260   41.7680 C.2   1505  SAH1505     0.4393
     22  N6        12.4920   59.2050   41.2730 N.pl3 1505  SAH1505     0.2180
     23  N1        10.3020   59.5320   41.9420 N.2   1505  SAH1505     0.0021
     24  C2         9.2910   60.3100   42.4460 C.3   1505  SAH1505     0.5254
     25  N3         9.5290   61.6250   42.7820 N.2   1505  SAH1505    -0.0055
     26  C4        10.7910   62.1320   42.6020 C.2   1505  SAH1505     0.3518
@<TRIPOS>BOND
     1     8     6   ar
     2     1     2    1
     3     3     2    1
     4     3     4    1
     5    22    21    1
     6     6     2    1
     7     6     7   ar
     8    21    23    2
     9    21    20    1
    10    23    24    1
    11    19    20    2
    12    19    18    1
    13     4     5    1
    14    20    26    1
    15    24    25    1
    16    18    17    1
    17    26    25    2
    18    26    17    1
    19    17    16    1
    20    11    16    1
    21    11    10    1
    22    16    14    1
    23     5     9    1
    24     9    10    1
    25    10    12    1
    26    14    15    1
    27    14    12    1
    28    12    13    1
