@<TRIPOS>MOLECULE
2o8w_PL0_A_1.pdb
 10 10 0 0 0
SMALL
GASTEIGER

@<TRIPOS>ATOM
      1  C2        -0.8160   33.5570    9.1250 C.ar  800  PL0800      0.0002
      2  C3        -1.3290   33.4740   10.4650 C.ar  800  PL0800      0.0030
      3  C4        -1.4430   34.6650   11.2670 C.ar  800  PL0800      0.0371
      4  C5        -1.0430   35.9190   10.7150 C.ar  800  PL0800      0.1592
      5  C6        -0.5320   35.9940    9.3820 C.ar  800  PL0800      0.0371
      6  C1        -0.4210   34.8210    8.5990 C.ar  800  PL0800      0.0030
      7  C7        -1.6660   38.1280   11.2540 C.cat 800  PL0800      0.5393
      8  N1        -1.2610   36.9930   11.7580 N.pl3 800  PL0800     -0.0605
      9  N2        -1.9820   38.7710   10.1830 N.pl3 800  PL0800      0.1358
     10  N3        -1.7540   38.8410   12.3620 N.pl3 800  PL0800      0.1358
@<TRIPOS>BOND
     1     6     1   ar
     2     6     5   ar
     3     1     2   ar
     4     5     4   ar
     5     9     7    1
     6     2     3   ar
     7     4     3   ar
     8     4     8    1
     9     7     8    2
    10     7    10    1
