@<TRIPOS>MOLECULE
2o98_FSC_A_1.pdb
 48 51 0 0 0
SMALL
GASTEIGER

@<TRIPOS>ATOM
      1  C1         5.4200   84.1480  120.5110 C.2   1001  FSC1001    -0.0172
      2  C4         4.0870   84.1870  120.2830 C.2   1001  FSC1001    -0.0436
      3  C11        3.0490   84.7990  121.1950 C.3   1001  FSC1001     0.0617
      4  C18        2.1420   83.7030  121.7610 C.3   1001  FSC1001     0.0082
      5  C17        2.1960   85.8550  120.4940 C.3   1001  FSC1001     0.2123
      6  O24        1.5460   86.6490  121.5040 O.3   1001  FSC1001    -0.4481
      7  C31        0.4840   87.5860  121.1910 C.2   1001  FSC1001     0.3176
      8  O37        0.2040   87.7540  120.0060 O.2   1001  FSC1001    -0.2501
      9  C36       -0.2320   88.2910  122.3000 C.3   1001  FSC1001     0.1212
     10  C10        3.7040   83.5040  118.9810 C.3   1001  FSC1001     0.0551
     11  C6         5.0770   83.4230  118.3240 C.3   1001  FSC1001     0.1630
     12  O13        5.2610   82.3270  117.4270 O.3   1001  FSC1001    -0.2221
     13  C2         6.1080   83.3750  119.4320 C.3   1001  FSC1001     0.0632
     14  C7         7.3370   84.1150  118.9440 C.3   1001  FSC1001     0.0110
     15  C5         6.4340   81.9260  119.7850 C.2   1001  FSC1001    -0.0289
     16  C12        6.3060   81.2240  120.9500 C.2   1001  FSC1001    -0.0462
     17  C20        6.7320   79.7760  121.0540 C.3   1001  FSC1001     0.0476
     18  C27        8.2040   79.5120  120.7370 C.3   1001  FSC1001     0.1462
     19  O32        8.4890   78.1040  120.6190 O.3   1001  FSC1001    -0.3508
     20  C38        9.8750   77.8370  120.4290 C.3   1001  FSC1001     0.1741
     21  C26        6.4350   79.3550  122.4860 C.3   1001  FSC1001     0.0069
     22  C25        5.4920   80.4120  123.0440 C.3   1001  FSC1001     0.0045
     23  C19        5.7170   81.7030  122.2520 C.3   1001  FSC1001     0.0206
     24  C15        6.5700   82.7150  123.0580 C.3   1001  FSC1001     0.0370
     25  C23        8.0790   82.7610  122.7500 C.3   1001  FSC1001     0.0030
     26  C9         5.9960   84.1170  122.9690 C.3   1001  FSC1001     0.1831
     27  O16        6.6210   84.9070  123.9840 O.3   1001  FSC1001    -0.2202
     28  C3         6.2260   84.7960  121.6290 C.3   1001  FSC1001     0.1661
     29  O8         5.9020   86.1930  121.7730 O.3   1001  FSC1001    -0.3242
     30  C14        6.8370   87.2300  121.3900 C.3   1001  FSC1001     0.2709
     31  O22        6.9500   87.4100  119.9640 O.3   1001  FSC1001    -0.3257
     32  C30        5.7400   87.7220  119.2710 C.3   1001  FSC1001     0.1812
     33  C33        5.0930   88.9920  119.8010 C.3   1001  FSC1001     0.2239
     34  O39        3.7750   89.1050  119.2160 O.3   1001  FSC1001    -0.2165
     35  C28        5.0140   89.0010  121.3310 C.3   1001  FSC1001     0.2366
     36  O34        4.6980   90.3410  121.7110 O.3   1001  FSC1001    -0.4466
     37  C40        4.1510   90.6710  123.0430 C.2   1001  FSC1001     0.3176
     38  O43        2.9350   90.5890  123.2150 O.2   1001  FSC1001    -0.2501
     39  C42        5.0890   91.1430  124.1520 C.3   1001  FSC1001     0.1212
     40  C21        6.3360   88.5570  121.9650 C.3   1001  FSC1001     0.2501
     41  O29        6.1250   88.4140  123.3680 O.3   1001  FSC1001    -0.2137
     42  C35        6.0400   87.8800  117.7890 C.3   1001  FSC1001     0.1746
     43  O41        7.1800   88.7380  117.6610 O.3   1001  FSC1001    -0.3518
     44  C44        7.9110   88.7820  116.4010 C.3   1001  FSC1001     0.1114
     45  C47        7.9000   87.4770  115.6280 C.3   1001  FSC1001     0.0342
     46  C46        9.3640   89.1590  116.7330 C.3   1001  FSC1001     0.0342
     47  C45        7.3490   89.8490  115.4780 C.2   1001  FSC1001     0.0002
     48  C48        6.2420   89.6620  114.7810 C.2   1001  FSC1001    -0.0025
@<TRIPOS>BOND
     1    48    47    2
     2    47    44    1
     3    45    44    1
     4    44    46    1
     5    44    43    1
     6    12    11    1
     7    43    42    1
     8    42    32    1
     9    11    10    1
    10    11    13    1
    11    14    13    1
    12    10     2    1
    13    34    33    1
    14    32    33    1
    15    32    31    1
    16    13    15    1
    17    13     1    1
    18    15    16    2
    19    33    35    1
    20    31    30    1
    21     8     7    2
    22     2     1    2
    23     2     3    1
    24    20    19    1
    25     5     3    1
    26     5     6    1
    27     1    28    1
    28    19    18    1
    29    18    17    1
    30    16    17    1
    31    16    23    1
    32    17    21    1
    33     7     6    1
    34     7     9    1
    35     3     4    1
    36    35    36    1
    37    35    40    1
    38    30    29    1
    39    30    40    1
    40    28    29    1
    41    28    26    1
    42    36    37    1
    43    40    41    1
    44    23    22    1
    45    23    24    1
    46    21    22    1
    47    25    24    1
    48    26    24    1
    49    26    27    1
    50    37    38    2
    51    37    39    1
