@<TRIPOS>MOLECULE
2o9b_LBV_A_1.pdb
 43 46 0 0 0
SMALL
GASTEIGER

@<TRIPOS>ATOM
      1  C1A       23.7680   -9.4670   20.7080 C.1   328  LBV328      0.1249
      2  C1B       19.7550   -7.4830   20.9000 C.2   328  LBV328      0.1063
      3  O1B       15.4180   -2.5740   21.1510 O.co2 328  LBV328     -0.2456
      4  C1C       18.6110   -7.0520   16.5670 C.2   328  LBV328      0.1114
      5  O1C       17.0020   -4.3150   12.8160 O.co2 328  LBV328     -0.2456
      6  C1D       21.5480   -8.6000   13.1850 C.2   328  LBV328      0.1257
      7  C2A       24.1300   -9.6930   22.0420 C.3   328  LBV328      0.1082
      8  C2B       18.5850   -6.8130   21.4020 C.2   328  LBV328      0.0018
      9  O2B       14.5440   -3.6610   19.4140 O.co2 328  LBV328     -0.2456
     10  C2C       18.0280   -6.7930   15.3170 C.2   328  LBV328      0.0024
     11  O2C       18.1900   -3.0300   14.1680 O.co2 328  LBV328     -0.2456
     12  C2D       22.4400   -9.6470   12.6180 C.2   328  LBV328      0.0168
     13  C3A       22.8790   -9.1220   22.5840 C.3   328  LBV328      0.0391
     14  C3B       17.8550   -6.4600   20.3090 C.2   328  LBV328      0.0024
     15  C3C       18.8950   -7.3110   14.3750 C.2   328  LBV328      0.0021
     16  C3D       23.0710   -9.0150   11.5230 C.2   328  LBV328      0.0929
     17  C4A       21.8460   -8.8760   21.5610 C.3   328  LBV328      0.1225
     18  C4B       18.5830   -6.9180   19.1740 C.2   328  LBV328      0.1114
     19  C4C       19.9660   -7.8600   15.0820 C.2   328  LBV328      0.1114
     20  C4D       22.5790   -7.6850   11.5050 C.1   328  LBV328      0.2041
     21  CAA       22.4660   -9.6870   23.8130 C.3   328  LBV328      0.0031
     22  CAB       16.5250   -5.7360   20.3010 C.3   328  LBV328      0.0402
     23  CAC       16.6970   -6.1320   14.9920 C.3   328  LBV328      0.0402
     24  CAD       24.0670   -9.6050   10.5820 C.2   328  LBV328      0.0124
     25  CBA       23.3680  -10.0260   24.9760 C.3   328  LBV328      0.0001
     26  CBB       16.7720   -4.2290   20.0440 C.3   328  LBV328      0.1188
     27  CBC       16.7180   -4.6190   15.1640 C.3   328  LBV328      0.1188
     28  CBD       24.6310   -8.8960    9.5810 C.2   328  LBV328      0.0008
     29  CGB       15.4940   -3.4300   20.2060 C.2   328  LBV328      0.3652
     30  CGC       17.3580   -3.9530   13.9620 C.2   328  LBV328      0.3652
     31  CHB       20.8490   -7.9590   21.7850 C.3   328  LBV328      0.0837
     32  CHC       18.0820   -6.7240   17.8490 C.3   328  LBV328      0.1170
     33  CHD       21.1530   -8.5210   14.6260 C.3   328  LBV328      0.1181
     34  CMA       25.3520   -8.8490   22.4170 C.3   328  LBV328      0.0177
     35  CMB       18.2190   -6.5170   22.8480 C.3   328  LBV328      0.0331
     36  CMC       18.6400   -7.2690   12.9020 C.3   328  LBV328      0.0331
     37  CMD       22.5670  -11.0760   13.0990 C.3   328  LBV328      0.0342
     38  N_A       22.6350   -8.7420   20.3940 N.2   328  LBV328     -0.2079
     39  O_A       24.7170   -9.3950   19.9200 O.2   328  LBV328     -0.2271
     40  N_B       19.7650   -7.5420   19.5190 N.2   328  LBV328     -0.4107
     41  N_C       19.8110   -7.7080   16.4390 N.2   328  LBV328     -0.4104
     42  N_D       21.6930   -7.3840   12.4920 N.2   328  LBV328     -0.3372
     43  O_D       22.9620   -6.8220   10.6390 O.2   328  LBV328     -0.2093
@<TRIPOS>BOND
     1    28    24    2
     2    24    16    1
     3    43    20    2
     4    20    16    1
     5    20    42    2
     6    16    12    2
     7    42     6    2
     8    12    37    1
     9    12     6    1
    10     5    30   ar
    11    36    15    1
    12     6    33    1
    13    30    11   ar
    14    30    27    1
    15    15    19    1
    16    15    10    2
    17    33    19    1
    18    23    27    1
    19    23    10    1
    20    19    41    2
    21    10     4    1
    22    41     4    2
    23     4    32    1
    24    32    18    1
    25    18    40    2
    26    18    14    1
    27     9    29   ar
    28    40     2    2
    29    39     1    2
    30    26    29    1
    31    26    22    1
    32    29     3   ar
    33    22    14    1
    34    14     8    2
    35    38     1    2
    36    38    17    1
    37     1     7    1
    38     2     8    1
    39     2    31    1
    40     8    35    1
    41    17    31    1
    42    17    13    1
    43     7    34    1
    44     7    13    1
    45    13    21    1
    46    21    25    1
