@<TRIPOS>MOLECULE
2o9c_LBV_A_1.pdb
 43 46 0 0 0
SMALL
GASTEIGER

@<TRIPOS>ATOM
      1  C1A       23.9210   -9.2420   20.5830 C.1   328  LBV328      0.1830
      2  C1B       19.7980   -7.4920   20.8280 C.2   328  LBV328      0.1114
      3  O1B       15.5330   -2.6220   21.0370 O.co2 328  LBV328     -0.2456
      4  C1C       18.6590   -7.0530   16.4810 C.2   328  LBV328      0.1114
      5  O1C       16.9010   -4.1470   12.7730 O.co2 328  LBV328     -0.2456
      6  C1D       21.6710   -8.5240   13.0970 C.2   328  LBV328      0.1257
      7  C2A       24.1840   -9.6510   21.9020 C.3   328  LBV328      0.1424
      8  C2B       18.6420   -6.8280   21.3090 C.2   328  LBV328      0.0021
      9  O2B       14.5900   -3.6210   19.3030 O.co2 328  LBV328     -0.2456
     10  C2C       18.0690   -6.7240   15.2300 C.2   328  LBV328      0.0024
     11  O2C       18.2460   -2.9750   14.0660 O.co2 328  LBV328     -0.2456
     12  C2D       22.5040   -9.5790   12.5360 C.2   328  LBV328      0.0168
     13  C3A       22.9030   -9.2570   22.4800 C.2   328  LBV328      0.0165
     14  C3B       17.9080   -6.4370   20.2250 C.2   328  LBV328      0.0024
     15  C3C       18.8710   -7.2390   14.2380 C.2   328  LBV328      0.0021
     16  C3D       23.1100   -8.9700   11.4240 C.2   328  LBV328      0.0929
     17  C4A       22.0440   -8.6100   21.4880 C.2   328  LBV328      0.1254
     18  C4B       18.6210   -6.9390   19.0980 C.2   328  LBV328      0.1114
     19  C4C       19.9710   -7.8420   14.8880 C.2   328  LBV328      0.1114
     20  C4D       22.6130   -7.6370   11.3880 C.1   328  LBV328      0.2041
     21  CAA       22.6070   -9.2980   23.8620 C.2   328  LBV328     -0.0267
     22  CAB       16.5920   -5.6940   20.2130 C.3   328  LBV328      0.0402
     23  CAC       16.7480   -6.0410   14.9730 C.3   328  LBV328      0.0402
     24  CAD       24.0580   -9.6100   10.4950 C.2   328  LBV328      0.0124
     25  CBA       23.5050  -10.0130   24.8380 C.3   328  LBV328      0.0305
     26  CBB       16.8610   -4.2210   19.8820 C.3   328  LBV328      0.1188
     27  CBC       16.8220   -4.5230   15.1310 C.3   328  LBV328      0.1188
     28  CBD       24.5960   -8.9780    9.4480 C.2   328  LBV328      0.0008
     29  CGB       15.5780   -3.4550   20.1000 C.2   328  LBV328      0.3652
     30  CGC       17.3430   -3.8430   13.8940 C.2   328  LBV328      0.3652
     31  CHB       20.8250   -8.0390   21.7460 C.3   328  LBV328      0.1181
     32  CHC       18.1310   -6.6920   17.7640 C.3   328  LBV328      0.1170
     33  CHD       21.0840   -8.5660   14.4250 C.3   328  LBV328      0.1181
     34  CMA       25.4460   -8.9140   22.3890 C.3   328  LBV328      0.0237
     35  CMB       18.3140   -6.5650   22.7470 C.3   328  LBV328      0.0331
     36  CMC       18.6250   -7.2150   12.7530 C.3   328  LBV328      0.0331
     37  CMD       22.6690  -10.9990   13.0540 C.3   328  LBV328      0.0342
     38  N_A       22.7110   -8.6970   20.2550 N.2   328  LBV328     -0.3405
     39  O_A       24.6730   -9.6240   19.6710 O.2   328  LBV328     -0.2139
     40  N_B       19.7980   -7.5550   19.4570 N.2   328  LBV328     -0.4104
     41  N_C       19.8450   -7.7380   16.2490 N.2   328  LBV328     -0.4104
     42  N_D       21.7270   -7.3410   12.3520 N.2   328  LBV328     -0.3372
     43  O_D       22.9340   -6.7990   10.4660 O.2   328  LBV328     -0.2093
@<TRIPOS>BOND
     1    28    24    2
     2    43    20    2
     3    24    16    1
     4    20    16    1
     5    20    42    2
     6    16    12    2
     7    42     6    2
     8    12    37    1
     9    12     6    1
    10    36    15    1
    11     5    30   ar
    12     6    33    1
    13    30    11   ar
    14    30    27    1
    15    15    19    1
    16    15    10    2
    17    33    19    1
    18    19    41    2
    19    23    27    1
    20    23    10    1
    21    10     4    1
    22    41     4    2
    23     4    32    1
    24    32    18    1
    25    18    40    2
    26    18    14    1
    27     9    29   ar
    28    40     2    2
    29    39     1    2
    30    26    29    1
    31    26    22    1
    32    29     3   ar
    33    22    14    1
    34    14     8    2
    35    38     1    2
    36    38    17    2
    37     1     7    1
    38     2     8    1
    39     2    31    1
    40     8    35    1
    41    17    31    1
    42    17    13    1
    43     7    34    1
    44     7    13    1
    45    13    21    2
    46    21    25    1
