@<TRIPOS>MOLECULE
2o9i_444_A_1.pdb
 31 32 0 0 0
SMALL
GASTEIGER

@<TRIPOS>ATOM
      1  O13       12.8080   33.8760   28.4650 O.2     2  4442       -0.1497
      2  S12       12.5550   33.3080   26.9880 S.O2    2  4442        0.0768
      3  O14       11.4650   32.1610   27.1920 O.2     2  4442       -0.1497
      4  C01       13.9900   32.3060   26.5190 C.ar    2  4442        0.1254
      5  C02       15.1260   32.1970   27.5130 C.ar    2  4442        0.0202
      6  C03       16.3220   31.3860   27.1480 C.ar    2  4442        0.0014
      7  C04       16.4020   30.6870   25.8280 C.ar    2  4442        0.0001
      8  C05       15.2730   30.8070   24.8650 C.ar    2  4442        0.0014
      9  C06       14.0820   31.6030   25.2020 C.ar    2  4442        0.0202
     10  N15       11.9680   34.4560   26.0260 N.pl3   2  4442       -0.1818
     11  C16       13.1230   35.4660   25.9290 C.3     2  4442        0.2186
     12  C19       12.9530   36.8720   25.3390 C.3     2  4442        0.4174
     13  F22       13.0530   36.8670   23.9860 F       2  4442       -0.1681
     14  F21       11.7370   37.3950   25.6850 F       2  4442       -0.1681
     15  F20       13.9420   37.6860   25.8220 F       2  4442       -0.1681
     16  C23       11.3140   33.9480   24.6150 C.ar    2  4442        0.0691
     17  C24       12.2500   33.9830   23.3950 C.ar    2  4442        0.0159
     18  C25       11.7860   33.5630   22.1160 C.ar    2  4442       -0.0000
     19  C28        9.9330   33.4640   24.4170 C.ar    2  4442        0.0159
     20  C27        9.4670   33.0410   23.1290 C.ar    2  4442       -0.0000
     21  C26       10.3710   33.0660   21.9110 C.ar    2  4442        0.0216
     22  C33        9.8800   32.6010   20.4090 C.3     2  4442        0.3171
     23  C34       10.5510   31.3130   19.8060 C.3     2  4442        0.4344
     24  F36        9.9770   30.8770   18.6860 F       2  4442       -0.1668
     25  F37       11.8390   31.5590   19.5350 F       2  4442       -0.1668
     26  F35       10.5240   30.3090   20.7280 F       2  4442       -0.1668
     27  O42        8.4950   32.2430   20.6560 O.3     2  4442       -0.2033
     28  C38        9.8180   33.8640   19.4420 C.3     2  4442        0.4344
     29  F39        9.1380   33.6680   18.3220 F       2  4442       -0.1668
     30  F40        9.2130   34.9250   20.0400 F       2  4442       -0.1668
     31  F41       11.0310   34.3370   19.1070 F       2  4442       -0.1668
@<TRIPOS>BOND
     1    29    28    1
     2    24    23    1
     3    31    28    1
     4    28    30    1
     5    28    22    1
     6    25    23    1
     7    23    22    1
     8    23    26    1
     9    22    27    1
    10    22    21    1
    11    21    18   ar
    12    21    20   ar
    13    18    17   ar
    14    20    19   ar
    15    17    16   ar
    16    13    12    1
    17    19    16   ar
    18    16    10    1
    19     8     9   ar
    20     8     7   ar
    21     9     4   ar
    22    12    14    1
    23    12    15    1
    24    12    11    1
    25     7     6   ar
    26    11    10    1
    27    10     2    1
    28     4     2    1
    29     4     5   ar
    30     2     3    2
    31     2     1    2
    32     6     5   ar
