@<TRIPOS>MOLECULE
2o9j_CZA_A_1.pdb
 25 29 0 0 0
SMALL
GASTEIGER

@<TRIPOS>ATOM
      1  O2        34.3080   10.5230   13.5530 O.2   1001  CZA1001    -0.2890
      2  C6        34.1590   11.0130   12.3680 C.2   1001  CZA1001     0.2023
      3  C3        35.3190   11.0730   11.4340 C.2   1001  CZA1001     0.1247
      4  C2        36.7090   10.5750   11.5980 C.2   1001  CZA1001     0.1807
      5  O1        37.3290   10.8380   12.6200 O.2   1001  CZA1001    -0.2911
      6  C1        37.2650    9.7640   10.4590 C.3   1001  CZA1001     0.0775
      7  C5        32.8760   11.6320   11.9390 C.3   1001  CZA1001     0.1601
      8  C7        31.6820   10.8670   11.3810 C.ar  1001  CZA1001    -0.0014
      9  C15       30.6420   10.6740   12.4150 C.ar  1001  CZA1001     0.0009
     10  C16       30.6670    9.7980   13.4810 C.3   1001  CZA1001     0.1512
     11  N2        29.4760   10.0310   14.1100 N.2   1001  CZA1001    -0.2696
     12  C17       28.7670   10.9960   13.4650 C.2   1001  CZA1001     0.0582
     13  C14       29.5080   11.4140   12.3760 C.ar  1001  CZA1001     0.0111
     14  C18       27.5280   11.6010   13.6730 C.3   1001  CZA1001     0.0713
     15  C19       27.0780   12.5930   12.7910 C.2   1001  CZA1001    -0.0198
     16  C20       27.8540   12.9910   11.6990 C.2   1001  CZA1001    -0.0042
     17  C13       29.0880   12.3800   11.5010 C.ar  1001  CZA1001     0.0003
     18  C12       30.0140   12.7220   10.3610 C.ar  1001  CZA1001    -0.0030
     19  C8        31.2120   11.7620   10.1930 C.ar  1001  CZA1001    -0.0083
     20  C9        32.4140   12.6060    9.7530 C.3   1001  CZA1001     0.0800
     21  C10       32.7250   12.3750    8.2780 C.3   1001  CZA1001     0.0245
     22  C11       32.1760   14.0820   10.0390 C.3   1001  CZA1001     0.0245
     23  N1        33.4400   12.0240   10.6320 N.am  1001  CZA1001    -0.2668
     24  C4        34.6920   11.7380   10.2640 C.2   1001  CZA1001     0.2553
     25  O3        35.3480   12.0640    8.9780 O.2   1001  CZA1001    -0.2697
@<TRIPOS>BOND
     1    21    20    1
     2    25    24    2
     3    20    22    1
     4    20    19    1
     5    20    23    1
     6    19    18   ar
     7    19     8   ar
     8    24    23   am
     9    24     3    1
    10    18    17   ar
    11     6     4    1
    12    23     7    1
    13     8     7    1
    14     8     9   ar
    15     3     4    1
    16     3     2    2
    17    17    16    1
    18    17    13   ar
    19     4     5    2
    20    16    15    2
    21     7     2    1
    22     2     1    1
    23    13     9   ar
    24    13    12    1
    25     9    10    1
    26    15    14    1
    27    12    14    1
    28    12    11    2
    29    10    11    1
