@<TRIPOS>MOLECULE
2o9k_III_B_1.pdb
 50 49 0 0 0
SMALL
GASTEIGER

@<TRIPOS>ATOM
      1  N        -31.1180   28.5300    2.7730 N.3     1  ALA1       -0.1231
      2  CA       -30.5230   28.2100    4.1040 C.3     1  ALA1        0.1694
      3  C        -31.5860   27.9500    5.2100 C.2     1  ALA1        0.2592
      4  O        -32.7910   28.0380    4.9680 O.2     1  ALA1       -0.2718
      5  CB       -29.5520   29.3130    4.5030 C.3     1  ALA1        0.0304
      6  N        -31.1130   27.5990    6.4110 N.am    2  ARG2       -0.1966
      7  CA       -31.9330   27.3640    7.6000 C.3     2  ARG2        0.1729
      8  C        -32.7450   28.6110    7.9790 C.2     2  ARG2        0.2617
      9  O        -33.7810   28.5250    8.6600 O.2     2  ARG2       -0.2715
     10  CB       -31.0260   26.9050    8.7580 C.3     2  ARG2        0.0348
     11  CG       -31.6290   26.9800   10.1760 C.3     2  ARG2        0.0492
     12  CD       -30.5110   26.8830   11.2590 C.3     2  ARG2        0.2205
     13  NE       -29.5790   25.7690   11.0420 N.pl3   2  ARG2       -0.0865
     14  CZ       -29.7620   24.5130   11.4820 C.cat   2  ARG2        0.5346
     15  NH1      -28.8520   23.5730   11.2410 N.pl3   2  ARG2        0.1354
     16  NH2      -30.8400   24.1880   12.1850 N.pl3   2  ARG2        0.1354
     17  N        -32.3060   29.7580    7.4730 N.am    3  THR3       -0.1937
     18  CA       -32.9710   31.0400    7.7590 C.3     3  THR3        0.2028
     19  C        -34.2510   31.2880    6.9220 C.2     3  THR3        0.2642
     20  O        -34.9740   32.2820    7.1360 O.2     3  THR3       -0.2714
     21  CB       -31.9840   32.2100    7.5770 C.3     3  THR3        0.1808
     22  OG1      -31.4690   32.1860    6.2480 O.3     3  THR3       -0.2208
     23  CG2      -30.8200   32.1430    8.6120 C.3     3  THR3        0.0379
     24  N        -34.5260   30.3880    5.9780 N.am    4  LYS4       -0.1963
     25  CA       -35.7500   30.4210    5.1780 C.3     4  LYS4        0.1728
     26  CB       -35.4780   30.4200    3.6660 C.3     4  LYS4        0.0311
     27  CG       -34.7760   31.6690    3.1730 C.3     4  LYS4        0.0037
     28  CD       -35.5400   32.9430    3.5390 C.3     4  LYS4        0.0174
     29  CE       -35.0110   34.1420    2.7430 C.3     4  LYS4        0.0722
     30  NZ       -35.2870   35.3800    3.4870 N.3     4  LYS4       -0.2703
     31  CH1      -34.5000   36.4940    2.9040 C.3     4  LYS4        0.0897
     32  CH2      -36.7270   35.6970    3.4070 C.3     4  LYS4        0.0897
     33  C        -36.5460   29.2050    5.4930 C.2     4  LYS4        0.2616
     34  O        -35.9880   28.1260    5.6410 O.2     4  LYS4       -0.2715
     35  N        -37.8640   29.3320    5.5810 N.am    5  GLN5       -0.1963
     36  CA       -38.6510   28.1450    5.9330 C.3     5  GLN5        0.1733
     37  C        -38.8970   27.2020    4.7540 C.2     5  GLN5        0.2617
     38  O        -39.2190   27.6380    3.6450 O.2     5  GLN5       -0.2715
     39  CB       -39.9260   28.4750    6.7020 C.3     5  GLN5        0.0408
     40  CG       -40.8270   29.5110    6.1120 C.3     5  GLN5        0.0908
     41  CD       -42.2590   29.3350    6.5910 C.2     5  GLN5        0.2608
     42  OE1      -42.9840   30.3070    6.7660 O.2     5  GLN5       -0.2717
     43  NE2      -42.6730   28.0810    6.7980 N.am    5  GLN5       -0.0878
     44  N        -38.6890   25.9090    5.0050 N.am    6  THR6       -0.1951
     45  CA       -38.7180   24.8870    3.9540 C.3     6  THR6        0.1897
     46  C        -39.4460   23.6290    4.4370 C.2     6  THR6        0.2313
     47  O        -39.3870   22.5760    3.7890 O.2     6  THR6       -0.2863
     48  CB       -37.2740   24.5020    3.4540 C.3     6  THR6        0.1794
     49  OG1      -36.5420   23.8680    4.5110 O.3     6  THR6       -0.2208
     50  CG2      -36.4870   25.7370    2.9450 C.3     6  THR6        0.0378
@<TRIPOS>BOND
     1    29    30    1
     2    29    28    1
     3     1     2    1
     4    31    30    1
     5    50    48    1
     6    27    28    1
     7    27    26    1
     8    32    30    1
     9    48    45    1
    10    48    49    1
    11    38    37    2
    12    26    25    1
    13    47    46    2
    14    45    46    1
    15    45    44    1
    16     2     5    1
    17     2     3    1
    18    37    44   am
    19    37    36    1
    20     4     3    2
    21    25    33    1
    22    25    24    1
    23     3     6   am
    24    33    35   am
    25    33    34    2
    26    35    36    1
    27    36    39    1
    28    24    19   am
    29    40    41    1
    30    40    39    1
    31    22    21    1
    32     6     7    1
    33    41    42    2
    34    41    43   am
    35    19    20    2
    36    19    18    1
    37    17    18    1
    38    17     8   am
    39    21    18    1
    40    21    23    1
    41     7     8    1
    42     7    10    1
    43     8     9    2
    44    10    11    1
    45    11    12    1
    46    13    12    1
    47    13    14    2
    48    15    14    1
    49    14    16    1
