@<TRIPOS>MOLECULE
2o9r_TCB_A_1.pdb
 23 24 0 0 0
SMALL
GASTEIGER

@<TRIPOS>ATOM
      1  C1        65.3670   28.9520   38.5140 C.3   500  TCB500      0.1956
      2  C2        66.0880   30.2680   39.0630 C.3   500  TCB500      0.2219
      3  C3        67.6750   30.1560   38.9440 C.3   500  TCB500      0.2181
      4  C4        68.2380   28.7800   39.4850 C.3   500  TCB500      0.2143
      5  C5        67.5450   27.6000   38.6620 C.3   500  TCB500      0.1820
      6  C6        67.8930   26.1240   39.0250 C.3   500  TCB500      0.2142
      7  O2        65.6530   31.3750   38.3430 O.3   500  TCB500     -0.2167
      8  O3        68.2550   31.2380   39.6650 O.3   500  TCB500     -0.2175
      9  O4        69.6200   28.7700   39.3640 O.3   500  TCB500     -0.2176
     10  O5        66.1290   27.7370   38.9250 O.3   500  TCB500     -0.3398
     11  O6        67.1440   25.6890   40.2130 O.3   500  TCB500     -0.2176
     12  C1'       60.2370   26.6000   36.7610 C.3   500  TCB500      0.3022
     13  C2'       61.0690   25.9140   37.9090 C.3   500  TCB500      0.2417
     14  C3'       61.8200   27.0180   38.7870 C.3   500  TCB500      0.1997
     15  C4'       62.7950   27.9300   37.8840 C.3   500  TCB500      0.1128
     16  C5'       61.9080   28.5630   36.6980 C.3   500  TCB500      0.1632
     17  C6'       62.7450   29.2890   35.5370 C.3   500  TCB500      0.2124
     18  O1'       59.5640   25.5990   35.8840 O.3   500  TCB500     -0.1869
     19  O2'       60.2040   25.0870   38.7500 O.3   500  TCB500     -0.2148
     20  O3'       62.5060   26.1530   39.7970 O.3   500  TCB500     -0.2192
     21  S4'       63.6250   29.3140   38.7590 S.3   500  TCB500     -0.1050
     22  O5'       61.1670   27.4660   35.9550 O.3   500  TCB500     -0.3254
     23  O6'       62.5100   28.7650   34.2000 O.3   500  TCB500     -0.2177
@<TRIPOS>BOND
     1    23    17    1
     2    17    16    1
     3    18    12    1
     4    22    16    1
     5    22    12    1
     6    16    15    1
     7    12    13    1
     8    15    21    1
     9    15    14    1
    10    13    19    1
    11    13    14    1
    12     7     2    1
    13     1    21    1
    14     1    10    1
    15     1     2    1
    16     5    10    1
    17     5     6    1
    18     5     4    1
    19    14    20    1
    20     3     2    1
    21     3     4    1
    22     3     8    1
    23     6    11    1
    24     9     4    1
