@<TRIPOS>MOLECULE
2o9t_BGC_A_1.pdb
 12 12 0 0 0
SMALL
GASTEIGER

@<TRIPOS>ATOM
      1  C2        67.1430   31.3900   40.3100 C.3   500  BGC500      0.2434
      2  C3        68.5830   30.9740   40.7270 C.3   500  BGC500      0.2199
      3  C4        68.6690   29.4390   40.5320 C.3   500  BGC500      0.2144
      4  C5        68.2180   28.9870   39.1370 C.3   500  BGC500      0.1836
      5  C6        67.9440   27.4820   39.0890 C.3   500  BGC500      0.2142
      6  C1        66.9360   31.1510   38.8410 C.3   500  BGC500      0.3024
      7  O1        65.6360   31.4780   38.5310 O.3   500  BGC500     -0.1869
      8  O2        67.0810   32.8660   40.4940 O.3   500  BGC500     -0.2148
      9  O3        68.7340   31.2860   42.1620 O.3   500  BGC500     -0.2174
     10  O4        70.0010   29.0050   40.8530 O.3   500  BGC500     -0.2176
     11  O5        66.9670   29.6740   38.8340 O.3   500  BGC500     -0.3236
     12  O6        67.5100   27.1790   37.7700 O.3   500  BGC500     -0.2176
@<TRIPOS>BOND
     1    12     5    1
     2     7     6    1
     3    11     6    1
     4    11     4    1
     5     6     1    1
     6     5     4    1
     7     4     3    1
     8     1     8    1
     9     1     2    1
    10     3     2    1
    11     3    10    1
    12     2     9    1
