@<TRIPOS>MOLECULE
2oa0_ADP_A_1.pdb
 27 29 0 0 0
SMALL
GASTEIGER

@<TRIPOS>ATOM
      1  PB        26.3410   -3.2010   58.2110 P.3   1002  ADP1002     0.5373
      2  O1B       26.9000   -2.6990   59.5310 O.3   1002  ADP1002    -0.1143
      3  O2B       26.0350   -4.6930   58.1370 O.3   1002  ADP1002    -0.1143
      4  O3B       27.0640   -2.6790   56.9800 O.2   1002  ADP1002    -0.2221
      5  PA        23.7420   -3.3820   58.6480 P.3   1002  ADP1002     0.2231
      6  O1A       23.6200   -4.5580   57.6950 O.2   1002  ADP1002    -0.5169
      7  O2A       22.5790   -2.4560   58.9140 O.3   1002  ADP1002    -0.4370
      8  O3A       24.9260   -2.4650   58.1410 O.3   1002  ADP1002    -0.2261
      9  O5'       24.3570   -3.8860   60.0580 O.3   1002  ADP1002    -0.3111
     10  C5'       24.2080   -3.0790   61.2290 C.3   1002  ADP1002     0.1813
     11  C4'       24.8520   -3.7320   62.4430 C.3   1002  ADP1002     0.1821
     12  O4'       24.1440   -4.8960   62.8750 O.3   1002  ADP1002    -0.3135
     13  C3'       26.2610   -4.2030   62.1600 C.3   1002  ADP1002     0.2184
     14  O3'       27.1660   -3.1350   62.4080 O.3   1002  ADP1002    -0.2174
     15  C2'       26.4670   -5.2630   63.2070 C.3   1002  ADP1002     0.2570
     16  O2'       27.0170   -4.5940   64.3610 O.3   1002  ADP1002    -0.2130
     17  C1'       25.0630   -5.8190   63.4870 C.3   1002  ADP1002     0.3186
     18  N9        24.8630   -7.1940   62.9260 N.pl3 1002  ADP1002    -0.1439
     19  C8        24.9710   -7.4920   61.6270 C.3   1002  ADP1002     0.3377
     20  N7        24.7210   -8.8050   61.4170 N.2   1002  ADP1002    -0.2095
     21  C5        24.4430   -9.3750   62.5920 C.2   1002  ADP1002     0.2526
     22  C6        24.0960  -10.7420   63.0320 C.2   1002  ADP1002     0.4393
     23  N6        24.0080  -11.7490   62.1230 N.pl3 1002  ADP1002     0.2180
     24  N1        23.8670  -10.9420   64.3530 N.2   1002  ADP1002     0.0021
     25  C2        23.9610   -9.9130   65.2180 C.3   1002  ADP1002     0.5254
     26  N3        24.2770   -8.6400   64.8720 N.2   1002  ADP1002    -0.0055
     27  C4        24.5320   -8.3110   63.5900 C.2   1002  ADP1002     0.3518
@<TRIPOS>BOND
     1     4     1    2
     2     6     5    2
     3     3     1    1
     4     8     1    1
     5     8     5    1
     6     1     2    1
     7     5     7    1
     8     5     9    1
     9     9    10    1
    10    10    11    1
    11    20    19    1
    12    20    21    2
    13    19    18    1
    14    23    22    1
    15    13    14    1
    16    13    11    1
    17    13    15    1
    18    11    12    1
    19    21    22    1
    20    21    27    1
    21    12    17    1
    22    18    17    1
    23    18    27    1
    24    22    24    2
    25    15    17    1
    26    15    16    1
    27    27    26    2
    28    24    25    1
    29    26    25    1
