@<TRIPOS>MOLECULE
2oa0_CZA_A_1.pdb
 25 29 0 0 0
SMALL
GASTEIGER

@<TRIPOS>ATOM
      1  O2        26.0510  -15.6970   15.5980 O.2   1001  CZA1001    -0.2893
      2  C6        25.9830  -15.2990   14.3690 C.2   1001  CZA1001     0.1984
      3  C3        27.2210  -15.1870   13.5350 C.2   1001  CZA1001     0.1244
      4  C2        28.6450  -15.5200   13.8350 C.2   1001  CZA1001     0.1807
      5  O1        29.1390  -15.1890   14.9050 O.2   1001  CZA1001    -0.2911
      6  C1        29.4160  -16.2470   12.7670 C.3   1001  CZA1001     0.0775
      7  C5        24.6980  -14.8340   13.7790 C.3   1001  CZA1001     0.1412
      8  C7        23.6280  -15.7310   13.1760 C.3   1001  CZA1001     0.0478
      9  C15       22.5440  -16.0370   14.1380 C.2   1001  CZA1001    -0.0172
     10  C16       22.5630  -16.9440   15.1770 C.3   1001  CZA1001     0.1477
     11  N2        21.3140  -16.8270   15.7260 N.2   1001  CZA1001    -0.2660
     12  C17       20.5720  -15.9020   15.0600 C.ar  1001  CZA1001     0.0755
     13  C14       21.3550  -15.3910   14.0340 C.ar  1001  CZA1001     0.0073
     14  C18       19.2740  -15.4100   15.2000 C.ar  1001  CZA1001     0.0186
     15  C19       18.8160  -14.4280   14.3120 C.ar  1001  CZA1001     0.0012
     16  C20       19.6330  -13.9330   13.2860 C.ar  1001  CZA1001    -0.0042
     17  C13       20.9260  -14.4330   13.1510 C.ar  1001  CZA1001    -0.0212
     18  C12       21.9050  -13.9840   12.0900 C.3   1001  CZA1001     0.0283
     19  C8        23.1420  -14.9010   11.9490 C.3   1001  CZA1001     0.0269
     20  C9        24.3380  -14.0470   11.5030 C.3   1001  CZA1001     0.0617
     21  C10       24.7620  -14.4110   10.0920 C.3   1001  CZA1001     0.0199
     22  C11       24.0610  -12.5540   11.5980 C.3   1001  CZA1001     0.0199
     23  N1        25.3400  -14.4770   12.4980 N.am  1001  CZA1001    -0.2733
     24  C4        26.6480  -14.6620   12.2700 C.2   1001  CZA1001     0.2549
     25  O3        27.4240  -14.3620   11.0450 O.2   1001  CZA1001    -0.2697
@<TRIPOS>BOND
     1    21    20    1
     2    25    24    2
     3    20    22    1
     4    20    19    1
     5    20    23    1
     6    19    18    1
     7    19     8    1
     8    18    17    1
     9    24    23   am
    10    24     3    1
    11    23     7    1
    12     6     4    1
    13    17    16   ar
    14    17    13   ar
    15     8     7    1
    16     8     9    1
    17    16    15   ar
    18     3     4    1
    19     3     2    2
    20     7     2    1
    21     4     5    2
    22    13     9    2
    23    13    12   ar
    24     9    10    1
    25    15    14   ar
    26     2     1    1
    27    12    14   ar
    28    12    11    2
    29    10    11    1
