@<TRIPOS>MOLECULE
2oa1_ADN_B_1.pdb
 19 21 0 0 0
SMALL
GASTEIGER

@<TRIPOS>ATOM
      1  O5'       -2.4680   41.3600  -45.9580 O.3   2005  ADN2005    -0.2176
      2  C5'       -3.0460   41.7450  -47.2250 C.3   2005  ADN2005     0.2143
      3  C4'       -3.9760   40.6610  -47.8020 C.3   2005  ADN2005     0.1851
      4  O4'       -5.2760   41.2310  -48.0460 O.3   2005  ADN2005    -0.3134
      5  C3'       -3.5360   40.1400  -49.1720 C.3   2005  ADN2005     0.2186
      6  O3'       -3.9150   38.7800  -49.3930 O.3   2005  ADN2005    -0.2174
      7  C2'       -4.4160   40.8810  -50.1430 C.3   2005  ADN2005     0.2570
      8  O2'       -4.5130   40.2170  -51.4140 O.3   2005  ADN2005    -0.2130
      9  C1'       -5.7340   40.9840  -49.3820 C.3   2005  ADN2005     0.3186
     10  N9        -6.4330   42.1120  -50.0440 N.pl3 2005  ADN2005    -0.1439
     11  C8        -6.2380   43.4190  -49.7600 C.3   2005  ADN2005     0.3377
     12  N7        -6.9660   44.2150  -50.5890 N.2   2005  ADN2005    -0.2095
     13  C5        -7.6420   43.3990  -51.4320 C.2   2005  ADN2005     0.2526
     14  C6        -8.5970   43.5980  -52.5550 C.2   2005  ADN2005     0.4393
     15  N6        -8.9810   44.8510  -52.9420 N.pl3 2005  ADN2005     0.2180
     16  N1        -9.0550   42.4840  -53.1590 N.2   2005  ADN2005     0.0021
     17  C2        -8.6730   41.2460  -52.7880 C.3   2005  ADN2005     0.5254
     18  N3        -7.8190   40.9950  -51.7850 N.2   2005  ADN2005    -0.0055
     19  C4        -7.2780   42.0150  -51.0800 C.2   2005  ADN2005     0.3518
@<TRIPOS>BOND
     1    16    17    1
     2    16    14    2
     3    15    14    1
     4    17    18    1
     5    14    13    1
     6    18    19    2
     7    13    19    1
     8    13    12    2
     9     8     7    1
    10    19    10    1
    11    12    11    1
    12     7     9    1
    13     7     5    1
    14    10    11    1
    15    10     9    1
    16     6     5    1
    17     9     4    1
    18     5     3    1
    19     4     3    1
    20     3     2    1
    21     2     1    1
