@<TRIPOS>MOLECULE
2oa1_TRP_A_1.pdb
 15 16 0 0 0
SMALL
GASTEIGER

@<TRIPOS>ATOM
      1  N        -18.9640   25.3670   -7.3190 N.3   2002  TRP2002    -0.1205
      2  CA       -20.0110   24.8180   -6.4040 C.3   2002  TRP2002     0.1987
      3  C        -19.9300   23.2780   -6.3740 C.2   2002  TRP2002     0.3822
      4  O        -19.9370   22.6260   -7.4360 O.co2 2002  TRP2002    -0.2440
      5  CB       -21.4130   25.2930   -6.8180 C.3   2002  TRP2002     0.0585
      6  CG       -22.5640   24.9400   -5.7990 C.2   2002  TRP2002     0.0001
      7  CD1      -22.9130   25.6480   -4.6750 C.2   2002  TRP2002     0.0946
      8  CD2      -23.4870   23.8320   -5.8670 C.2   2002  TRP2002     0.0113
      9  NE1      -23.9910   25.0570   -4.0380 N.2   2002  TRP2002    -0.2442
     10  CE2      -24.3670   23.9430   -4.7420 C.2   2002  TRP2002     0.0804
     11  CE3      -23.6630   22.7570   -6.7670 C.2   2002  TRP2002    -0.0202
     12  CZ2      -25.4030   23.0050   -4.4800 C.2   2002  TRP2002     0.0148
     13  CZ3      -24.7090   21.8160   -6.5080 C.3   2002  TRP2002     0.0521
     14  CH2      -25.5600   21.9580   -5.3760 C.2   2002  TRP2002    -0.0199
     15  OXT      -19.8410   22.6840   -5.2850 O.co2 2002  TRP2002    -0.2440
@<TRIPOS>BOND
     1     4     3   ar
     2     1     2    1
     3     5     2    1
     4     5     6    1
     5    11    13    1
     6    11     8    2
     7    13    14    1
     8     2     3    1
     9     3    15   ar
    10     8     6    1
    11     8    10    1
    12     6     7    2
    13    14    12    2
    14    10    12    1
    15    10     9    2
    16     7     9    1
