@<TRIPOS>MOLECULE
2oa7_GTX_A_1.pdb
 26 25 0 0 0
SMALL
GASTEIGER

@<TRIPOS>ATOM
      1  N1       105.7330    0.7420    8.1820 N.3   301  GTX301     -0.1208
      2  CA1      104.8240   -0.2700    7.6160 C.3   301  GTX301      0.1948
      3  C1       105.4370   -1.6410    7.7210 C.2   301  GTX301      0.3819
      4  O11      106.4370   -1.9110    7.0820 O.co2 301  GTX301     -0.2441
      5  O12      104.8690   -2.5740    8.5210 O.co2 301  GTX301     -0.2441
      6  CB1      104.4900    0.0240    6.1350 C.3   301  GTX301      0.0402
      7  CG1      103.8790    1.4300    5.9740 C.3   301  GTX301      0.0889
      8  CD1      103.5260    1.7350    4.5250 C.2   301  GTX301      0.2418
      9  OE1      103.7220    0.8960    3.6610 O.2   301  GTX301     -0.2733
     10  N2       102.9930    2.9560    4.1980 N.am  301  GTX301     -0.1969
     11  CA2      102.6540    3.2930    2.7960 C.3   301  GTX301      0.1834
     12  C2       103.8460    3.9490    2.1160 C.2   301  GTX301      0.2626
     13  O2       104.6780    4.5450    2.7920 O.2   301  GTX301     -0.2714
     14  CB2      101.5520    4.3260    2.6640 C.3   301  GTX301      0.0886
     15  SG2       99.9300    3.9500    3.3720 S.3   301  GTX301     -0.1379
     16  C1S       99.3090    5.5410    2.7430 C.3   301  GTX301      0.0576
     17  C2S       97.8550    5.8760    3.0270 C.3   301  GTX301      0.0116
     18  C3S       97.6540    7.2570    2.3670 C.3   301  GTX301      0.0009
     19  C4S       96.2320    7.7630    2.5530 C.3   301  GTX301      0.0000
     20  C5S       96.0760    9.1370    1.8800 C.3   301  GTX301      0.0000
     21  C6S       94.6410    9.6530    2.0610 C.3   301  GTX301      0.0000
     22  N3       103.9710    3.8890    0.7590 N.am  301  GTX301     -0.1917
     23  CA3      105.1080    4.5230    0.0720 C.3   301  GTX301      0.2285
     24  C3       105.0120    4.3200   -1.4020 C.2   301  GTX301      0.3865
     25  O31      104.0840    3.7040   -1.8710 O.co2 301  GTX301     -0.2437
     26  O32      105.9540    4.8240   -2.2090 O.co2 301  GTX301     -0.2437
@<TRIPOS>BOND
     1    26    24   ar
     2    25    24   ar
     3    24    23    1
     4    23    22    1
     5    22    12   am
     6    20    21    1
     7    20    19    1
     8    12    13    2
     9    12    11    1
    10    18    19    1
    11    18    17    1
    12    14    11    1
    13    14    15    1
    14    16    17    1
    15    16    15    1
    16    11    10    1
    17     9     8    2
    18    10     8   am
    19     8     7    1
    20     7     6    1
    21     6     2    1
    22     4     3   ar
    23     2     3    1
    24     2     1    1
    25     3     5   ar
