@<TRIPOS>MOLECULE
2oac_GTB_A_1.pdb
 30 30 0 0 0
SMALL
GASTEIGER

@<TRIPOS>ATOM
      1  N1        23.6400    8.7310  -16.3630 N.3   301  GTB301     -0.1208
      2  CA1       23.7670   10.1140  -16.6770 C.3   301  GTB301      0.1948
      3  C1        22.2710   10.5080  -16.5630 C.2   301  GTB301      0.3819
      4  O11       21.9940   11.6620  -16.2730 O.co2 301  GTB301     -0.2441
      5  O12       21.3730    9.6760  -16.7410 O.co2 301  GTB301     -0.2441
      6  CB1       24.3060   10.2710  -18.0920 C.3   301  GTB301      0.0402
      7  CG1       24.5050   11.7530  -18.4170 C.3   301  GTB301      0.0889
      8  CD1       25.0840   12.0640  -19.7930 C.2   301  GTB301      0.2418
      9  OE1       25.3750   11.2010  -20.6390 O.2   301  GTB301     -0.2733
     10  N2        25.2350   13.3790  -19.9190 N.am  301  GTB301     -0.1969
     11  CA2       25.8240   14.0270  -21.1000 C.3   301  GTB301      0.1834
     12  C2        26.9570   14.9300  -20.6700 C.2   301  GTB301      0.2626
     13  O2        26.8010   15.5800  -19.6160 O.2   301  GTB301     -0.2714
     14  CB2       24.7840   14.8540  -21.8410 C.3   301  GTB301      0.0889
     15  SG2       23.3780   13.8660  -22.4820 S.3   301  GTB301     -0.1331
     16  N3        28.0790   15.0030  -21.4370 N.am  301  GTB301     -0.1917
     17  CA3       29.1800   15.8890  -21.0480 C.3   301  GTB301      0.2285
     18  C3        30.4580   15.1790  -20.6420 C.2   301  GTB301      0.3865
     19  O31       31.4950   15.8630  -20.6270 O.co2 301  GTB301     -0.2437
     20  O32       30.4180   13.9680  -20.3330 O.co2 301  GTB301     -0.2437
     21  C'        24.0260   13.5760  -24.1750 C.3   301  GTB301      0.0838
     22  C1'       24.3840   14.8820  -24.8810 C.ar  301  GTB301     -0.0112
     23  C2'       23.3650   15.8390  -25.0820 C.ar  301  GTB301     -0.0017
     24  C3'       23.6560   17.0590  -25.7050 C.ar  301  GTB301      0.0238
     25  C4'       24.9700   17.3400  -26.1530 C.ar  301  GTB301      0.1429
     26  N41       25.2570   18.6550  -26.8110 N.pl3 301  GTB301      0.0577
     27  O41       24.3820   19.4920  -26.9830 O.2   301  GTB301     -0.1261
     28  O42       26.3790   18.8990  -27.1910 O.2   301  GTB301     -0.1261
     29  C5'       26.0010   16.3750  -25.9550 C.ar  301  GTB301      0.0238
     30  C6'       25.7060   15.1440  -25.3240 C.ar  301  GTB301     -0.0017
@<TRIPOS>BOND
     1    28    26    2
     2    27    26    2
     3    26    25    1
     4    25    29   ar
     5    25    24   ar
     6    29    30   ar
     7    24    23   ar
     8    30    22   ar
     9    23    22   ar
    10    22    21    1
    11    21    15    1
    12    15    14    1
    13    14    11    1
    14    16    17    1
    15    16    12   am
    16    11    12    1
    17    11    10    1
    18    17    18    1
    19    12    13    2
    20    18    19   ar
    21    18    20   ar
    22     9     8    2
    23    10     8   am
    24     8     7    1
    25     7     6    1
    26     6     2    1
    27     5     3   ar
    28     2     3    1
    29     2     1    1
    30     3     4   ar
