@<TRIPOS>MOLECULE
2oad_GTB_A_1.pdb
 30 30 0 0 0
SMALL
GASTEIGER

@<TRIPOS>ATOM
      1  N1         7.9220    4.0630  -16.8970 N.3   210  GTB210     -0.1208
      2  CA1        7.9390    5.4740  -16.7560 C.3   210  GTB210      0.1948
      3  C1         7.8470    5.5380  -15.2300 C.2   210  GTB210      0.3819
      4  O11        8.3470    6.5050  -14.6590 O.co2 210  GTB210     -0.2441
      5  O12        7.2700    4.6270  -14.5720 O.co2 210  GTB210     -0.2441
      6  CB1        6.7070    6.0480  -17.4240 C.3   210  GTB210      0.0402
      7  CG1        6.7030    7.5770  -17.3530 C.3   210  GTB210      0.0889
      8  CD1        5.5070    8.2590  -18.0060 C.2   210  GTB210      0.2418
      9  OE1        4.5850    7.6460  -18.5460 O.2   210  GTB210     -0.2733
     10  N2         5.6380    9.5920  -17.9000 N.am  210  GTB210     -0.1969
     11  CA2        4.6810   10.5700  -18.4490 C.3   210  GTB210      0.1834
     12  C2         5.3960   11.6430  -19.2550 C.2   210  GTB210      0.2626
     13  O2         6.5050   12.0170  -18.8270 O.2   210  GTB210     -0.2714
     14  CB2        3.9230   11.3010  -17.3360 C.3   210  GTB210      0.0889
     15  SG2        2.9290   10.2570  -16.2160 S.3   210  GTB210     -0.1331
     16  N3         4.8050   12.1480  -20.3620 N.am  210  GTB210     -0.1917
     17  CA3        5.4660   13.2050  -21.1410 C.3   210  GTB210      0.2285
     18  C3         5.9790   12.7320  -22.4860 C.2   210  GTB210      0.3865
     19  O31        6.2880   13.6060  -23.3110 O.co2 210  GTB210     -0.2437
     20  O32        6.0770   11.5090  -22.6980 O.co2 210  GTB210     -0.2437
     21  C'         1.3270   10.4710  -17.0870 C.3   210  GTB210      0.0838
     22  C1'        0.9610   11.9510  -17.2520 C.ar  210  GTB210     -0.0112
     23  C2'        0.7200   12.7240  -16.0970 C.ar  210  GTB210     -0.0017
     24  C3'        0.3970   14.0870  -16.2100 C.ar  210  GTB210      0.0238
     25  C4'        0.3290   14.7020  -17.4920 C.ar  210  GTB210      0.1429
     26  N41       -0.0080   16.1690  -17.6040 N.pl3 210  GTB210      0.0577
     27  O41       -0.2120   16.8520  -16.6110 O.2   210  GTB210     -0.1261
     28  O42       -0.0650   16.6850  -18.6980 O.2   210  GTB210     -0.1261
     29  C5'        0.5640   13.9150  -18.6640 C.ar  210  GTB210      0.0238
     30  C6'        0.8880   12.5450  -18.5420 C.ar  210  GTB210     -0.0017
@<TRIPOS>BOND
     1    19    18   ar
     2    20    18   ar
     3    18    17    1
     4    17    16    1
     5    16    12   am
     6    12    13    2
     7    12    11    1
     8    28    26    2
     9    29    30   ar
    10    29    25   ar
    11     9     8    2
    12    30    22   ar
    13    11    10    1
    14    11    14    1
    15     8    10   am
    16     8     7    1
    17    26    25    1
    18    26    27    2
    19    25    24   ar
    20     6     7    1
    21     6     2    1
    22    14    15    1
    23    22    21    1
    24    22    23   ar
    25    21    15    1
    26     1     2    1
    27     2     3    1
    28    24    23   ar
    29     3     4   ar
    30     3     5   ar
