@<TRIPOS>MOLECULE
2oae_AIL_A_1.pdb
 21 23 0 0 0
SMALL
GASTEIGER

@<TRIPOS>ATOM
      1  C1        11.9760   36.6270  -79.7070 C.3   901  AIL901      0.0910
      2  N2        12.6850   36.2650  -80.9240 N.3   901  AIL901     -0.2102
      3  C3        13.0600   37.4890  -81.6450 C.3   901  AIL901      0.1490
      4  C4        13.0730   38.5350  -80.5380 C.3   901  AIL901      0.0299
      5  C5        11.8630   38.1470  -79.7350 C.3   901  AIL901      0.0410
      6  C6        11.8550   38.7580  -78.3280 C.3   901  AIL901      0.1170
      7  C7        14.4230   37.1660  -82.2840 C.2   901  AIL901      0.2421
      8  O8        14.9810   36.1390  -81.8970 O.2   901  AIL901     -0.2733
      9  N9        14.9480   38.0040  -83.2310 N.am  901  AIL901     -0.2678
     10  C10       16.2460   37.6740  -83.8320 C.3   901  AIL901      0.1059
     11  C11       16.4720   38.5140  -85.0780 C.3   901  AIL901      0.0807
     12  S12       15.4210   39.9470  -84.9440 S.3   901  AIL901     -0.1168
     13  C13       14.3200   39.2390  -83.7220 C.3   901  AIL901      0.1523
     14  N14       10.6500   38.3070  -77.6610 N.am  901  AIL901     -0.2006
     15  C15       10.6950   37.6150  -76.4920 C.2   901  AIL901      0.2789
     16  O16       11.7480   37.3220  -75.9140 O.2   901  AIL901     -0.2671
     17  N17        8.2340   37.5260  -76.5710 N.2   901  AIL901     -0.2573
     18  C18        7.1490   37.0660  -75.8960 C.3   901  AIL901      0.1831
     19  S19        7.6000   36.2540  -74.4840 S.3   901  AIL901     -0.1076
     20  C20        9.2390   36.5160  -74.7740 C.3   901  AIL901      0.1094
     21  C21        9.4510   37.2360  -75.9700 C.2   901  AIL901      0.1204
@<TRIPOS>BOND
     1    11    12    1
     2    11    10    1
     3    12    13    1
     4    10     9    1
     5    13     9    1
     6     9     7   am
     7     7     8    2
     8     7     3    1
     9     3     2    1
    10     3     4    1
    11     2     1    1
    12     4     5    1
    13     5     1    1
    14     5     6    1
    15     6    14    1
    16    14    15   am
    17    17    21    2
    18    17    18    1
    19    15    21    1
    20    15    16    2
    21    21    20    1
    22    18    19    1
    23    20    19    1
