@<TRIPOS>MOLECULE
2oag_DLI_B_1.pdb
 31 34 0 0 0
SMALL
GASTEIGER

@<TRIPOS>ATOM
      1  C4        29.1900    5.8310   62.5430 C.ar  4000  DLI4000     0.1387
      2  C5        27.8630    6.3340   62.4280 C.ar  4000  DLI4000     0.0612
      3  C6        27.6120    7.6900   62.8170 C.ar  4000  DLI4000     0.1696
      4  C7        31.6200    6.0610   63.1460 C.3   4000  DLI4000     0.0930
      5  C8        32.8450    6.8000   62.7240 C.3   4000  DLI4000     0.2079
      6  C10       42.7350    4.6720   62.4390 C.3   4000  DLI4000     0.1816
      7  C17       36.8490    6.6850   61.6130 C.3   4000  DLI4000     0.3911
      8  C20       36.0980    5.2160   63.7830 C.3   4000  DLI4000     0.1620
      9  C21       38.4860    4.3830   64.1240 C.ar  4000  DLI4000     0.0152
     10  C24       39.1460    2.8410   65.9650 C.ar  4000  DLI4000     0.0014
     11  C26       40.8100    3.6080   64.3630 C.ar  4000  DLI4000     0.1058
     12  C1        28.6710    8.5100   63.3150 C.ar  4000  DLI4000     0.1672
     13  C2        29.9800    8.0000   63.4200 C.ar  4000  DLI4000     0.0301
     14  C3        30.2380    6.6510   63.0420 C.ar  4000  DLI4000     0.0129
     15  C9        31.8210    5.5040   64.5730 C.3   4000  DLI4000     0.1464
     16  F10       29.5310    4.5600   62.1920 F     4000  DLI4000    -0.2044
     17  N11       33.8410    5.9990   63.4380 N.pl3 4000  DLI4000    -0.1923
     18  C12       33.3070    5.1990   64.5720 C.3   4000  DLI4000     0.2214
     19  F13       26.3540    8.1500   62.7030 F     4000  DLI4000    -0.2017
     20  C14       35.1670    5.9850   63.0510 C.2   4000  DLI4000     0.3031
     21  F15       28.5710    9.7940   63.7170 F     4000  DLI4000    -0.2018
     22  N16       35.5430    6.7410   61.9760 N.2   4000  DLI4000    -0.0407
     23  N18       37.7890    5.9640   62.2640 N.2   4000  DLI4000    -0.2225
     24  C19       37.4370    5.1860   63.3820 C.2   4000  DLI4000     0.0704
     25  N22       30.9090    4.3720   64.7820 N.3   4000  DLI4000    -0.1280
     26  C23       38.1700    3.5970   65.2790 C.ar  4000  DLI4000     0.0013
     27  C25       40.4720    2.8420   65.5060 C.ar  4000  DLI4000     0.0183
     28  C27       39.8280    4.3670   63.6860 C.ar  4000  DLI4000     0.0195
     29  S1        42.5030    3.5570   63.8240 S.O2  4000  DLI4000     0.0104
     30  O2        42.7410    2.2190   63.3630 O.2   4000  DLI4000    -0.1686
     31  O1        43.2980    4.0420   64.9110 O.2   4000  DLI4000    -0.1686
@<TRIPOS>BOND
     1     7    22    1
     2     7    23    1
     3    22    20    2
     4    16     1    1
     5    23    24    2
     6     2     1   ar
     7     2     3   ar
     8     6    29    1
     9     1    14   ar
    10    19     3    1
    11     5     4    1
    12     5    17    1
    13     3    12   ar
    14    14     4    1
    15    14    13   ar
    16    20    17    1
    17    20     8    1
    18     4    15    1
    19    12    13   ar
    20    12    21    1
    21    30    29    2
    22    24     8    1
    23    24     9    1
    24    17    18    1
    25    28     9   ar
    26    28    11   ar
    27    29    11    1
    28    29    31    2
    29     9    26   ar
    30    11    27   ar
    31    18    15    1
    32    15    25    1
    33    26    10   ar
    34    27    10   ar
