@<TRIPOS>MOLECULE
2oah_QIN_A_1.pdb
 34 36 0 0 0
SMALL
GASTEIGER

@<TRIPOS>ATOM
      1  C15       30.1940   43.6350    1.6580 C.2   902  QIN902      0.1820
      2  C16       30.7200   42.3120    1.5090 C.3   902  QIN902      0.1074
      3  C17       29.8290   41.3050    1.0130 C.2   902  QIN902      0.0452
      4  C18       28.4860   41.5920    0.6540 C.2   902  QIN902      0.0500
      5  C19       27.9940   42.9310    0.8210 C.2   902  QIN902      0.2027
      6  N3        28.8720   43.8650    1.3240 N.2   902  QIN902     -0.3733
      7  N4        26.6740   43.2650    0.5240 N.pl3 902  QIN902     -0.1660
      8  S1        25.9510   44.6060    1.1380 S.O2  902  QIN902      0.0607
      9  O1        24.5700   44.4920    0.7610 O.2   902  QIN902     -0.1542
     10  C29       25.9500   42.5710   -0.5630 C.3   902  QIN902      0.1415
     11  C34       30.2780   39.9190    0.8510 C.2   902  QIN902      0.2614
     12  N35       30.8860   39.4010    1.9370 N.am  902  QIN902     -0.2019
     13  C36       31.7120   38.1890    1.9370 C.3   902  QIN902      0.1174
     14  C28       31.0430   37.1520    2.8740 C.3   902  QIN902      0.1120
     15  C56       33.1150   38.5520    2.4460 C.3   902  QIN902      0.0500
     16  O4        30.1170   39.2800   -0.1710 O.2   902  QIN902     -0.2687
     17  C22       26.6280   46.0610    0.3270 C.3   902  QIN902      0.1999
     18  O2        26.2800   44.6880    2.5140 O.2   902  QIN902     -0.1542
     19  C61       34.0190   39.7650    0.2360 C.ar  902  QIN902      0.0033
     20  C62       33.7700   39.7160    1.6800 C.ar  902  QIN902     -0.0134
     21  C63       34.1750   40.9760    2.2850 C.ar  902  QIN902      0.0312
     22  S2        34.8070   42.0190    1.0610 S.2   902  QIN902     -0.0863
     23  C64       34.5650   40.9450   -0.2380 C.ar  902  QIN902      0.0351
     24  C8        29.6730   36.7230    2.3350 C.3   902  QIN902      0.0208
     25  N1        30.7930   37.8100    4.1610 N.3   902  QIN902     -0.1311
     26  C10       29.7320   35.9020    1.0580 C.3   902  QIN902      0.0015
     27  C11       28.3310   35.3670    0.7450 C.3   902  QIN902      0.0000
     28  C13       28.4240   34.3050   -0.3370 C.3   902  QIN902      0.0000
     29  N2        30.9880   44.7510    2.0730 N.pl3 902  QIN902     -0.2132
     30  C5        32.4190   44.6250    2.4680 C.3   902  QIN902      0.1145
     31  C1        33.8230   44.0170    4.5130 C.3   902  QIN902      0.0018
     32  C2        32.6220   44.7900    5.0440 C.3   902  QIN902      0.0018
     33  C3        32.5040   43.9550    3.8010 C.3   902  QIN902      0.0217
     34  C4        32.0480   44.2910    6.3270 C.3   902  QIN902      0.0001
@<TRIPOS>BOND
     1    10     7    1
     2    28    27    1
     3    23    19   ar
     4    23    22   ar
     5    16    11    2
     6    19    20   ar
     7    17     8    1
     8     7     5    1
     9     7     8    1
    10     4     5    1
    11     4     3    2
    12    27    26    1
    13     9     8    2
    14     5     6    2
    15    11     3    1
    16    11    12   am
    17     3     2    1
    18    26    24    1
    19    22    21   ar
    20     8    18    2
    21     6     1    2
    22     2     1    1
    23     1    29    1
    24    20    21   ar
    25    20    15    1
    26    13    12    1
    27    13    15    1
    28    13    14    1
    29    29    30    1
    30    24    14    1
    31    30    33    1
    32    14    25    1
    33    33    31    1
    34    33    32    1
    35    31    32    1
    36    32    34    1
