@<TRIPOS>MOLECULE
2oan_ATP_A_1.pdb
 31 33 0 0 0
SMALL
GASTEIGER

@<TRIPOS>ATOM
      1  PG        54.6630  -20.4970  -13.8010 P.3   501  ATP501      0.5373
      2  O1G       53.6320  -19.4830  -13.4420 O.3   501  ATP501     -0.1143
      3  O2G       54.4820  -21.8580  -13.1690 O.3   501  ATP501     -0.1143
      4  O3G       56.0630  -19.9600  -13.6910 O.2   501  ATP501     -0.2221
      5  PB        54.0110  -19.6960  -16.5120 P.3   501  ATP501      0.2277
      6  O1B       54.1920  -18.3120  -15.9790 O.3   501  ATP501     -0.4368
      7  O2B       54.6700  -20.0840  -17.8190 O.2   501  ATP501     -0.5168
      8  O3B       54.5370  -20.7480  -15.3960 O.3   501  ATP501     -0.2258
      9  PA        51.2050  -19.5780  -17.2890 P.3   501  ATP501      0.2189
     10  O1A       50.1580  -18.9820  -16.3600 O.3   501  ATP501     -0.4371
     11  O2A       51.7180  -18.7220  -18.4210 O.2   501  ATP501     -0.5170
     12  O3A       52.4580  -20.1690  -16.4710 O.3   501  ATP501     -0.2700
     13  O5'       50.4810  -20.9220  -17.8200 O.3   501  ATP501     -0.3112
     14  C5'       51.1340  -21.9550  -18.5640 C.3   501  ATP501      0.1813
     15  C4'       50.4650  -23.3070  -18.2850 C.3   501  ATP501      0.1821
     16  O4'       49.0310  -23.2150  -18.3290 O.3   501  ATP501     -0.3135
     17  C3'       50.8740  -24.3460  -19.3150 C.3   501  ATP501      0.2184
     18  O3'       51.4090  -25.4960  -18.6470 O.3   501  ATP501     -0.2174
     19  C2'       49.5990  -24.6110  -20.1060 C.3   501  ATP501      0.2570
     20  O2'       49.4800  -25.9390  -20.5930 O.3   501  ATP501     -0.2130
     21  C1'       48.4850  -24.2440  -19.1520 C.3   501  ATP501      0.3186
     22  N9        47.2670  -23.7990  -19.9010 N.pl3 501  ATP501     -0.1439
     23  C8        47.1700  -22.7880  -20.7850 C.3   501  ATP501      0.3377
     24  N7        45.9070  -22.6910  -21.2820 N.2   501  ATP501     -0.2095
     25  C5        45.1610  -23.6460  -20.7150 C.2   501  ATP501      0.2526
     26  C6        43.7540  -24.1040  -20.7910 C.2   501  ATP501      0.4393
     27  N6        42.8400  -23.5010  -21.5970 N.pl3 501  ATP501      0.2180
     28  N1        43.3930  -25.1510  -20.0060 N.2   501  ATP501      0.0021
     29  C2        44.2710  -25.7770  -19.2030 C.3   501  ATP501      0.5254
     30  N3        45.5560  -25.4120  -19.0980 N.2   501  ATP501     -0.0055
     31  C4        46.0550  -24.3750  -19.8070 C.2   501  ATP501      0.3518
@<TRIPOS>BOND
     1    27    26    1
     2    24    23    1
     3    24    25    2
     4    26    25    1
     5    26    28    2
     6    23    22    1
     7    25    31    1
     8    20    19    1
     9    19    17    1
    10    19    21    1
    11    28    29    1
    12    22    31    1
    13    22    21    1
    14    31    30    2
    15    17    18    1
    16    17    15    1
    17    29    30    1
    18    21    16    1
    19    14    15    1
    20    14    13    1
    21    11     9    2
    22    16    15    1
    23    13     9    1
    24     7     5    2
    25     9    12    1
    26     9    10    1
    27     5    12    1
    28     5     6    1
    29     5     8    1
    30     8     1    1
    31     1     4    2
    32     1     2    1
    33     1     3    1
