@<TRIPOS>MOLECULE
2oap_ANP_1_1.pdb
 31 33 0 0 0
SMALL
GASTEIGER

@<TRIPOS>ATOM
      1  PG        31.4800   60.6860  171.7080 P.3   512  ANP512      0.4884
      2  O1G       31.7260   61.8430  170.7420 O.2   512  ANP512     -0.2331
      3  O2G       32.5600   60.3820  172.7240 O.3   512  ANP512     -0.1240
      4  O3G       30.0840   60.7800  172.3440 O.3   512  ANP512     -0.1240
      5  PB        32.6300   58.6740  169.8380 P.3   512  ANP512      0.4669
      6  O1B       33.2100   59.6790  168.9170 O.2   512  ANP512     -0.2351
      7  O2B       32.0990   57.4180  169.2600 O.3   512  ANP512     -0.1253
      8  N3B       31.4600   59.3240  170.7650 N.3   512  ANP512     -0.0163
      9  PA        35.2590   57.7430  170.7550 P.3   512  ANP512      0.2220
     10  O1A       35.5270   57.5820  169.2820 O.2   512  ANP512     -0.5170
     11  O2A       36.1750   58.5570  171.6190 O.3   512  ANP512     -0.4370
     12  O3A       33.7700   58.3300  170.9520 O.3   512  ANP512     -0.2360
     13  O5'       35.2460   56.2660  171.3530 O.3   512  ANP512     -0.3111
     14  C5'       35.4390   55.1350  170.4640 C.3   512  ANP512      0.1813
     15  C4'       36.5210   54.1590  170.9250 C.3   512  ANP512      0.1821
     16  O4'       37.4260   54.1550  169.7920 O.3   512  ANP512     -0.3135
     17  C3'       37.3500   54.5690  172.1490 C.3   512  ANP512      0.2184
     18  O3'       37.5940   53.4270  172.9930 O.3   512  ANP512     -0.2174
     19  C2'       38.6350   55.1570  171.5750 C.3   512  ANP512      0.2570
     20  O2'       39.7700   54.8980  172.3990 O.3   512  ANP512     -0.2130
     21  C1'       38.7470   54.5120  170.1850 C.3   512  ANP512      0.3186
     22  N9        39.3020   55.4070  169.1400 N.pl3 512  ANP512     -0.1439
     23  C8        38.8340   56.6540  168.7670 C.3   512  ANP512      0.3377
     24  N7        39.5210   57.2360  167.8040 N.2   512  ANP512     -0.2095
     25  C5        40.5140   56.3170  167.5080 C.2   512  ANP512      0.2526
     26  C6        41.5850   56.3230  166.5620 C.2   512  ANP512      0.4393
     27  N6        41.8200   57.3330  165.7160 N.pl3 512  ANP512      0.2180
     28  N1        42.4160   55.2240  166.5220 N.2   512  ANP512      0.0021
     29  C2        42.1850   54.1930  167.3740 C.3   512  ANP512      0.5254
     30  N3        41.2070   54.0790  168.3040 N.2   512  ANP512     -0.0055
     31  C4        40.4000   55.1760  168.3240 C.2   512  ANP512      0.3518
@<TRIPOS>BOND
     1    27    26    1
     2    28    26    2
     3    28    29    1
     4    26    25    1
     5    29    30    1
     6    25    24    2
     7    25    31    1
     8    24    23    1
     9    30    31    2
    10    31    22    1
    11    23    22    1
    12     6     5    2
    13    22    21    1
    14     7     5    1
    15    10     9    2
    16    16    21    1
    17    16    15    1
    18     5     8    1
    19     5    12    1
    20    21    19    1
    21    14    15    1
    22    14    13    1
    23     2     1    2
    24     9    12    1
    25     9    13    1
    26     9    11    1
    27     8     1    1
    28    15    17    1
    29    19    17    1
    30    19    20    1
    31     1     4    1
    32     1     3    1
    33    17    18    1
