@<TRIPOS>MOLECULE
2oas_COA_A_1.pdb
 48 50 0 0 0
SMALL
GASTEIGER

@<TRIPOS>ATOM
      1  N1A       24.8290   36.4560   85.2630 N.2   501  COA501      0.0021
      2  C2A       23.5760   36.0300   85.8830 C.3   501  COA501      0.5254
      3  N3A       22.3950   36.1480   85.0040 N.2   501  COA501     -0.0055
      4  C4A       22.4820   36.6740   83.6300 C.2   501  COA501      0.3518
      5  C5A       23.7260   37.0780   83.0240 C.2   501  COA501      0.2526
      6  C6A       24.9250   36.9790   83.8890 C.2   501  COA501      0.4393
      7  N6A       26.1950   37.3650   83.3960 N.pl3 501  COA501      0.2180
      8  N7A       23.5110   37.5240   81.7300 N.2   501  COA501     -0.2095
      9  C8A       22.1280   37.3680   81.5330 C.3   501  COA501      0.3377
     10  N9A       21.4770   36.8450   82.6740 N.pl3 501  COA501     -0.1439
     11  C1B       20.0690   36.5590   82.8610 C.3   501  COA501      0.3185
     12  C2B       19.0150   37.6830   82.6190 C.3   501  COA501      0.2543
     13  O2B       18.4300   38.1350   83.7880 O.3   501  COA501     -0.2131
     14  C3B       18.0050   37.1300   81.6140 C.3   501  COA501      0.1928
     15  O3B       16.6480   37.2070   82.1540 O.3   501  COA501     -0.2673
     16  P3B       15.3620   36.7200   81.3690 P.3   501  COA501      0.5327
     17  O7A       15.1720   37.3450   80.0450 O.2   501  COA501     -0.2224
     18  O8A       15.4420   35.2410   81.1720 O.3   501  COA501     -0.1145
     19  O9A       14.1980   36.9750   82.2060 O.3   501  COA501     -0.1145
     20  C4B       18.4370   35.7540   81.2750 C.3   501  COA501      0.1795
     21  O4B       19.6320   35.4370   82.0080 O.3   501  COA501     -0.3136
     22  C5B       18.5060   35.8680   79.6930 C.3   501  COA501      0.1812
     23  O5B       19.5050   36.8140   79.2760 O.3   501  COA501     -0.3112
     24  P1A       19.4730   37.7750   77.9220 P.3   501  COA501      0.2189
     25  O1A       18.3190   38.6260   77.8310 O.2   501  COA501     -0.5170
     26  O2A       20.6990   38.6560   77.8330 O.3   501  COA501     -0.4371
     27  O3A       19.5000   36.6960   76.7690 O.3   501  COA501     -0.2703
     28  P2A       19.5120   37.0490   75.2540 P.3   501  COA501      0.2188
     29  O4A       18.3350   36.4670   74.6150 O.2   501  COA501     -0.5170
     30  O5A       19.4890   38.4840   75.0380 O.3   501  COA501     -0.4371
     31  O6A       20.7500   36.6700   74.5600 O.3   501  COA501     -0.3138
     32  CBP       22.9280   35.4200   74.2660 C.3   501  COA501      0.0645
     33  CCP       22.1540   36.7600   74.7970 C.3   501  COA501      0.1519
     34  CDP       22.2850   34.5040   75.3660 C.3   501  COA501      0.0056
     35  CEP       24.4960   35.5250   74.5110 C.3   501  COA501      0.0056
     36  CAP       22.4610   34.9300   72.7240 C.3   501  COA501      0.2312
     37  OAP       22.9610   36.0530   71.9340 O.3   501  COA501     -0.2131
     38  C9P       23.1580   33.6580   72.2280 C.2   501  COA501      0.2719
     39  O9P       22.5090   32.6230   72.2060 O.2   501  COA501     -0.2706
     40  N8P       24.5080   33.7660   71.8070 N.am  501  COA501     -0.2028
     41  C7P       25.4550   32.7960   71.2740 C.3   501  COA501      0.1248
     42  C6P       26.0840   33.0980   69.8640 C.3   501  COA501      0.1102
     43  C5P       25.2830   32.6740   68.7020 C.2   501  COA501      0.2432
     44  O5P       25.8270   32.1420   67.7280 O.2   501  COA501     -0.2733
     45  N4P       23.8680   32.9180   68.8160 N.am  501  COA501     -0.2044
     46  C3P       22.7590   32.6340   67.9170 C.3   501  COA501      0.1276
     47  C2P       22.9240   33.1020   66.4220 C.3   501  COA501      0.0920
     48  S1P       22.6440   31.7680   65.2220 S.3   501  COA501     -0.0802
@<TRIPOS>BOND
     1    48    47    1
     2    47    46    1
     3    44    43    2
     4    46    45    1
     5    43    45   am
     6    43    42    1
     7    42    41    1
     8    41    40    1
     9    40    38   am
    10    37    36    1
    11    39    38    2
    12    38    36    1
    13    36    32    1
    14    32    35    1
    15    32    33    1
    16    32    34    1
    17    31    33    1
    18    31    28    1
    19    29    28    2
    20    30    28    1
    21    28    27    1
    22    27    24    1
    23    25    24    2
    24    26    24    1
    25    24    23    1
    26    23    22    1
    27    22    20    1
    28    17    16    2
    29    18    16    1
    30    20    14    1
    31    20    21    1
    32    16    15    1
    33    16    19    1
    34     9     8    1
    35     9    10    1
    36    14    15    1
    37    14    12    1
    38     8     5    2
    39    21    11    1
    40    12    11    1
    41    12    13    1
    42    10    11    1
    43    10     4    1
    44     5     4    1
    45     5     6    1
    46     7     6    1
    47     4     3    2
    48     6     1    2
    49     3     2    1
    50     1     2    1
