@<TRIPOS>MOLECULE
2oat_PFM_A_1.pdb
 25 25 0 0 0
SMALL
GASTEIGER

@<TRIPOS>ATOM
      1  N         56.4780   51.0470   10.1070 N.3   440  PFM440     -0.1159
      2  CA        55.4910   50.8490   11.2480 C.3   440  PFM440      0.2161
      3  C         54.0380   50.9470   10.7490 C.2   440  PFM440      0.3860
      4  OA        53.5180   49.9970   10.1120 O.co2 440  PFM440     -0.2437
      5  OB        53.3770   52.0000   10.9820 O.co2 440  PFM440     -0.2437
      6  CB        55.7760   51.8580   12.3300 C.2   440  PFM440      0.0021
      7  CG        56.1060   51.4110   13.7160 C.2   440  PFM440      0.0080
      8  CD        56.4580   49.9800   14.0540 C.3   440  PFM440      0.1959
      9  OE        56.8190   49.1380   13.0340 O.3   440  PFM440     -0.2134
     10  C4B       56.3110   49.5150   15.3280 C.2   440  PFM440      0.0107
     11  C4A       56.1590   48.2070   15.5860 C.2   440  PFM440      0.0013
     12  C4        55.8940   47.5870   16.7520 C.ar  440  PFM440      0.0398
     13  C3        55.9150   48.2050   17.9870 C.ar  440  PFM440      0.2088
     14  O3        56.2410   49.5100   18.1690 O.3   440  PFM440     -0.2853
     15  C2        55.5540   47.5130   19.1400 C.ar  440  PFM440      0.0981
     16  C2A       55.4280   48.2530   20.4690 C.3   440  PFM440      0.0555
     17  N1        55.2350   46.1860   19.0680 N.ar  440  PFM440     -0.2452
     18  C6        55.2280   45.5520   17.8480 C.ar  440  PFM440      0.0968
     19  C5        55.4970   46.2490   16.7060 C.ar  440  PFM440      0.0301
     20  C5A       55.3940   45.4870   15.3550 C.3   440  PFM440      0.1818
     21  P         56.9580   44.7900   13.3360 P.3   440  PFM440      0.5329
     22  OP1       55.9000   43.8090   13.0150 O.3   440  PFM440     -0.1145
     23  OP2       56.8860   46.1130   12.5330 O.2   440  PFM440     -0.2224
     24  OP3       58.3400   44.1800   13.3320 O.3   440  PFM440     -0.1145
     25  OP4       56.7550   45.2780   14.8880 O.3   440  PFM440     -0.2653
@<TRIPOS>BOND
     1     1     2    1
     2     4     3   ar
     3     3     5   ar
     4     3     2    1
     5     2     6    1
     6     6     7    2
     7    23    21    2
     8    22    21    1
     9     9     8    1
    10    24    21    1
    11    21    25    1
    12     7     8    1
    13     8    10    1
    14    25    20    1
    15    10    11    2
    16    20    19    1
    17    11    12    1
    18    19    12   ar
    19    19    18   ar
    20    12    13   ar
    21    18    17   ar
    22    13    14    1
    23    13    15   ar
    24    17    15   ar
    25    15    16    1
