@<TRIPOS>MOLECULE
2oax_SNL_A_1.pdb
 29 33 0 0 0
SMALL
GASTEIGER

@<TRIPOS>ATOM
      1  C8       -22.9650   57.7830    2.8810 C.3   1001  SNL1001     0.0401
      2  C4       -21.4410   61.4310    3.2340 C.3   1001  SNL1001     0.0034
      3  C5       -21.6420   59.8600    2.6070 C.3   1001  SNL1001     0.0337
      4  C2       -17.6790   61.0790    4.5750 C.3   1001  SNL1001     0.0157
      5  C6       -20.9950   58.8580    3.7220 C.3   1001  SNL1001     0.0042
      6  C1       -17.4540   62.6040    5.2360 C.3   1001  SNL1001     0.0118
      7  C3       -19.9980   61.7840    3.4890 C.3   1001  SNL1001     0.0004
      8  C7       -21.6150   57.4500    3.4530 C.3   1001  SNL1001     0.0037
      9  C9       -23.0980   59.2720    2.6430 C.3   1001  SNL1001     0.1362
     10  C10      -20.9800   59.7650    1.1200 C.3   1001  SNL1001     0.0035
     11  C11      -16.9460   61.0680    3.1490 C.3   1001  SNL1001     0.0041
     12  C12      -16.0080   62.8740    5.8000 C.3   1001  SNL1001     0.0694
     13  C13      -24.1290   59.8570    3.6860 C.3   1001  SNL1001     0.0517
     14  C14      -25.1470   60.7050    2.8760 C.3   1001  SNL1001     0.1131
     15  C15      -24.7400   60.4840    1.4500 C.2   1001  SNL1001     0.3169
     16  C16      -19.2940   56.7540    7.6120 C.2   1001  SNL1001     0.1992
     17  C17      -20.0030   56.3580    8.8990 C.3   1001  SNL1001     0.0845
     18  C18      -15.4820   61.6250    6.6540 C.2   1001  SNL1001     0.1725
     19  C19      -15.9490   60.2380    6.4010 C.2   1001  SNL1001     0.0290
     20  C20      -16.8790   59.9450    5.4040 C.2   1001  SNL1001    -0.0411
     21  C21      -17.2780   58.4070    5.1350 C.3   1001  SNL1001     0.0333
     22  C22      -18.8120   58.1540    4.9830 C.3   1001  SNL1001     0.0586
     23  C23      -19.4910   59.0960    3.9690 C.3   1001  SNL1001     0.0111
     24  C24      -19.2250   60.7120    4.4060 C.3   1001  SNL1001     0.0043
     25  O57      -25.1350   61.1620    0.4900 O.2   1001  SNL1001    -0.2501
     26  O58      -23.8210   59.4220    1.3580 O.3   1001  SNL1001    -0.4557
     27  O59      -18.3930   56.0320    7.2050 O.2   1001  SNL1001    -0.2845
     28  O60      -14.7040   61.8230    7.5500 O.2   1001  SNL1001    -0.2914
     29  S61      -19.7160   58.3000    6.7080 S.3   1001  SNL1001    -0.0777
@<TRIPOS>BOND
     1    25    15    2
     2    10     3    1
     3    26    15    1
     4    26     9    1
     5    15    14    1
     6     3     9    1
     7     3     2    1
     8     3     5    1
     9     9     1    1
    10     9    13    1
    11    14    13    1
    12     1     8    1
    13    11     4    1
    14     2     7    1
    15     8     5    1
    16     7    24    1
    17     5    23    1
    18    23    24    1
    19    23    22    1
    20    24     4    1
    21     4     6    1
    22     4    20    1
    23    22    21    1
    24    22    29    1
    25    21    20    1
    26     6    12    1
    27    20    19    2
    28    12    18    1
    29    19    18    1
    30    18    28    2
    31    29    16    1
    32    27    16    2
    33    16    17    1
