@<TRIPOS>MOLECULE
2oaz_I96_A_1.pdb
 22 24 0 0 0
SMALL
GASTEIGER

@<TRIPOS>ATOM
      1  C1        16.6680   29.9440   18.3680 C.ar  501  I96501      0.0786
      2  C2        16.1300   30.4250   19.6350 C.ar  501  I96501     -0.0064
      3  N3        17.4290   28.7750   18.2590 N.pl3 501  I96501     -0.1343
      4  C4        16.4010   30.6830   17.1740 C.ar  501  I96501      0.0170
      5  C5        15.3500   31.6400   19.6160 C.ar  501  I96501     -0.0030
      6  C6        16.3310   29.7310   21.0090 C.3   501  I96501      0.0237
      7  C7        18.6610   28.5920   17.7740 C.1   501  I96501      0.1986
      8  C8        15.6300   31.8750   17.1770 C.ar  501  I96501      0.0013
      9  C9        15.1100   32.3500   18.3870 C.ar  501  I96501     -0.0002
     10  C10       17.6240   30.1520   21.7100 C.3   501  I96501      0.0047
     11  C11       16.2360   28.1920   20.9620 C.3   501  I96501      0.0047
     12  N12       19.5580   29.4260   17.2650 N.2   501  I96501     -0.2727
     13  N13       19.1690   27.3360   17.7660 N.2   501  I96501     -0.0551
     14  C14       20.6040   28.6050   16.9660 C.1   501  I96501      0.1481
     15  N15       20.4090   27.3150   17.2520 N.2   501  I96501     -0.0638
     16  S16       22.1380   29.0570   16.2620 S.3   501  I96501     -0.0228
     17  C17       22.2900   30.8690   15.9020 C.3   501  I96501      0.1062
     18  C18       21.1950   31.8930   16.1430 C.ar  501  I96501      0.0193
     19  C19       21.2560   32.9760   16.9930 C.ar  501  I96501      0.0036
     20  S20       19.6800   31.8580   15.3360 S.2   501  I96501     -0.0899
     21  C21       20.0720   33.7640   16.9840 C.ar  501  I96501      0.0072
     22  C22       19.1290   33.2750   16.1290 C.ar  501  I96501      0.0352
@<TRIPOS>BOND
     1    20    22   ar
     2    20    18   ar
     3    17    18    1
     4    17    16    1
     5    22    21   ar
     6    18    19   ar
     7    16    14    1
     8    14    15    2
     9    14    12    2
    10    21    19   ar
    11     4     8   ar
    12     4     1   ar
    13     8     9   ar
    14    15    13    1
    15    12     7    2
    16    13     7    2
    17     7     3    1
    18     3     1    1
    19     1     2   ar
    20     9     5   ar
    21     5     2   ar
    22     2     6    1
    23    11     6    1
    24     6    10    1
