@<TRIPOS>MOLECULE
2ob2_SAH_A_1.pdb
 26 28 0 0 0
SMALL
GASTEIGER

@<TRIPOS>ATOM
      1  N         20.5660   90.2730    0.9900 N.3   1801  SAH1801    -0.1208
      2  CA        21.0660   91.3740    0.1170 C.3   1801  SAH1801     0.1952
      3  CB        22.4870   91.7560    0.5740 C.3   1801  SAH1801     0.0422
      4  CG        23.4840   90.6110    0.5860 C.3   1801  SAH1801     0.0597
      5  SD        25.1470   91.1890    0.9420 S.3   1801  SAH1801    -0.1375
      6  C         21.1320   91.0550   -1.3850 C.2   1801  SAH1801     0.3819
      7  O         21.1350   89.8970   -1.8550 O.co2 1801  SAH1801    -0.2441
      8  OXT       21.1930   92.0100   -2.1810 O.co2 1801  SAH1801    -0.2441
      9  C5'       25.0850   90.3980    2.5230 C.3   1801  SAH1801     0.0899
     10  C4'       24.4290   91.2190    3.6100 C.3   1801  SAH1801     0.1630
     11  O4'       24.4120   90.4070    4.7750 O.3   1801  SAH1801    -0.3153
     12  C3'       25.1980   92.4850    3.9510 C.3   1801  SAH1801     0.2168
     13  O3'       24.2350   93.5540    3.9440 O.3   1801  SAH1801    -0.2175
     14  C2'       25.6120   92.1650    5.3610 C.3   1801  SAH1801     0.2569
     15  O2'       25.7390   93.2950    6.1800 O.3   1801  SAH1801    -0.2130
     16  C1'       24.5130   91.2340    5.8720 C.3   1801  SAH1801     0.3185
     17  N9        25.0010   90.4960    7.0360 N.pl3 1801  SAH1801    -0.1439
     18  C8        26.0780   89.6320    7.0590 C.3   1801  SAH1801     0.3377
     19  N7        26.1860   89.1800    8.3230 N.2   1801  SAH1801    -0.2095
     20  C5        25.2050   89.7150    9.0940 C.2   1801  SAH1801     0.2526
     21  C6        24.9620   89.6090   10.4560 C.2   1801  SAH1801     0.4393
     22  N6        25.7060   88.8130   11.2480 N.pl3 1801  SAH1801     0.2180
     23  N1        23.9420   90.3300   10.9460 N.2   1801  SAH1801     0.0021
     24  C2        23.1540   91.1300   10.1440 C.3   1801  SAH1801     0.5254
     25  N3        23.4400   91.3010    8.8170 N.2   1801  SAH1801    -0.0055
     26  C4        24.4600   90.5660    8.3030 C.2   1801  SAH1801     0.3518
@<TRIPOS>BOND
     1     8     6   ar
     2     7     6   ar
     3     6     2    1
     4     2     3    1
     5     2     1    1
     6     3     4    1
     7     4     5    1
     8     5     9    1
     9     9    10    1
    10    10    12    1
    11    10    11    1
    12    13    12    1
    13    12    14    1
    14    11    16    1
    15    14    16    1
    16    14    15    1
    17    16    17    1
    18    17    18    1
    19    17    26    1
    20    18    19    1
    21    26    25    2
    22    26    20    1
    23    19    20    2
    24    25    24    1
    25    20    21    1
    26    24    23    1
    27    21    23    2
    28    21    22    1
