@<TRIPOS>MOLECULE
2obc_RP5_A_1.pdb
 14 14 0 0 0
SMALL
GASTEIGER

@<TRIPOS>ATOM
      1  C1'       59.9180   51.7750   30.7570 C.3   401  RP5401      0.3023
      2  O1'       58.6470   52.1970   31.2600 O.3   401  RP5401     -0.3237
      3  C2'       59.7290   51.3480   29.3110 C.3   401  RP5401      0.2433
      4  O2'       60.2800   52.3310   28.4250 O.3   401  RP5401     -0.2148
      5  C3'       58.2250   51.1990   29.1420 C.3   401  RP5401      0.2168
      6  O3'       57.7640   51.8940   27.9790 O.3   401  RP5401     -0.2175
      7  C4'       57.5800   51.7920   30.3920 C.3   401  RP5401      0.1809
      8  C5'       56.6270   50.8370   31.1240 C.3   401  RP5401      0.1859
      9  O5'       55.6040   50.3320   30.2530 O.3   401  RP5401     -0.2675
     10  P'        54.2550   49.6260   30.7950 P.3   401  RP5401      0.5327
     11  O1X       53.3040   50.7820   30.9310 O.3   401  RP5401     -0.1145
     12  O2X       53.8640   48.6850   29.6920 O.2   401  RP5401     -0.2224
     13  O3X       54.6230   48.9710   32.1070 O.3   401  RP5401     -0.1145
     14  O1        60.3310   50.6280   31.5010 O.3   401  RP5401     -0.1869
@<TRIPOS>BOND
     1     6     5    1
     2     4     3    1
     3     5     3    1
     4     5     7    1
     5     3     1    1
     6    12    10    2
     7     9    10    1
     8     9     8    1
     9     7     8    1
    10     7     2    1
    11     1     2    1
    12     1    14    1
    13    10    11    1
    14    10    13    1
