@<TRIPOS>MOLECULE
2obd_2OB_A_1.pdb
 47 50 0 0 0
SMALL
GASTEIGER

@<TRIPOS>ATOM
      1  O2         9.1490    2.9150   38.5980 O.2   485  2OB485     -0.2501
      2  C48        8.4570    2.3130   37.8180 C.2   485  2OB485      0.3169
      3  O1         7.9320    1.0070   38.2050 O.3   485  2OB485     -0.4523
      4  C3         8.1690    0.7050   39.5740 C.3   485  2OB485      0.1688
      5  C2         6.8120    0.4580   40.2210 C.3   485  2OB485      0.0436
      6  C4         9.0390   -0.5430   39.6420 C.3   485  2OB485      0.0436
      7  C5         9.0470   -1.1090   41.0490 C.3   485  2OB485      0.0036
      8  C10        7.7350   -1.3800   41.7590 C.3   485  2OB485      0.0002
      9  C9         8.0000   -1.6780   43.2410 C.3   485  2OB485      0.0000
     10  C11        6.7030   -2.0220   44.0080 C.3   485  2OB485      0.0000
     11  C12        6.8870   -2.5150   45.4510 C.3   485  2OB485      0.0000
     12  C13        7.9970   -3.5490   45.6030 C.3   485  2OB485      0.0000
     13  C18        7.5580   -4.8820   44.9740 C.3   485  2OB485      0.0000
     14  C17        8.5150   -3.7550   47.0420 C.3   485  2OB485      0.0000
     15  C20        7.7520   -4.7130   47.9790 C.3   485  2OB485      0.0000
     16  C22        8.4540   -4.7590   49.3420 C.3   485  2OB485      0.0000
     17  C23        7.9490   -5.8390   50.2900 C.3   485  2OB485      0.0000
     18  C24        8.9980   -6.0710   51.3700 C.3   485  2OB485      0.0000
     19  C25        8.4470   -6.5480   52.7050 C.3   485  2OB485      0.0000
     20  C27        7.3660   -7.5910   52.5740 C.3   485  2OB485      0.0000
     21  C26        9.5630   -7.1280   53.5610 C.3   485  2OB485      0.0000
     22  C21        6.3000   -4.2870   48.1480 C.3   485  2OB485      0.0000
     23  C16        9.9960   -4.1440   46.9000 C.3   485  2OB485      0.0000
     24  C15       10.4120   -3.8240   45.4570 C.3   485  2OB485      0.0000
     25  C14        9.2480   -2.9770   44.9460 C.3   485  2OB485      0.0000
     26  C8         9.1110   -2.7230   43.4380 C.3   485  2OB485      0.0000
     27  C7        10.4390   -2.3140   42.7860 C.3   485  2OB485      0.0000
     28  C6        10.2350   -1.3390   41.6390 C.3   485  2OB485      0.0001
     29  C19        7.0050   -2.5450   41.0770 C.3   485  2OB485      0.0000
     30  C1         6.8960   -0.1090   41.6390 C.3   485  2OB485      0.0037
     31  C47        8.1680    2.9390   36.4800 C.3   485  2OB485      0.1096
     32  C46        9.2690    2.6060   35.4860 C.3   485  2OB485      0.0116
     33  C45        9.3370    3.6330   34.3580 C.3   485  2OB485      0.0006
     34  C44       10.4460    3.2640   33.3820 C.3   485  2OB485      0.0000
     35  C43       11.6030    4.2570   33.4050 C.3   485  2OB485      0.0003
     36  C42       12.8240    3.5580   32.8330 C.3   485  2OB485      0.0047
     37  C41       14.1280    4.3130   33.0490 C.3   485  2OB485      0.0257
     38  C40       14.9970    4.1230   31.8170 C.2   485  2OB485     -0.0307
     39  C39       16.3160    3.8780   31.7930 C.2   485  2OB485     -0.0307
     40  C38       17.2060    3.7360   33.0060 C.3   485  2OB485      0.0257
     41  C37       17.6250    2.2740   33.0900 C.3   485  2OB485      0.0047
     42  C36       18.6220    2.0660   34.2180 C.3   485  2OB485      0.0003
     43  C35       18.1220    1.0050   35.1850 C.3   485  2OB485      0.0000
     44  C34       19.0170    0.9750   36.4080 C.3   485  2OB485      0.0000
     45  C33       18.2950    0.3360   37.5790 C.3   485  2OB485      0.0000
     46  C32       18.8340   -1.0640   37.8120 C.3   485  2OB485      0.0000
     47  C31       18.0060   -1.7510   38.8680 C.3   485  2OB485      0.0000
@<TRIPOS>BOND
     1    39    38    2
     2    39    40    1
     3    38    37    1
     4    36    37    1
     5    36    35    1
     6    40    41    1
     7    41    42    1
     8    34    35    1
     9    34    33    1
    10    42    43    1
    11    33    32    1
    12    43    44    1
    13    32    31    1
    14    44    45    1
    15    31     2    1
    16    45    46    1
    17    46    47    1
    18     2     3    1
    19     2     1    2
    20     3     4    1
    21     4     6    1
    22     4     5    1
    23     6     7    1
    24     5    30    1
    25     7    28    1
    26     7     8    1
    27    29     8    1
    28    28    27    1
    29    30     8    1
    30     8     9    1
    31    27    26    1
    32     9    26    1
    33     9    10    1
    34    26    25    1
    35    10    11    1
    36    25    24    1
    37    25    12    1
    38    13    12    1
    39    11    12    1
    40    24    23    1
    41    12    14    1
    42    23    14    1
    43    14    15    1
    44    15    22    1
    45    15    16    1
    46    16    17    1
    47    17    18    1
    48    18    19    1
    49    20    19    1
    50    19    21    1
