@<TRIPOS>MOLECULE
2obd_FU4_A_1.pdb
 10 10 0 0 0
SMALL
GASTEIGER

@<TRIPOS>ATOM
      1  C1        28.8360   29.3590   -9.1170 C.3   483  FU4483      0.1776
      2  C2        29.4030   27.9800   -8.8050 C.3   483  FU4483      0.2141
      3  C3        28.7800   27.4280   -7.5280 C.3   483  FU4483      0.2172
      4  C4        27.2600   27.4630   -7.5760 C.3   483  FU4483      0.2116
      5  C5        26.7700   28.8640   -7.9400 C.3   483  FU4483      0.1483
      6  C6        25.2480   28.9060   -8.0890 C.3   483  FU4483      0.0349
      7  O2        30.8210   28.0710   -8.6360 O.3   483  FU4483     -0.2176
      8  O3        29.1980   26.0770   -7.3400 O.3   483  FU4483     -0.2175
      9  O4        26.7930   26.5010   -8.5270 O.3   483  FU4483     -0.2177
     10  O5        27.4030   29.3220   -9.1470 O.3   483  FU4483     -0.3508
@<TRIPOS>BOND
     1    10     1    1
     2    10     5    1
     3     1     2    1
     4     2     7    1
     5     2     3    1
     6     9     4    1
     7     6     5    1
     8     5     4    1
     9     4     3    1
    10     3     8    1
