@<TRIPOS>MOLECULE
2obf_SAH_A_1.pdb
 26 28 0 0 0
SMALL
GASTEIGER

@<TRIPOS>ATOM
      1  N         26.9530   52.6890   18.3170 N.3   3001  SAH3001    -0.1208
      2  CA        28.1450   52.1530   17.6700 C.3   3001  SAH3001     0.1952
      3  CB        29.2120   51.8230   18.7320 C.3   3001  SAH3001     0.0422
      4  CG        28.7680   50.8360   19.8180 C.3   3001  SAH3001     0.0597
      5  SD        30.1430   50.2700   20.8290 S.3   3001  SAH3001    -0.1375
      6  C         27.7980   50.9150   16.8380 C.2   3001  SAH3001     0.3819
      7  O         28.7220   50.1700   16.4570 O.co2 3001  SAH3001    -0.2441
      8  OXT       26.5980   50.7110   16.5630 O.co2 3001  SAH3001    -0.2441
      9  C5'       29.7870   51.0800   22.4380 C.3   3001  SAH3001     0.0899
     10  C4'       30.0550   52.5700   22.4460 C.3   3001  SAH3001     0.1630
     11  O4'       29.6700   53.1840   23.7110 O.3   3001  SAH3001    -0.3153
     12  C3'       31.4860   53.0290   22.1530 C.3   3001  SAH3001     0.2168
     13  O3'       31.5120   53.9690   21.0780 O.3   3001  SAH3001    -0.2175
     14  C2'       31.9400   53.6330   23.4820 C.3   3001  SAH3001     0.2569
     15  O2'       32.9130   54.6500   23.3540 O.3   3001  SAH3001    -0.2130
     16  C1'       30.6240   54.1750   24.0380 C.3   3001  SAH3001     0.3185
     17  N9        30.6050   54.4060   25.4870 N.pl3 3001  SAH3001    -0.1439
     18  C8        31.5110   53.9140   26.4830 C.3   3001  SAH3001     0.3377
     19  N7        31.2250   54.3270   27.6920 N.2   3001  SAH3001    -0.2095
     20  C5        30.0950   55.1090   27.5040 C.2   3001  SAH3001     0.2526
     21  C6        29.3460   55.8170   28.4630 C.2   3001  SAH3001     0.4393
     22  N6        29.6390   55.8320   29.7670 N.pl3 3001  SAH3001     0.2180
     23  N1        28.2660   56.5220   28.0190 N.2   3001  SAH3001     0.0021
     24  C2        27.9830   56.5050   26.6870 C.3   3001  SAH3001     0.5254
     25  N3        28.6380   55.8630   25.6910 N.2   3001  SAH3001    -0.0055
     26  C4        29.6970   55.1720   26.1760 C.2   3001  SAH3001     0.3518
@<TRIPOS>BOND
     1     7     6   ar
     2     8     6   ar
     3     6     2    1
     4     2     1    1
     5     2     3    1
     6     3     4    1
     7     4     5    1
     8     5     9    1
     9    13    12    1
    10    12    10    1
    11    12    14    1
    12     9    10    1
    13    10    11    1
    14    15    14    1
    15    14    16    1
    16    11    16    1
    17    16    17    1
    18    17    26    1
    19    17    18    1
    20    25    26    2
    21    25    24    1
    22    26    20    1
    23    18    19    1
    24    24    23    1
    25    20    19    2
    26    20    21    1
    27    23    21    2
    28    21    22    1
