@<TRIPOS>MOLECULE
2obf_F83_A_1.pdb
 23 25 0 0 0
SMALL
GASTEIGER

@<TRIPOS>ATOM
      1  O1        29.2550   44.8670   22.6150 O.3   2001  F832001    -0.2189
      2  C1        29.6460   45.6380   21.4750 C.3   2001  F832001     0.1997
      3  C2        29.0460   45.0010   20.2210 C.3   2001  F832001     0.1104
      4  N1        29.6530   43.6830   19.9820 N.3   2001  F832001    -0.2117
      5  C3        28.8950   42.9490   18.9590 C.3   2001  F832001     0.1148
      6  C4        28.7060   43.7940   17.6930 C.ar  2001  F832001    -0.0074
      7  C5        28.3080   43.1710   16.5160 C.ar  2001  F832001     0.0171
      8  C6        28.0810   43.9240   15.3680 C.ar  2001  F832001     0.1268
      9  C7        28.2560   45.3040   15.3970 C.ar  2001  F832001     0.0199
     10  C8        28.6580   45.9300   16.5730 C.ar  2001  F832001    -0.0031
     11  C9        28.8850   45.1770   17.7230 C.ar  2001  F832001    -0.0232
     12  C10       29.3290   45.8840   19.0030 C.3   2001  F832001     0.0461
     13  S1        27.5650   43.1380   13.8930 S.O2  2001  F832001     0.0928
     14  O2        26.1410   42.9690   13.9040 O.2   2001  F832001    -0.1483
     15  O3        28.2170   41.7910   13.7900 O.2   2001  F832001    -0.1483
     16  N2        28.0200   44.0390   12.6150 N.pl3 2001  F832001    -0.0965
     17  C11       27.0810   44.8330   11.8090 C.ar  2001  F832001     0.0911
     18  C12       26.0370   45.5360   12.4050 C.ar  2001  F832001     0.0189
     19  C13       25.2080   46.3430   11.6290 C.ar  2001  F832001     0.0128
     20  C14       25.4190   46.4510   10.2550 C.ar  2001  F832001     0.0578
     21  C15       26.4570   45.7420    9.6600 C.ar  2001  F832001     0.0128
     22  C16       27.2860   44.9320   10.4360 C.ar  2001  F832001     0.0189
     23 CL1        24.4170   47.4760    9.2870 Cl    2001  F832001    -0.0822
@<TRIPOS>BOND
     1    23    20    1
     2    21    20   ar
     3    21    22   ar
     4    20    19   ar
     5    22    17   ar
     6    19    18   ar
     7    17    18   ar
     8    17    16    1
     9    16    13    1
    10    15    13    2
    11    13    14    2
    12    13     8    1
    13     8     9   ar
    14     8     7   ar
    15     9    10   ar
    16     7     6   ar
    17    10    11   ar
    18     6    11   ar
    19     6     5    1
    20    11    12    1
    21     5     4    1
    22    12     3    1
    23     4     3    1
    24     3     2    1
    25     2     1    1
