@<TRIPOS>MOLECULE
2obj_VRV_A_1.pdb
 23 25 0 0 0
SMALL
GASTEIGER

@<TRIPOS>ATOM
      1  C1       -20.8050   38.9620    1.9470 C.ar  400  VRV400      0.0100
      2  C2       -19.9950   38.2630    2.8600 C.ar  400  VRV400      0.0426
      3  C3       -19.1200   37.2490    2.3990 C.ar  400  VRV400      0.1982
      4  C4       -19.0360   36.8970    0.9820 C.ar  400  VRV400      0.0699
      5  C5       -19.8890   37.6480    0.1060 C.ar  400  VRV400      0.0125
      6  C6       -20.7470   38.6510    0.5730 C.ar  400  VRV400      0.0349
      7  C7       -18.1710   35.8860    0.4710 C.2   400  VRV400      0.1469
      8  N8       -17.3960   35.1700    1.3140 N.2   400  VRV400     -0.3352
      9  C9       -16.5570   34.2130    0.9630 C.1   400  VRV400      0.1981
     10  C10      -16.3980   33.8410   -0.4140 C.3   400  VRV400      0.2307
     11  C11      -17.1910   34.5560   -1.4230 C.2   400  VRV400      0.0108
     12  C12      -18.0700   35.5740   -0.9400 C.2   400  VRV400      0.0310
     13  C13      -17.1460   34.3120   -2.8140 C.ar  400  VRV400     -0.0018
     14  C14      -17.8880   33.2280   -3.4180 C.ar  400  VRV400     -0.0002
     15  C15      -17.8310   32.9880   -4.8160 C.ar  400  VRV400     -0.0000
     16  C16      -17.0400   33.8210   -5.6420 C.ar  400  VRV400     -0.0000
     17  C17      -16.2980   34.8960   -5.0860 C.ar  400  VRV400     -0.0000
     18  C18      -16.3480   35.1420   -3.6920 C.ar  400  VRV400     -0.0002
     19  C19      -15.4640   32.7870   -0.7210 C.1   400  VRV400      0.0948
     20  N20      -14.7240   31.9370   -0.9860 N.1   400  VRV400     -0.1944
     21  O21      -15.8850   33.6370    2.0140 O.2   400  VRV400     -0.2128
     22  O22      -18.3750   36.6400    3.3780 O.3   400  VRV400     -0.2865
     23 BR23      -21.8250   39.5960   -0.6910 Br    400  VRV400     -0.0490
@<TRIPOS>BOND
     1    16    17   ar
     2    16    15   ar
     3    17    18   ar
     4    15    14   ar
     5    18    13   ar
     6    14    13   ar
     7    13    11    1
     8    11    12    2
     9    11    10    1
    10    20    19    3
    11    12     7    1
    12    19    10    1
    13    23     6    1
    14    10     9    1
    15     5     6   ar
    16     5     4   ar
    17     7     4    1
    18     7     8    2
    19     6     1   ar
    20     9     8    2
    21     9    21    2
    22     4     3   ar
    23     1     2   ar
    24     3     2   ar
    25     3    22    1
