@<TRIPOS>MOLECULE
2obm_ADP_A_1.pdb
 27 29 0 0 0
SMALL
GASTEIGER

@<TRIPOS>ATOM
      1  PB        18.5420   12.0290    0.1100 P.3   600  ADP600      0.5373
      2  O1B       18.1020   12.1180   -1.3370 O.2   600  ADP600     -0.2221
      3  O2B       17.7080   11.2580    1.1080 O.3   600  ADP600     -0.1143
      4  O3B       20.0290   11.3990    0.1370 O.3   600  ADP600     -0.1143
      5  PA        19.9920   14.0620    1.5000 P.3   600  ADP600      0.2231
      6  O1A       19.8530   13.5550    2.9110 O.3   600  ADP600     -0.4370
      7  O2A       21.2780   13.8180    0.7440 O.2   600  ADP600     -0.5169
      8  O3A       18.7340   13.5480    0.6250 O.3   600  ADP600     -0.2261
      9  O5'       19.7200   15.6470    1.5010 O.3   600  ADP600     -0.3111
     10  C5'       19.4070   16.3060    0.2750 C.3   600  ADP600      0.1813
     11  C4'       20.1140   17.6540    0.2270 C.3   600  ADP600      0.1821
     12  O4'       19.1950   18.6680    0.6340 O.3   600  ADP600     -0.3135
     13  C3'       21.2980   17.7230    1.1840 C.3   600  ADP600      0.2184
     14  O3'       22.5450   17.5180    0.5140 O.3   600  ADP600     -0.2174
     15  C2'       21.2100   19.1050    1.8000 C.3   600  ADP600      0.2570
     16  O2'       21.9730   20.0790    1.0740 O.3   600  ADP600     -0.2130
     17  C1'       19.7330   19.4430    1.7120 C.3   600  ADP600      0.3186
     18  N9        19.1200   19.0730    3.0150 N.pl3 600  ADP600     -0.1439
     19  C8        18.3530   17.9960    3.2750 C.3   600  ADP600      0.3377
     20  N7        17.9750   17.9780    4.5780 N.2   600  ADP600     -0.2095
     21  C5        18.5120   19.0590    5.1800 C.2   600  ADP600      0.2526
     22  C6        18.5150   19.6450    6.5450 C.2   600  ADP600      0.4393
     23  N6        17.8560   19.0650    7.5780 N.pl3 600  ADP600      0.2180
     24  N1        19.2040   20.7900    6.7300 N.2   600  ADP600      0.0021
     25  C2        19.8740   21.3900    5.7290 C.3   600  ADP600      0.5254
     26  N3        19.9130   20.9140    4.4710 N.2   600  ADP600     -0.0055
     27  C4        19.2650   19.7730    4.1400 C.2   600  ADP600      0.3518
@<TRIPOS>BOND
     1     2     1    2
     2     1     4    1
     3     1     8    1
     4     1     3    1
     5    11    10    1
     6    11    12    1
     7    11    13    1
     8    10     9    1
     9    14    13    1
    10     8     5    1
    11    12    17    1
    12     7     5    2
    13    16    15    1
    14    13    15    1
    15     5     9    1
    16     5     6    1
    17    17    15    1
    18    17    18    1
    19    18    19    1
    20    18    27    1
    21    19    20    1
    22    27    26    2
    23    27    21    1
    24    26    25    1
    25    20    21    2
    26    21    22    1
    27    25    24    1
    28    22    24    2
    29    22    23    1
