@<TRIPOS>MOLECULE
2obo_HUD_A_1.pdb
 36 38 0 0 0
SMALL
GASTEIGER

@<TRIPOS>ATOM
      1  O2       192.6240  -11.2850   49.4590 O.2   903  HUD903     -0.2246
      2  C1       192.0180  -10.4090   48.8310 C.2   903  HUD903      0.4213
      3  O3       190.6890  -10.1650   48.8440 O.3   903  HUD903     -0.4408
      4  C4       189.6980  -10.9280   49.6350 C.3   903  HUD903      0.1379
      5  C6       189.5220  -12.3650   49.0710 C.3   903  HUD903      0.0437
      6  C5       188.3380  -10.2250   49.4430 C.3   903  HUD903      0.0437
      7  C7       190.0670  -10.9810   51.1480 C.3   903  HUD903      0.0437
      8  N8       192.6230   -9.5400   48.0250 N.am  903  HUD903     -0.1611
      9  C9       194.0740   -9.4170   48.0010 C.3   903  HUD903      0.1745
     10  C10      194.6730   -8.9350   46.7010 C.3   903  HUD903      0.0270
     11  C11      196.1680   -8.9540   46.9100 C.3   903  HUD903      0.0022
     12  C12      194.3430   -9.8870   45.5960 C.3   903  HUD903      0.0022
     13  C13      194.2280   -7.4970   46.2960 C.3   903  HUD903      0.0022
     14  C14      194.5810   -8.6080   49.1900 C.2   903  HUD903      0.2459
     15  O15      194.4110   -7.3860   49.2440 O.2   903  HUD903     -0.2730
     16  N16      195.1720   -9.2900   50.1820 N.am  903  HUD903     -0.2716
     17  C17      195.4090  -10.7350   50.2670 C.3   903  HUD903      0.0939
     18  C18      195.6930   -8.5870   51.3500 C.3   903  HUD903      0.1535
     19  C19      196.5020   -9.6080   52.0990 C.3   903  HUD903      0.0289
     20  C20      196.3200  -10.8920   51.4230 C.3   903  HUD903      0.0220
     21  C21      195.7110  -10.7030   52.7850 C.3   903  HUD903      0.0037
     22  C22      196.3470  -11.3320   53.9910 C.3   903  HUD903      0.0001
     23  C23      194.2020  -10.7630   52.8680 C.3   903  HUD903      0.0001
     24  C24      196.7300   -7.5950   50.8600 C.2   903  HUD903      0.2595
     25  O25      197.5860   -7.9450   50.0460 O.2   903  HUD903     -0.2716
     26  N26      196.6070   -6.3490   51.3020 N.am  903  HUD903     -0.2027
     27  C27      197.5450   -5.2910   50.9250 C.3   903  HUD903      0.1347
     28  C28      196.8210   -4.1310   50.2340 C.3   903  HUD903      0.0248
     29  C29      196.0400   -4.6580   49.0490 C.3   903  HUD903      0.0018
     30  C30      196.6690   -4.6550   47.6950 C.3   903  HUD903      0.0001
     31  C31      195.5290   -3.7140   48.0210 C.3   903  HUD903      0.0001
     32  O32      198.7390   -5.8960   52.9960 O.3   903  HUD903     -0.2113
     33  C33      198.2970   -4.7730   52.1700 C.3   903  HUD903      0.2503
     34  O34      199.3180   -2.8540   51.2060 O.2   903  HUD903     -0.2688
     35  N35      200.6770   -4.5460   51.8230 N.am  903  HUD903     -0.0855
     36  C36      199.4850   -3.9770   51.6930 C.2   903  HUD903      0.2929
@<TRIPOS>BOND
     1    12    10    1
     2    13    10    1
     3    10    11    1
     4    10     9    1
     5    30    31    1
     6    30    29    1
     7     9     8    1
     8     9    14    1
     9    31    29    1
    10     8     2   am
    11     2     3    1
    12     2     1    2
    13     3     4    1
    14    29    28    1
    15     5     4    1
    16    14    15    2
    17    14    16   am
    18     6     4    1
    19     4     7    1
    20    25    24    2
    21    16    17    1
    22    16    18    1
    23    28    27    1
    24    17    20    1
    25    24    26   am
    26    24    18    1
    27    27    26    1
    28    27    33    1
    29    34    36    2
    30    18    19    1
    31    20    19    1
    32    20    21    1
    33    36    35   am
    34    36    33    1
    35    19    21    1
    36    33    32    1
    37    21    23    1
    38    21    22    1
