@<TRIPOS>MOLECULE
2obs_FUC_A_1.pdb
 11 11 0 0 0
SMALL
GASTEIGER

@<TRIPOS>ATOM
      1  C1        16.8340   10.3190   -8.5540 C.3     1  FUC1        0.3023
      2  C2        16.6060   11.0120   -7.1660 C.3     1  FUC1        0.2434
      3  C3        17.0090   12.5130   -7.2410 C.3     1  FUC1        0.2198
      4  C4        16.1440   13.2000   -8.3080 C.3     1  FUC1        0.2118
      5  C5        16.3430   12.4780   -9.6590 C.3     1  FUC1        0.1509
      6  C6        15.4510   13.0740  -10.7520 C.3     1  FUC1        0.0350
      7  O1        18.2930   10.1730   -8.8480 O.3     1  FUC1       -0.1869
      8  O2        17.3600   10.3570   -6.1660 O.3     1  FUC1       -0.2148
      9  O3        16.8150   13.1620   -5.9900 O.3     1  FUC1       -0.2174
     10  O4        14.7740   13.1590   -7.9190 O.3     1  FUC1       -0.2177
     11  O5        16.0510   11.0630   -9.5200 O.3     1  FUC1       -0.3264
@<TRIPOS>BOND
     1     6     5    1
     2     5    11    1
     3     5     4    1
     4    11     1    1
     5     7     1    1
     6     1     2    1
     7     4    10    1
     8     4     3    1
     9     3     2    1
    10     3     9    1
    11     2     8    1
