@<TRIPOS>MOLECULE
2obt_FUC_A_1.pdb
 11 11 0 0 0
SMALL
GASTEIGER

@<TRIPOS>ATOM
      1  C1       -16.8940   -9.7920   -8.2690 C.3     1  FUC1        0.3023
      2  C2       -16.5820  -10.5960   -7.0000 C.3     1  FUC1        0.2434
      3  C3       -17.0790  -12.0490   -7.1590 C.3     1  FUC1        0.2198
      4  C4       -16.3440  -12.7040   -8.3470 C.3     1  FUC1        0.2118
      5  C5       -16.5980  -11.8750   -9.6180 C.3     1  FUC1        0.1509
      6  C6       -15.8290  -12.4150  -10.8470 C.3     1  FUC1        0.0350
      7  O1       -18.2030   -9.5130   -8.6840 O.3     1  FUC1       -0.1869
      8  O2       -17.2170   -9.9670   -5.9150 O.3     1  FUC1       -0.2148
      9  O3       -16.8090  -12.8120   -5.9830 O.3     1  FUC1       -0.2174
     10  O4       -14.9570  -12.8300   -8.0870 O.3     1  FUC1       -0.2177
     11  O5       -16.2580  -10.4790   -9.3880 O.3     1  FUC1       -0.3264
@<TRIPOS>BOND
     1     6     5    1
     2     5    11    1
     3     5     4    1
     4    11     1    1
     5     7     1    1
     6     4    10    1
     7     4     3    1
     8     1     2    1
     9     3     2    1
    10     3     9    1
    11     2     8    1
