@<TRIPOS>MOLECULE
2obt_GLA_A_1.pdb
 11 11 0 0 0
SMALL
GASTEIGER

@<TRIPOS>ATOM
      1  C1       -20.2120   -6.7530   -6.8010 C.3     3  GLA3        0.1777
      2  C2       -19.5850   -6.1440   -5.5150 C.3     3  GLA3        0.2141
      3  C3       -18.7180   -7.2170   -4.7900 C.3     3  GLA3        0.2173
      4  C4       -19.6020   -8.4330   -4.4330 C.3     3  GLA3        0.2142
      5  C5       -20.1990   -9.0090   -5.7400 C.3     3  GLA3        0.1810
      6  C6       -21.1480  -10.2320   -5.5270 C.3     3  GLA3        0.2141
      7  O2       -18.8160   -4.9280   -5.8950 O.3     3  GLA3       -0.2176
      8  O3       -18.1580   -6.6850   -3.6100 O.3     3  GLA3       -0.2175
      9  O4       -20.6480   -8.0210   -3.5560 O.3     3  GLA3       -0.2176
     10  O5       -20.9330   -7.9780   -6.4630 O.3     3  GLA3       -0.3481
     11  O6       -22.5240   -9.8710   -5.6140 O.3     3  GLA3       -0.2176
@<TRIPOS>BOND
     1     1    10    1
     2     1     2    1
     3    10     5    1
     4     7     2    1
     5     5     6    1
     6     5     4    1
     7    11     6    1
     8     2     3    1
     9     3     4    1
    10     3     8    1
    11     4     9    1
