@<TRIPOS>MOLECULE
2obv_SAM_A_1.pdb
 27 29 0 0 0
SMALL
GASTEIGER

@<TRIPOS>ATOM
      1  N        -10.0930    8.0460   42.5720 N.3   501  SAM501     -0.1208
      2  CA       -10.8270    9.2280   42.0050 C.3   501  SAM501      0.1952
      3  C        -12.2660    9.2140   42.5010 C.2   501  SAM501      0.3819
      4  O        -13.2230    9.5870   41.7950 O.co2 501  SAM501     -0.2441
      5  OXT      -12.4680    8.8100   43.6480 O.co2 501  SAM501     -0.2441
      6  CB       -10.7630    9.2450   40.4730 C.3   501  SAM501      0.0414
      7  CG        -9.4340    9.7850   39.9190 C.3   501  SAM501      0.0503
      8  SD        -8.9450   11.5180   40.2920 S.3   501  SAM501     -0.1761
      9  CE       -10.0740   12.4140   39.1860 C.3   501  SAM501      0.0590
     10  C5'       -7.5080   11.2680   39.2270 C.3   501  SAM501      0.0806
     11  C4'       -6.5640   12.4380   39.1440 C.3   501  SAM501      0.1622
     12  O4'       -7.2920   13.5660   38.7030 O.3   501  SAM501     -0.3153
     13  C3'       -5.9160   12.8040   40.4740 C.3   501  SAM501      0.2168
     14  O3'       -4.7970   12.0290   40.8100 O.3   501  SAM501     -0.2175
     15  C2'       -5.5950   14.2590   40.2330 C.3   501  SAM501      0.2569
     16  O2'       -4.3700   14.4480   39.5630 O.3   501  SAM501     -0.2130
     17  C1'       -6.7900   14.6950   39.3870 C.3   501  SAM501      0.3185
     18  N9        -7.8000   15.3260   40.2790 N.pl3 501  SAM501     -0.1439
     19  C8        -8.0530   15.1070   41.6110 C.3   501  SAM501      0.3377
     20  N7        -9.0170   15.9500   41.9970 N.2   501  SAM501     -0.2095
     21  C5        -9.3950   16.7070   40.9280 C.2   501  SAM501      0.2526
     22  C6       -10.3280   17.7390   40.7530 C.2   501  SAM501      0.4393
     23  N6       -11.1190   18.1800   41.7450 N.pl3 501  SAM501      0.2180
     24  N1       -10.4510   18.2960   39.5090 N.2   501  SAM501      0.0021
     25  C2        -9.6660   17.8920   38.4440 C.3   501  SAM501      0.5254
     26  N3        -8.7420   16.8930   38.6180 N.2   501  SAM501     -0.0055
     27  C4        -8.6180   16.3280   39.8480 C.2   501  SAM501      0.3518
@<TRIPOS>BOND
     1    25    26    1
     2    25    24    1
     3    26    27    2
     4    12    11    1
     5    12    17    1
     6    11    10    1
     7    11    13    1
     8     9     8    1
     9    10     8    1
    10    17    15    1
    11    17    18    1
    12    24    22    2
    13    16    15    1
    14    27    18    1
    15    27    21    1
    16     7     8    1
    17     7     6    1
    18    15    13    1
    19    18    19    1
    20     6     2    1
    21    13    14    1
    22    22    21    1
    23    22    23    1
    24    21    20    2
    25    19    20    1
    26     4     3   ar
    27     2     3    1
    28     2     1    1
    29     3     5   ar
