@<TRIPOS>MOLECULE
2obx_INI_A_1.pdb
 21 21 0 0 0
SMALL
GASTEIGER

@<TRIPOS>ATOM
      1  N1        30.5910    8.9750   28.6600 N.2   201  INI201     -0.2923
      2  C2        30.3440    9.2350   27.3170 C.1   201  INI201      0.3663
      3  O2        29.8150   10.3220   27.0710 O.2   201  INI201     -0.1745
      4  N3        30.7140    8.2670   26.4100 N.2   201  INI201     -0.2344
      5  C4        31.3110    7.0440   26.7320 C.1   201  INI201      0.2293
      6  O4        31.5610    6.3130   25.7310 O.2   201  INI201     -0.2107
      7  C5        31.5820    6.7540   28.2550 C.3   201  INI201      0.3505
      8  N5        32.2050    5.4710   28.5990 N.pl3 201  INI201      0.0583
      9  O51       32.4980    4.6780   27.7680 O.2   201  INI201     -0.1294
     10  O52       32.4230    5.2160   29.7570 O.2   201  INI201     -0.1294
     11  C6        31.1780    7.8220   29.2120 C.2   201  INI201      0.2365
     12  N7        31.3180    7.8420   30.6390 N.pl3 201  INI201     -0.2071
     13  C8        30.1080    7.4660   31.4190 C.3   201  INI201      0.1501
     14  C9        29.3210    8.6580   32.1130 C.3   201  INI201      0.2063
     15  O9        28.9600    9.4860   31.0290 O.3   201  INI201     -0.2184
     16  C10       30.0150    9.6810   33.1780 C.3   201  INI201      0.2166
     17  O10       31.0750   10.3550   32.6070 O.3   201  INI201     -0.2175
     18  C11       30.6200    9.1140   34.6720 C.3   201  INI201      0.2175
     19  O11       30.2830    7.6950   34.5920 O.3   201  INI201     -0.2175
     20  C12       30.0480    9.4100   36.1320 C.3   201  INI201      0.2175
     21  O12       28.6860    9.6760   35.9780 O.3   201  INI201     -0.2175
@<TRIPOS>BOND
     1     6     5    2
     2     4     5    2
     3     4     2    2
     4     5     7    1
     5     3     2    2
     6     2     1    2
     7     9     8    2
     8     7     8    1
     9     7    11    1
    10     8    10    2
    11     1    11    2
    12    11    12    1
    13    12    13    1
    14    15    14    1
    15    13    14    1
    16    14    16    1
    17    17    16    1
    18    16    18    1
    19    19    18    1
    20    18    20    1
    21    21    20    1
