@<TRIPOS>MOLECULE
2oby_NAP_A_1.pdb
 48 52 0 0 0
SMALL
GASTEIGER

@<TRIPOS>ATOM
      1  PA        24.9750   36.8290  -42.0970 P.3   1400  NAP1400     0.2189
      2  O1A       24.7110   37.5830  -43.3380 O.2   1400  NAP1400    -0.5170
      3  O2A       26.4270   36.6740  -41.8500 O.3   1400  NAP1400    -0.4371
      4  O5B       24.2540   35.4000  -42.2210 O.3   1400  NAP1400    -0.3112
      5  C5B       22.8490   35.2920  -42.2140 C.3   1400  NAP1400     0.1813
      6  C4B       22.4730   33.8560  -42.5640 C.3   1400  NAP1400     0.1820
      7  O4B       21.1980   33.5100  -42.0570 O.3   1400  NAP1400    -0.3136
      8  C3B       22.4170   33.6060  -44.0640 C.3   1400  NAP1400     0.2157
      9  O3B       23.6780   33.2290  -44.5750 O.3   1400  NAP1400    -0.2175
     10  C2B       21.3890   32.5030  -44.1950 C.3   1400  NAP1400     0.2314
     11  O2B       22.0590   31.2680  -44.2820 O.3   1400  NAP1400    -0.2630
     12  C1B       20.5420   32.6040  -42.9270 C.3   1400  NAP1400     0.3158
     13  N9A       19.1800   33.1050  -43.2100 N.pl3 1400  NAP1400    -0.1439
     14  C8A       18.8690   34.2800  -43.8450 C.3   1400  NAP1400     0.3377
     15  N7A       17.5230   34.3960  -43.9140 N.2   1400  NAP1400    -0.2095
     16  C5A       16.9650   33.3160  -43.3350 C.2   1400  NAP1400     0.2526
     17  C6A       15.6380   32.9440  -43.1430 C.2   1400  NAP1400     0.4393
     18  N6A       14.6610   33.7360  -43.5760 N.pl3 1400  NAP1400     0.2180
     19  N1A       15.3480   31.7510  -42.5010 N.2   1400  NAP1400     0.0021
     20  C2A       16.3810   30.9400  -42.0580 C.3   1400  NAP1400     0.5254
     21  N3A       17.6990   31.3230  -42.2540 N.2   1400  NAP1400    -0.0055
     22  C4A       17.9920   32.4920  -42.8830 C.2   1400  NAP1400     0.3518
     23  O3        24.2840   37.5580  -40.8400 O.3   1400  NAP1400    -0.2703
     24  PN        24.9500   38.2100  -39.5290 P.3   1400  NAP1400     0.2189
     25  O1N       25.3600   39.5910  -39.8420 O.2   1400  NAP1400    -0.5170
     26  O2N       25.9630   37.2760  -39.0030 O.3   1400  NAP1400    -0.4371
     27  O5D       23.7280   38.3240  -38.4910 O.3   1400  NAP1400    -0.3112
     28  C5D       22.7780   37.2980  -38.3510 C.3   1400  NAP1400     0.1813
     29  C4D       21.6390   37.7920  -37.4740 C.3   1400  NAP1400     0.1799
     30  O4D       22.1400   38.2390  -36.2310 O.3   1400  NAP1400    -0.3327
     31  C3D       20.8990   38.9710  -38.0820 C.3   1400  NAP1400     0.2158
     32  O3D       19.5120   38.7450  -38.0250 O.3   1400  NAP1400    -0.2175
     33  C2D       21.2640   40.1530  -37.2110 C.3   1400  NAP1400     0.2309
     34  O2D       20.2200   41.0940  -37.1140 O.3   1400  NAP1400    -0.2158
     35  C1D       21.5450   39.4750  -35.8870 C.3   1400  NAP1400     0.2263
     36  N1N       22.4260   40.2730  -35.0160 N.pl3 1400  NAP1400    -0.2787
     37  C2N       21.8910   40.9160  -33.9250 C.3   1400  NAP1400     0.1244
     38  C3N       22.7250   41.6610  -33.0890 C.2   1400  NAP1400     0.0544
     39  C7N       22.2000   42.3070  -31.8350 C.2   1400  NAP1400     0.2818
     40  O7N       22.3980   43.6990  -31.6410 O.2   1400  NAP1400    -0.2670
     41  N7N       21.5720   41.5480  -30.9360 N.am  1400  NAP1400    -0.0839
     42  C4N       24.0840   41.7520  -33.3770 C.2   1400  NAP1400     0.0033
     43  C5N       24.6120   41.0950  -34.4870 C.2   1400  NAP1400     0.0157
     44  C6N       23.7660   40.3520  -35.3050 C.2   1400  NAP1400     0.0633
     45  P2B       21.2910   29.8930  -44.5970 P.3   1400  NAP1400     0.5328
     46  O1X       19.9590   30.2200  -45.2200 O.3   1400  NAP1400    -0.1145
     47  O2X       22.1160   29.0690  -45.5530 O.2   1400  NAP1400    -0.2224
     48  O3X       21.0770   29.1330  -43.3100 O.3   1400  NAP1400    -0.1145
@<TRIPOS>BOND
     1    47    45    2
     2    46    45    1
     3    45    11    1
     4    45    48    1
     5     9     8    1
     6    11    10    1
     7    10     8    1
     8    10    12    1
     9     8     6    1
    10    15    14    1
    11    15    16    2
    12    14    13    1
    13    18    17    1
    14     2     1    2
    15    16    17    1
    16    16    22    1
    17    13    12    1
    18    13    22    1
    19    17    19    2
    20    12     7    1
    21    22    21    2
    22     6     5    1
    23     6     7    1
    24    19    20    1
    25    21    20    1
    26     4     5    1
    27     4     1    1
    28     1     3    1
    29     1    23    1
    30    23    24    1
    31    25    24    2
    32    24    26    1
    33    24    27    1
    34    27    28    1
    35    28    29    1
    36    31    32    1
    37    31    29    1
    38    31    33    1
    39    29    30    1
    40    33    34    1
    41    33    35    1
    42    30    35    1
    43    35    36    1
    44    44    36    1
    45    44    43    2
    46    36    37    1
    47    43    42    1
    48    37    38    1
    49    42    38    2
    50    38    39    1
    51    39    40    2
    52    39    41   am
