@<TRIPOS>MOLECULE
2oc0_HU1_A_1.pdb
 39 42 0 0 0
SMALL
GASTEIGER

@<TRIPOS>ATOM
      1  C1       192.0400  -10.3830   49.1750 C.2   999  HU1999      0.4213
      2  O2       192.6100  -11.3340   49.7220 O.2   999  HU1999     -0.2246
      3  O3       190.7010  -10.1490   49.1460 O.3   999  HU1999     -0.4408
      4  C4       189.6590  -10.8590   49.8960 C.3   999  HU1999      0.1379
      5  C5       188.8670  -11.6610   48.8600 C.3   999  HU1999      0.0437
      6  C6       188.6840   -9.8300   50.5060 C.3   999  HU1999      0.0437
      7  C7       190.1540  -11.7810   51.0490 C.3   999  HU1999      0.0437
      8  N8       192.6970   -9.4530   48.4900 N.am  999  HU1999     -0.1611
      9  C9       194.1490   -9.4430   48.3710 C.3   999  HU1999      0.1746
     10  C10      194.5800   -8.7860   47.0610 C.3   999  HU1999      0.0290
     11  C11      196.1050   -8.7530   46.9420 C.3   999  HU1999      0.0022
     12  C12      193.9770   -9.5210   45.8640 C.3   999  HU1999      0.0022
     13  C13      196.5840   -8.2110   45.6040 C.3   999  HU1999      0.0001
     14  C14      194.4350   -8.9710   44.5290 C.3   999  HU1999      0.0001
     15  C15      195.9540   -8.9900   44.4410 C.3   999  HU1999      0.0000
     16  C16      194.6890   -8.6180   49.5320 C.2   999  HU1999      0.2459
     17  O17      194.4110   -7.4160   49.6280 O.2   999  HU1999     -0.2730
     18  N18      195.4120   -9.2600   50.4620 N.am  999  HU1999     -0.2716
     19  C19      195.7630  -10.6890   50.4960 C.3   999  HU1999      0.0939
     20  C20      195.9690   -8.5470   51.6160 C.3   999  HU1999      0.1535
     21  C21      196.4400   -9.5730   52.5860 C.3   999  HU1999      0.0289
     22  C22      196.4840  -10.8420   51.8110 C.3   999  HU1999      0.0220
     23  C23      195.6430  -10.7580   53.0880 C.3   999  HU1999      0.0037
     24  C24      196.1630  -11.4340   54.3160 C.3   999  HU1999      0.0001
     25  C25      194.1510  -10.7130   52.9690 C.3   999  HU1999      0.0001
     26  C26      197.0190   -7.5340   51.1720 C.2   999  HU1999      0.2595
     27  O27      198.0030   -7.8880   50.5080 O.2   999  HU1999     -0.2716
     28  N28      196.8130   -6.2780   51.5510 N.am  999  HU1999     -0.2027
     29  C29      197.7280   -5.2110   51.1700 C.3   999  HU1999      0.1347
     30  C30      196.9610   -4.1400   50.3820 C.3   999  HU1999      0.0248
     31  C31      196.3330   -4.6740   49.0670 C.3   999  HU1999      0.0018
     32  C32      195.3550   -3.7610   48.3230 C.3   999  HU1999      0.0001
     33  C33      197.2360   -4.6540   47.8320 C.3   999  HU1999      0.0001
     34  C34      196.0300   -4.1670   47.0070 C.3   999  HU1999      0.0000
     35  O35      199.0140   -5.7020   53.2040 O.3   999  HU1999     -0.2113
     36  C36      198.4720   -4.6140   52.3950 C.3   999  HU1999      0.2503
     37  O37      199.4910   -2.7450   51.3070 O.2   999  HU1999     -0.2688
     38  N38      200.9060   -4.3320   52.0080 N.am  999  HU1999     -0.0855
     39  C39      199.6880   -3.8230   51.8580 C.2   999  HU1999      0.2929
@<TRIPOS>BOND
     1    15    14    1
     2    15    13    1
     3    14    12    1
     4    13    11    1
     5    12    10    1
     6    11    10    1
     7    34    33    1
     8    34    32    1
     9    10     9    1
    10    33    31    1
    11    32    31    1
    12     9     8    1
    13     9    16    1
    14     8     1   am
    15     5     4    1
    16    31    30    1
    17     3     1    1
    18     3     4    1
    19     1     2    2
    20    16    17    2
    21    16    18   am
    22     4     6    1
    23     4     7    1
    24    30    29    1
    25    18    19    1
    26    18    20    1
    27    19    22    1
    28    27    26    2
    29    29    28    1
    30    29    36    1
    31    26    28   am
    32    26    20    1
    33    37    39    2
    34    20    21    1
    35    22    21    1
    36    22    23    1
    37    39    38   am
    38    39    36    1
    39    36    35    1
    40    21    23    1
    41    25    23    1
    42    23    24    1
