@<TRIPOS>MOLECULE
2oc1_HU2_A_1.pdb
 45 45 0 0 0
SMALL
GASTEIGER

@<TRIPOS>ATOM
      1  C1       193.5460   -8.5480   48.9920 C.2   999  HU2999      0.2416
      2  C2       193.2670   -9.3040   47.6970 C.3   999  HU2999      0.0825
      3  C3       191.7810   -9.6740   47.5630 C.3   999  HU2999      0.0348
      4  C4       191.2470  -10.5470   48.6160 C.2   999  HU2999     -0.0302
      5  C5       189.9480  -10.2850   49.0120 C.2   999  HU2999     -0.0307
      6  C6       189.2750  -11.0030   50.0760 C.3   999  HU2999      0.0257
      7  C7       188.0910  -10.1690   50.5850 C.3   999  HU2999      0.0043
      8  C8       186.8200  -10.4080   49.7680 C.3   999  HU2999      0.0003
      9  C9       187.8470  -10.4880   52.0440 C.3   999  HU2999      0.0003
     10  C10      193.6910   -8.3870   46.5290 C.3   999  HU2999      0.0090
     11  C11      195.1270   -7.8840   46.7210 C.3   999  HU2999      0.0005
     12  C12      193.5350   -9.1060   45.1980 C.3   999  HU2999      0.0005
     13  O13      193.0640   -7.4290   49.1950 O.2   999  HU2999     -0.2733
     14  N14      194.3370   -9.1660   49.8580 N.am  999  HU2999     -0.1978
     15  C15      194.6940   -8.5510   51.1240 C.3   999  HU2999      0.1727
     16  C16      195.3290   -9.5810   52.0610 C.3   999  HU2999      0.0311
     17  C17      194.4450  -10.7670   52.4470 C.3   999  HU2999      0.0022
     18  C18      195.1720  -11.6260   53.4550 C.3   999  HU2999      0.0001
     19  C19      193.1260  -10.2780   53.0270 C.3   999  HU2999      0.0001
     20  C20      195.6630   -7.4090   50.8450 C.2   999  HU2999      0.2612
     21  O21      196.7800   -7.6260   50.3640 O.2   999  HU2999     -0.2715
     22  N22      195.2160   -6.1860   51.1020 N.am  999  HU2999     -0.2026
     23  C23      196.0490   -5.0140   50.8710 C.3   999  HU2999      0.1347
     24  C24      195.3470   -4.0180   49.9370 C.3   999  HU2999      0.0248
     25  C25      195.4690   -4.3510   48.4520 C.3   999  HU2999      0.0019
     26  C26      194.1200   -4.2460   47.8050 C.3   999  HU2999      0.0001
     27  O27      197.4310   -5.7690   52.8000 O.3   999  HU2999     -0.2113
     28  C28      196.9340   -4.6250   52.0740 C.3   999  HU2999      0.2487
     29  O29      198.0550   -2.8240   51.0010 O.2   999  HU2999     -0.2705
     30  N30      199.3380   -4.5850   51.5700 N.am  999  HU2999     -0.1933
     31  C31      200.6240   -3.9180   51.4570 C.3   999  HU2999      0.2014
     32  C32      200.9790   -3.7870   49.9930 C.2   999  HU2999      0.2642
     33  O33      200.1370   -3.9660   49.1110 O.2   999  HU2999     -0.2714
     34  C34      198.1740   -3.9480   51.4970 C.2   999  HU2999      0.2741
     35  N35      202.2360   -3.4380   49.7450 N.am  999  HU2999     -0.1895
     36  C36      202.7670   -3.2820   48.4000 C.3   999  HU2999      0.2200
     37  C37      202.5410   -1.9310   47.7160 C.ar  999  HU2999      0.0083
     38  C38      202.3410   -1.8810   46.3420 C.ar  999  HU2999     -0.0021
     39  C39      202.5590   -0.7580   48.4540 C.ar  999  HU2999     -0.0021
     40  C40      202.1610   -0.6350   45.7380 C.ar  999  HU2999     -0.0003
     41  C41      202.3830    0.4810   47.8720 C.ar  999  HU2999     -0.0003
     42  C42      202.1840    0.5410   46.5000 C.ar  999  HU2999     -0.0000
     43  C43      204.2650   -3.5750   48.4460 C.2   999  HU2999      0.3884
     44  O44      204.9840   -3.0420   49.3010 O.co2 999  HU2999     -0.2434
     45  O45      204.7780   -4.3620   47.6480 O.co2 999  HU2999     -0.2434
@<TRIPOS>BOND
     1    12    10    1
     2    40    38   ar
     3    40    42   ar
     4    38    37   ar
     5    42    41   ar
     6    10    11    1
     7    10     2    1
     8     3     2    1
     9     3     4    1
    10    45    43   ar
    11     2     1    1
    12    37    36    1
    13    37    39   ar
    14    26    25    1
    15    41    39   ar
    16    36    43    1
    17    36    35    1
    18    43    44   ar
    19    25    24    1
    20     4     5    2
    21     1    13    2
    22     1    14   am
    23     5     6    1
    24    33    32    2
    25    35    32   am
    26     8     7    1
    27    14    15    1
    28    24    23    1
    29    32    31    1
    30     6     7    1
    31    21    20    2
    32     7     9    1
    33    20    22   am
    34    20    15    1
    35    23    22    1
    36    23    28    1
    37    29    34    2
    38    15    16    1
    39    31    30    1
    40    34    30   am
    41    34    28    1
    42    16    17    1
    43    28    27    1
    44    17    19    1
    45    17    18    1
