@<TRIPOS>MOLECULE
2oc2_RX3_A_1.pdb
 44 48 0 0 0
SMALL
GASTEIGER

@<TRIPOS>ATOM
      1  C1        42.1820   37.6730   50.8170 C.2   680  RX3680      0.4259
      2  O2        43.0560   36.8970   51.1570 O.2   680  RX3680     -0.2242
      3  O1        42.1130   38.9410   51.5090 O.3   680  RX3680     -0.4283
      4  C2        43.2880   39.6800   51.8350 C.3   680  RX3680      0.2368
      5  C3        42.9220   41.1120   52.1770 C.ar  680  RX3680      0.0213
      6  C4        42.8590   42.0810   51.1760 C.ar  680  RX3680     -0.0007
      7  C6        42.5270   43.3980   51.5040 C.ar  680  RX3680     -0.0002
      8  C8        42.2510   43.7540   52.8300 C.ar  680  RX3680     -0.0000
      9  C7        42.3130   42.7880   53.8300 C.ar  680  RX3680     -0.0002
     10  C5        42.6460   41.4700   53.5030 C.ar  680  RX3680     -0.0007
     11  O3        42.0020   37.2800   46.8420 O.2   680  RX3680     -0.2812
     12  P1        42.3530   36.1880   47.8360 P.3   680  RX3680      0.2888
     13  O4        43.7220   36.3490   48.4290 O.3   680  RX3680     -0.1621
     14  C9        41.1440   36.3800   49.0670 C.2   680  RX3680      0.1325
     15  N1        41.2760   37.4440   49.8650 N.am  680  RX3680     -0.1372
     16  C10       39.8850   35.5280   49.1810 C.2   680  RX3680      0.0219
     17  C11       38.9570   35.8690   50.3430 C.ar  680  RX3680      0.0015
     18  C12       38.3610   37.1320   50.4720 C.ar  680  RX3680      0.0000
     19  C14       37.5200   37.4270   51.5510 C.ar  680  RX3680      0.0000
     20  C16       37.2480   36.4490   52.5120 C.ar  680  RX3680      0.0000
     21  C15       37.8310   35.1820   52.3910 C.ar  680  RX3680      0.0000
     22  C13       38.6770   34.8970   51.3110 C.ar  680  RX3680      0.0000
     23  C19       41.2400   34.6760   44.7290 C.2   680  RX3680      0.2419
     24  O5        40.1570   34.6020   45.3170 O.2   680  RX3680     -0.2733
     25  C18       42.5570   34.6710   45.4650 C.3   680  RX3680      0.0878
     26  C20       43.3230   33.3780   45.2020 C.3   680  RX3680      0.0097
     27  C21       43.2460   32.5270   46.4710 C.3   680  RX3680      0.0011
     28  C22       42.6010   33.3530   47.5870 C.3   680  RX3680      0.0106
     29  C17       42.4550   34.7110   46.9620 C.3   680  RX3680      0.0938
     30  N2        41.3740   34.7650   43.4050 N.am  680  RX3680     -0.1952
     31  C23       40.2560   34.7630   42.4700 C.3   680  RX3680      0.2021
     32  C24       39.5550   33.4210   42.3900 C.2   680  RX3680      0.3845
     33  O6        38.4630   33.3360   41.7840 O.co2 680  RX3680     -0.2437
     34  C25       40.8310   35.1960   41.1110 C.3   680  RX3680      0.0612
     35  C26       41.9690   34.3460   40.5830 C.2   680  RX3680      0.0004
     36  C27       41.8570   33.2560   39.7270 C.2   680  RX3680      0.0943
     37  C28       43.3300   34.5100   40.8240 C.2   680  RX3680      0.0115
     38  N3        43.0970   32.7650   39.4650 N.2   680  RX3680     -0.2482
     39  C29       44.0180   33.5140   40.1240 C.2   680  RX3680      0.0631
     40  C30       44.0110   35.4510   41.6050 C.2   680  RX3680      0.0006
     41  C31       45.4220   33.4540   40.2130 C.3   680  RX3680      0.0717
     42  C32       45.4050   35.3830   41.6830 C.2   680  RX3680     -0.0042
     43  C33       46.1080   34.3930   40.9930 C.2   680  RX3680     -0.0198
     44  OXT       40.0740   32.4240   42.9350 O.co2 680  RX3680     -0.2437
@<TRIPOS>BOND
     1    38    36    1
     2    38    39    2
     3    36    35    2
     4    39    41    1
     5    39    37    1
     6    41    43    1
     7    35    37    1
     8    35    34    1
     9    37    40    2
    10    43    42    2
    11    34    31    1
    12    40    42    1
    13    33    32   ar
    14    32    31    1
    15    32    44   ar
    16    31    30    1
    17    30    23   am
    18    23    24    2
    19    23    25    1
    20    26    25    1
    21    26    27    1
    22    25    29    1
    23    27    28    1
    24    11    12    2
    25    29    28    1
    26    29    12    1
    27    12    13    1
    28    12    14    1
    29    14    16    2
    30    14    15    1
    31    16    17    1
    32    15     1   am
    33    17    18   ar
    34    17    22   ar
    35    18    19   ar
    36     1     2    2
    37     1     3    1
    38     6     7   ar
    39     6     5   ar
    40    22    21   ar
    41     7     8   ar
    42     3     4    1
    43    19    20   ar
    44     4     5    1
    45     5    10   ar
    46    21    20   ar
    47     8     9   ar
    48    10     9   ar
