@<TRIPOS>MOLECULE
2oc4_IMH_A_1.pdb
 19 21 0 0 0
SMALL
GASTEIGER

@<TRIPOS>ATOM
      1  O5'       17.3070   11.4670   60.0490 O.3   300  IMH300     -0.2188
      2  C5'       16.5910   11.6550   61.2760 C.3   300  IMH300      0.2020
      3  C4'       15.5100   12.7120   61.1510 C.3   300  IMH300      0.1389
      4  N4'       15.2330   13.2530   59.8070 N.3   300  IMH300     -0.2083
      5  C3'       14.2040   12.0730   61.5930 C.3   300  IMH300      0.2023
      6  O3'       13.7440   12.7910   62.7770 O.3   300  IMH300     -0.2188
      7  C2'       13.2680   12.0680   60.3560 C.3   300  IMH300      0.2036
      8  O2'       11.9580   12.5470   60.6630 O.3   300  IMH300     -0.2185
      9  C1'       13.9000   12.9260   59.2270 C.3   300  IMH300      0.1309
     10  C9        14.1980   12.2040   57.9560 C.2   300  IMH300      0.0348
     11  C8        15.1630   12.6870   57.0880 C.2   300  IMH300      0.0984
     12  N7        15.2610   11.7850   56.0510 N.2   300  IMH300     -0.2310
     13  C5        14.4480   10.7210   56.2200 C.2   300  IMH300      0.1804
     14  C6        14.1550    9.4790   55.5060 C.1   300  IMH300      0.1716
     15  O6        14.8050    9.2510   54.3560 O.2   300  IMH300     -0.2206
     16  N1        13.2360    8.6100   55.9980 N.2   300  IMH300     -0.1739
     17  C2        12.5790    8.8600   57.1340 C.3   300  IMH300      0.2626
     18  N3        12.8040    9.9710   57.8630 N.2   300  IMH300     -0.2415
     19  C4        13.7070   10.8950   57.4600 C.2   300  IMH300      0.1059
@<TRIPOS>BOND
     1    15    14    2
     2    14    16    2
     3    14    13    1
     4    16    17    1
     5    12    13    2
     6    12    11    1
     7    13    19    1
     8    11    10    2
     9    17    18    1
    10    19    18    2
    11    19    10    1
    12    10     9    1
    13     9     4    1
    14     9     7    1
    15     4     3    1
    16     1     2    1
    17     7     8    1
    18     7     5    1
    19     3     2    1
    20     3     5    1
    21     5     6    1
