@<TRIPOS>MOLECULE
2oc7_HU4_A_1.pdb
 40 43 0 0 0
SMALL
GASTEIGER

@<TRIPOS>ATOM
      1  C1       192.7250  -10.6490   49.1130 C.2   999  HU4999      0.4213
      2  O2       193.3580  -11.4910   49.7560 O.2   999  HU4999     -0.2246
      3  O3       191.3810  -10.5690   48.9730 O.3   999  HU4999     -0.4408
      4  C4       190.4070  -11.2010   49.8190 C.3   999  HU4999      0.1379
      5  C5       190.6910  -11.2060   51.3550 C.3   999  HU4999      0.0437
      6  C6       189.0400  -10.4330   49.5490 C.3   999  HU4999      0.0437
      7  C7       190.3320  -12.6770   49.4030 C.3   999  HU4999      0.0437
      8  N8       193.3190   -9.7090   48.3960 N.am  999  HU4999     -0.1611
      9  C9       194.7620   -9.5400   48.3790 C.3   999  HU4999      0.1746
     10  C10      195.1750   -8.7490   47.1390 C.3   999  HU4999      0.0290
     11  C11      196.6720   -8.4660   47.1090 C.3   999  HU4999      0.0022
     12  C12      194.7380   -9.4450   45.8480 C.3   999  HU4999      0.0022
     13  C13      197.0680   -7.6600   45.8650 C.3   999  HU4999      0.0001
     14  C14      195.0970   -8.6450   44.6050 C.3   999  HU4999      0.0001
     15  C15      196.5990   -8.3410   44.5730 C.3   999  HU4999      0.0000
     16  C16      195.1180   -8.7110   49.6160 C.2   999  HU4999      0.2460
     17  O17      194.6500   -7.5760   49.7710 O.2   999  HU4999     -0.2730
     18  N18      195.8910   -9.2890   50.5460 N.am  999  HU4999     -0.2689
     19  C19      196.4960  -10.6250   50.4700 C.3   999  HU4999      0.1234
     20  C20      196.2880   -8.5810   51.7640 C.3   999  HU4999      0.1582
     21  C21      196.7040   -9.6880   52.6660 C.3   999  HU4999      0.0809
     22  C22      197.2860  -10.7080   51.7900 C.3   999  HU4999      0.1390
     23  O23      196.7240  -11.7030   52.6760 O.3   999  HU4999     -0.3590
     24  C24      195.8440  -10.7350   53.3100 C.3   999  HU4999      0.0972
     25  C25      195.8740  -10.8610   54.7700 C.3   999  HU4999      0.0298
     26  C26      194.3810  -10.6980   52.9800 C.3   999  HU4999      0.0298
     27  C27      197.3900   -7.5800   51.4400 C.2   999  HU4999      0.2597
     28  O28      198.4760   -7.9590   50.9950 O.2   999  HU4999     -0.2715
     29  N29      197.1140   -6.3000   51.6690 N.am  999  HU4999     -0.2027
     30  C30      198.0890   -5.2560   51.3720 C.3   999  HU4999      0.1347
     31  C31      197.4180   -4.1460   50.5450 C.3   999  HU4999      0.0248
     32  C32      196.7120   -4.6860   49.2610 C.3   999  HU4999      0.0018
     33  C33      197.5840   -5.0330   48.0550 C.3   999  HU4999      0.0001
     34  C34      195.8900   -3.7370   48.3940 C.3   999  HU4999      0.0001
     35  C35      196.5200   -4.4000   47.1650 C.3   999  HU4999      0.0000
     36  O36      199.1910   -5.7930   53.4620 O.3   999  HU4999     -0.2113
     37  C37      198.8370   -4.7080   52.6190 C.3   999  HU4999      0.2503
     38  O38      200.1230   -2.9080   51.7860 O.2   999  HU4999     -0.2688
     39  N39      201.3000   -4.7280   52.4260 N.am  999  HU4999     -0.0855
     40  C40      200.1640   -4.0530   52.2470 C.2   999  HU4999      0.2929
@<TRIPOS>BOND
     1    15    14    1
     2    15    13    1
     3    14    12    1
     4    12    10    1
     5    13    11    1
     6    11    10    1
     7    10     9    1
     8    35    33    1
     9    35    34    1
    10    33    32    1
    11     9     8    1
    12     9    16    1
    13    34    32    1
    14     8     1   am
    15     3     1    1
    16     3     4    1
    17     1     2    2
    18    32    31    1
    19     7     4    1
    20     6     4    1
    21    16    17    2
    22    16    18   am
    23     4     5    1
    24    19    18    1
    25    19    22    1
    26    31    30    1
    27    18    20    1
    28    28    27    2
    29    30    29    1
    30    30    37    1
    31    27    29   am
    32    27    20    1
    33    20    21    1
    34    38    40    2
    35    22    21    1
    36    22    23    1
    37    40    39   am
    38    40    37    1
    39    37    36    1
    40    21    24    1
    41    23    24    1
    42    26    24    1
    43    24    25    1
