@<TRIPOS>MOLECULE
2oc8_HU5_A_1.pdb
 37 39 0 0 0
SMALL
GASTEIGER

@<TRIPOS>ATOM
      1  C1       191.5920  -10.1860   48.7500 C.2   999  HU5999      0.3395
      2  O2       192.0660  -11.1660   49.3350 O.2   999  HU5999     -0.2492
      3  N3       190.2990   -9.8640   48.8010 N.am  999  HU5999     -0.1906
      4  C4       189.2860  -10.5100   49.6620 C.3   999  HU5999      0.0804
      5  C5       187.9990   -9.6340   49.6920 C.3   999  HU5999      0.0218
      6  C6       188.9830  -11.8620   49.0550 C.3   999  HU5999      0.0218
      7  C7       189.7210  -10.7410   51.1230 C.3   999  HU5999      0.0218
      8  N8       192.3270   -9.3950   47.9780 N.am  999  HU5999     -0.1796
      9  C9       193.7790   -9.4370   48.0190 C.3   999  HU5999      0.1727
     10  C10      194.4210   -8.8430   46.7560 C.3   999  HU5999      0.0270
     11  C11      195.9390   -8.6900   47.0180 C.3   999  HU5999      0.0022
     12  C12      194.2100   -9.8700   45.6560 C.3   999  HU5999      0.0022
     13  C13      193.8260   -7.4920   46.2850 C.3   999  HU5999      0.0022
     14  C14      194.2520   -8.5910   49.1840 C.2   999  HU5999      0.2459
     15  O15      193.9210   -7.4090   49.2730 O.2   999  HU5999     -0.2730
     16  N16      194.9540   -9.2070   50.1400 N.am  999  HU5999     -0.2716
     17  C17      195.2610  -10.6370   50.2610 C.3   999  HU5999      0.0939
     18  C18      195.4460   -8.4470   51.2880 C.3   999  HU5999      0.1535
     19  C19      195.9750   -9.3940   52.2850 C.3   999  HU5999      0.0289
     20  C20      196.1560  -10.6180   51.4410 C.3   999  HU5999      0.0220
     21  C21      195.3430  -10.6760   52.7190 C.3   999  HU5999      0.0037
     22  C22      195.9630  -11.3970   53.8250 C.3   999  HU5999      0.0001
     23  C23      193.8340  -10.7070   52.6810 C.3   999  HU5999      0.0001
     24  C24      196.4940   -7.4710   50.7860 C.2   999  HU5999      0.2595
     25  O25      197.3720   -7.8540   50.0120 O.2   999  HU5999     -0.2716
     26  N26      196.3740   -6.2070   51.1900 N.am  999  HU5999     -0.2027
     27  C27      197.3090   -5.1670   50.7740 C.3   999  HU5999      0.1347
     28  C28      196.5690   -4.0860   49.9910 C.3   999  HU5999      0.0248
     29  C29      195.9770   -4.5370   48.6430 C.3   999  HU5999      0.0018
     30  C30      195.0840   -3.4840   47.9390 C.3   999  HU5999      0.0001
     31  C31      196.9130   -4.4880   47.4170 C.3   999  HU5999      0.0001
     32  C32      195.7960   -3.8250   46.6080 C.3   999  HU5999      0.0000
     33  O33      198.6090   -5.5990   52.8440 O.3   999  HU5999     -0.2113
     34  C34      198.0540   -4.5400   51.9960 C.3   999  HU5999      0.2503
     35  O35      199.0130   -2.5210   51.2670 O.2   999  HU5999     -0.2688
     36  N36      200.3910   -4.3000   51.1770 N.am  999  HU5999     -0.0855
     37  C37      199.2230   -3.7220   51.4480 C.2   999  HU5999      0.2929
@<TRIPOS>BOND
     1    12    10    1
     2    13    10    1
     3    32    31    1
     4    32    30    1
     5    10    11    1
     6    10     9    1
     7    31    29    1
     8    30    29    1
     9     8     9    1
    10     8     1   am
    11     9    14    1
    12    29    28    1
    13     1     3   am
    14     1     2    2
    15     3     4    1
    16     6     4    1
    17    14    15    2
    18    14    16   am
    19     4     5    1
    20     4     7    1
    21    28    27    1
    22    25    24    2
    23    16    17    1
    24    16    18    1
    25    17    20    1
    26    27    26    1
    27    27    34    1
    28    24    26   am
    29    24    18    1
    30    36    37   am
    31    35    37    2
    32    18    19    1
    33    20    19    1
    34    20    21    1
    35    37    34    1
    36    34    33    1
    37    19    21    1
    38    23    21    1
    39    21    22    1
