@<TRIPOS>MOLECULE
2oc9_IMH_A_1.pdb
 19 21 0 0 0
SMALL
GASTEIGER

@<TRIPOS>ATOM
      1  O5'       17.6340   11.8410   60.4520 O.3   300  IMH300     -0.2188
      2  C5'       16.4120   11.3680   61.0290 C.3   300  IMH300      0.2020
      3  C4'       15.4160   12.5150   61.1480 C.3   300  IMH300      0.1389
      4  N4'       15.1570   13.1740   59.8610 N.3   300  IMH300     -0.2083
      5  C3'       14.0370   12.0220   61.6120 C.3   300  IMH300      0.2023
      6  O3'       13.6610   12.7620   62.8180 O.3   300  IMH300     -0.2188
      7  C2'       13.0920   12.1260   60.3750 C.3   300  IMH300      0.2036
      8  O2'       11.8380   12.7790   60.6520 O.3   300  IMH300     -0.2185
      9  C1'       13.8560   12.8480   59.2320 C.3   300  IMH300      0.1309
     10  C9        14.2130   12.0870   57.9840 C.2   300  IMH300      0.0348
     11  C8        15.2090   12.5680   57.1330 C.2   300  IMH300      0.0984
     12  N7        15.3460   11.6640   56.1090 N.2   300  IMH300     -0.2310
     13  C5        14.5020   10.6050   56.2370 C.2   300  IMH300      0.1804
     14  C6        14.2130    9.3650   55.4990 C.1   300  IMH300      0.1716
     15  O6        14.8800    9.0680   54.3550 O.2   300  IMH300     -0.2206
     16  N1        13.2750    8.5230   55.9910 N.2   300  IMH300     -0.1739
     17  C2        12.5910    8.7680   57.1150 C.3   300  IMH300      0.2626
     18  N3        12.7970    9.8810   57.8460 N.2   300  IMH300     -0.2415
     19  C4        13.7200   10.7860   57.4570 C.2   300  IMH300      0.1059
@<TRIPOS>BOND
     1    15    14    2
     2    14    16    2
     3    14    13    1
     4    16    17    1
     5    12    13    2
     6    12    11    1
     7    13    19    1
     8    17    18    1
     9    11    10    2
    10    19    18    2
    11    19    10    1
    12    10     9    1
    13     9     4    1
    14     9     7    1
    15     4     3    1
    16     7     8    1
    17     7     5    1
    18     1     2    1
    19     2     3    1
    20     3     5    1
    21     5     6    1
