@<TRIPOS>MOLECULE
2ocb_GNP_A_1.pdb
 32 34 0 0 0
SMALL
GASTEIGER

@<TRIPOS>ATOM
      1  PG       -37.1570   15.1190   24.1010 P.3   201  GNP201      0.4884
      2  O1G      -38.1290   14.3650   24.9690 O.3   201  GNP201     -0.1240
      3  O2G      -36.0510   15.7070   24.8480 O.3   201  GNP201     -0.1240
      4  O3G      -38.0840   16.0920   23.3760 O.2   201  GNP201     -0.2331
      5  N3B      -36.4950   14.0470   23.0750 N.3   201  GNP201     -0.0163
      6  PB       -35.5530   14.2830   21.7930 P.3   201  GNP201      0.4669
      7  O1B      -36.4770   14.6820   20.7010 O.2   201  GNP201     -0.2351
      8  O2B      -34.4790   15.2410   22.0970 O.3   201  GNP201     -0.1253
      9  O3A      -34.8700   12.9300   21.4020 O.3   201  GNP201     -0.2360
     10  PA       -33.4690   12.3690   21.7520 P.3   201  GNP201      0.2220
     11  O1A      -32.3350   13.0550   21.1120 O.2   201  GNP201     -0.5170
     12  O2A      -33.3070   12.2640   23.2320 O.3   201  GNP201     -0.4370
     13  O5'      -33.4060   10.9370   21.1830 O.3   201  GNP201     -0.3111
     14  C5'      -34.3900    9.9390   21.5230 C.3   201  GNP201      0.1813
     15  C4'      -33.8530    8.5210   21.2990 C.3   201  GNP201      0.1799
     16  O4'      -33.7170    8.2820   19.8680 O.3   201  GNP201     -0.3326
     17  C3'      -32.4690    8.1740   21.8970 C.3   201  GNP201      0.2158
     18  O3'      -32.3850    6.7850   22.3460 O.3   201  GNP201     -0.2175
     19  C2'      -31.4990    8.4110   20.7470 C.3   201  GNP201      0.2310
     20  O2'      -30.3190    7.6100   20.8390 O.3   201  GNP201     -0.2158
     21  C1'      -32.3690    8.0150   19.5520 C.3   201  GNP201      0.2293
     22  N9       -32.0600    8.7380   18.3040 N.pl3 201  GNP201     -0.2354
     23  C8       -31.8900   10.1000   18.0750 C.3   201  GNP201      0.2246
     24  N7       -31.6340   10.3800   16.8200 N.2   201  GNP201     -0.2322
     25  C5       -31.6310    9.1310   16.1840 C.2   201  GNP201      0.2182
     26  C6       -31.4150    8.7500   14.8240 C.1   201  GNP201      0.2372
     27  O6       -31.1510    9.4640   13.8630 O.2   201  GNP201     -0.2069
     28  N1       -31.5210    7.3680   14.6270 N.2   201  GNP201     -0.2485
     29  C2       -31.7960    6.4310   15.6170 C.1   201  GNP201      0.2531
     30  N2       -31.8740    5.1310   15.2520 N.pl3 201  GNP201     -0.0226
     31  N3       -32.0080    6.7700   16.8830 N.2   201  GNP201     -0.3074
     32  C4       -31.9050    8.1210   17.0890 C.2   201  GNP201      0.2300
@<TRIPOS>BOND
     1    27    26    2
     2    28    26    2
     3    28    29    2
     4    26    25    1
     5    30    29    1
     6    29    31    2
     7    25    24    2
     8    25    32    1
     9    24    23    1
    10    31    32    2
    11    32    22    1
    12    23    22    1
    13    22    21    1
    14    21    16    1
    15    21    19    1
    16    16    15    1
    17     7     6    2
    18    19    20    1
    19    19    17    1
    20    11    10    2
    21    13    14    1
    22    13    10    1
    23    15    14    1
    24    15    17    1
    25     9    10    1
    26     9     6    1
    27    10    12    1
    28     6     8    1
    29     6     5    1
    30    17    18    1
    31     5     1    1
    32     4     1    2
    33     1     3    1
    34     1     2    1
