@<TRIPOS>MOLECULE
2ocf_EST_A_1.pdb
 20 23 0 0 0
SMALL
GASTEIGER

@<TRIPOS>ATOM
      1  C1        47.8780  -16.7410    5.1230 C.ar  596  EST596     -0.0013
      2  C2        49.0010  -17.3110    5.7220 C.ar  596  EST596      0.0417
      3  C3        50.2830  -16.9000    5.3620 C.ar  596  EST596      0.1954
      4  O3        51.3740  -17.4460    5.9550 O.3   596  EST596     -0.2866
      5  C4        50.4720  -15.9230    4.4000 C.ar  596  EST596      0.0375
      6  C5        49.3880  -15.3390    3.7700 C.ar  596  EST596     -0.0230
      7  C6        49.6420  -14.2950    2.7190 C.3   596  EST596      0.0261
      8  C7        48.3920  -14.0400    1.9100 C.3   596  EST596      0.0050
      9  C8        47.2010  -13.8290    2.8240 C.3   596  EST596      0.0044
     10  C9        46.8440  -15.1500    3.4880 C.3   596  EST596      0.0220
     11  C10       48.0240  -15.7500    4.1570 C.ar  596  EST596     -0.0263
     12  C11       45.6330  -15.0190    4.4150 C.3   596  EST596      0.0044
     13  C12       44.4230  -14.5040    3.6340 C.3   596  EST596      0.0028
     14  C13       44.7720  -13.2110    2.9110 C.3   596  EST596      0.0282
     15  C14       45.9680  -13.4700    2.0150 C.3   596  EST596      0.0028
     16  C15       46.0370  -12.3110    1.0230 C.3   596  EST596      0.0027
     17  C16       44.5970  -11.8100    0.9440 C.3   596  EST596      0.0329
     18  C17       43.7700  -12.6920    1.8820 C.3   596  EST596      0.1519
     19  O17       42.7040  -11.9330    2.4470 O.3   596  EST596     -0.2232
     20  C18       45.0650  -12.1580    3.9770 C.3   596  EST596      0.0025
@<TRIPOS>BOND
     1    17    16    1
     2    17    18    1
     3    16    15    1
     4    18    19    1
     5    18    14    1
     6     8     7    1
     7     8     9    1
     8    15     9    1
     9    15    14    1
    10     7     6    1
    11     9    10    1
    12    14    13    1
    13    14    20    1
    14    10    11    1
    15    10    12    1
    16    13    12    1
    17     6    11   ar
    18     6     5   ar
    19    11     1   ar
    20     5     3   ar
    21     1     2   ar
    22     3     2   ar
    23     3     4    1
