@<TRIPOS>MOLECULE
2oci_TYC_A_1.pdb
 13 13 0 0 0
SMALL
GASTEIGER

@<TRIPOS>ATOM
      1  N        -25.2190  173.1690  -25.1190 N.3   401  TYC401     -0.1226
      2  CA       -25.9400  171.8520  -25.1980 C.3   401  TYC401      0.1753
      3  C        -25.6160  171.0180  -23.9750 C.2   401  TYC401      0.2785
      4  O        -25.1480  171.5470  -22.9860 O.2   401  TYC401     -0.2701
      5  CB       -25.5240  171.1630  -26.5230 C.3   401  TYC401      0.0548
      6  CG       -26.0200  171.9430  -27.7180 C.ar  401  TYC401     -0.0200
      7  CD1      -25.1830  172.9050  -28.3290 C.ar  401  TYC401     -0.0009
      8  CD2      -27.3210  171.7180  -28.2190 C.ar  401  TYC401     -0.0009
      9  CE1      -25.6470  173.6440  -29.4390 C.ar  401  TYC401      0.0417
     10  CE2      -27.7880  172.4550  -29.3300 C.ar  401  TYC401      0.0417
     11  OH       -27.4000  174.1330  -31.0070 O.3   401  TYC401     -0.2866
     12  CZ       -26.9520  173.4210  -29.9410 C.ar  401  TYC401      0.1957
     13  NXT      -25.6540  169.5020  -24.0600 N.am  401  TYC401     -0.0865
@<TRIPOS>BOND
     1    11    12    1
     2    12     9   ar
     3    12    10   ar
     4     9     7   ar
     5    10     8   ar
     6     7     6   ar
     7     8     6   ar
     8     6     5    1
     9     5     2    1
    10     2     1    1
    11     2     3    1
    12    13     3   am
    13     3     4    2
