@<TRIPOS>MOLECULE
2ocp_DTP_A_1.pdb
 30 32 0 0 0
SMALL
GASTEIGER

@<TRIPOS>ATOM
      1  PG        41.2590  120.4740   11.6520 P.3   301  DTP301      0.5373
      2  O1G       41.0510  121.9290   11.9090 O.3   301  DTP301     -0.1143
      3  O2G       42.6720  120.1760   10.9420 O.2   301  DTP301     -0.2221
      4  O3G       41.1940  119.6860   13.0440 O.3   301  DTP301     -0.1143
      5  PB        38.7540  119.1560   10.8630 P.3   301  DTP301      0.2277
      6  O1B       37.8470  119.2760    9.7050 O.2   301  DTP301     -0.5168
      7  O2B       38.0320  119.4200   12.2700 O.3   301  DTP301     -0.4368
      8  O3B       40.1240  119.9520   10.6520 O.3   301  DTP301     -0.2258
      9  PA        40.5220  116.8860   11.2960 P.3   301  DTP301      0.2189
     10  O1A       40.5770  116.4360   12.7170 O.3   301  DTP301     -0.4371
     11  O2A       41.8670  117.5520   10.6850 O.2   301  DTP301     -0.5170
     12  O3A       39.1860  117.6560   10.8900 O.3   301  DTP301     -0.2700
     13  O5'       40.2740  115.5430   10.4980 O.3   301  DTP301     -0.3112
     14  C5'       39.2450  115.6430    9.5380 C.3   301  DTP301      0.1813
     15  C4'       39.1840  114.6550    8.4110 C.3   301  DTP301      0.1795
     16  O4'       38.7010  113.3950    8.9330 O.3   301  DTP301     -0.3155
     17  C3'       37.9880  115.3920    7.8050 C.3   301  DTP301      0.1883
     18  O3'       37.8900  115.3720    6.3910 O.3   301  DTP301     -0.2202
     19  C2'       36.7970  114.8480    8.6340 C.3   301  DTP301      0.1151
     20  C1'       37.2690  113.4350    8.9810 C.3   301  DTP301      0.2873
     21  N9        36.7830  112.8180   10.2170 N.pl3 301  DTP301     -0.1460
     22  C8        37.0750  113.1260   11.5130 C.3   301  DTP301      0.3377
     23  N7        36.4680  112.3000   12.3210 N.2   301  DTP301     -0.2095
     24  C5        35.7730  111.4080   11.5770 C.2   301  DTP301      0.2526
     25  C6        34.9550  110.3110   11.8620 C.2   301  DTP301      0.4393
     26  N6        34.7350  109.9600   13.1740 N.pl3 301  DTP301      0.2180
     27  N1        34.4070  109.6290   10.8540 N.2   301  DTP301      0.0021
     28  C2        34.6230  109.9660    9.5950 C.3   301  DTP301      0.5254
     29  N3        35.3870  110.9900    9.2820 N.2   301  DTP301     -0.0055
     30  C4        35.9680  111.7220   10.2330 C.2   301  DTP301      0.3518
@<TRIPOS>BOND
     1    18    17    1
     2    17    15    1
     3    17    19    1
     4    15    16    1
     5    15    14    1
     6    19    20    1
     7    16    20    1
     8    20    21    1
     9    29    28    1
    10    29    30    2
    11    14    13    1
    12    28    27    1
    13     6     5    2
    14    21    30    1
    15    21    22    1
    16    30    24    1
    17    13     9    1
    18     8     5    1
    19     8     1    1
    20    11     9    2
    21    27    25    2
    22     5    12    1
    23     5     7    1
    24    12     9    1
    25     3     1    2
    26     9    10    1
    27    22    23    1
    28    24    25    1
    29    24    23    2
    30     1     2    1
    31     1     4    1
    32    25    26    1
