@<TRIPOS>MOLECULE
2ocu_TYL_A_1.pdb
 11 11 0 0 0
SMALL
GASTEIGER

@<TRIPOS>ATOM
      1  C1        13.4120   17.4970   17.0550 C.ar  3001  TYL3001     0.0736
      2  C2        13.9970   18.5930   17.6970 C.ar  3001  TYL3001     0.0199
      3  C3        15.3560   18.8600   17.5590 C.ar  3001  TYL3001     0.0434
      4  C4        16.1470   18.0300   16.7720 C.ar  3001  TYL3001     0.1958
      5  C5        15.5750   16.9360   16.1260 C.ar  3001  TYL3001     0.0434
      6  C6        14.2130   16.6700   16.2640 C.ar  3001  TYL3001     0.0199
      7  N         12.0770   17.2860   17.2280 N.am  3001  TYL3001    -0.1792
      8  C         11.3370   16.3010   16.7030 C.2   3001  TYL3001     0.2461
      9  CM         9.8880   16.3520   17.0840 C.3   3001  TYL3001     0.0968
     10  O4        17.4770   18.2920   16.6310 O.3   3001  TYL3001    -0.2866
     11  O         11.7650   15.4240   15.9710 O.2   3001  TYL3001    -0.2730
@<TRIPOS>BOND
     1    11     8    2
     2     5     6   ar
     3     5     4   ar
     4     6     1   ar
     5    10     4    1
     6     8     9    1
     7     8     7   am
     8     4     3   ar
     9     1     7    1
    10     1     2   ar
    11     3     2   ar
