@<TRIPOS>MOLECULE
2od2_CNA_A_1.pdb
 44 48 0 0 0
SMALL
GASTEIGER

@<TRIPOS>ATOM
      1  PA        20.1600   84.1980   10.8660 P.3   1001  CNA1001     0.2189
      2  O1A       18.9250   84.8990   11.2770 O.2   1001  CNA1001    -0.5170
      3  O2A       21.1620   84.1670   11.9580 O.3   1001  CNA1001    -0.4371
      4  O5B       20.7670   84.8770    9.6620 O.3   1001  CNA1001    -0.3112
      5  C5B       20.1320   85.1380    8.3440 C.3   1001  CNA1001     0.1813
      6  C4B       21.1160   85.8450    7.4340 C.3   1001  CNA1001     0.1821
      7  O4B       20.5490   86.1150    6.1380 O.3   1001  CNA1001    -0.3135
      8  C3B       21.5770   87.1590    7.8980 C.3   1001  CNA1001     0.2184
      9  O3B       23.0180   86.9100    7.9900 O.3   1001  CNA1001    -0.2174
     10  C2B       21.2730   88.1900    6.8760 C.3   1001  CNA1001     0.2570
     11  O2B       22.3460   89.0550    6.4210 O.3   1001  CNA1001    -0.2130
     12  C1B       20.6380   87.4720    5.7860 C.3   1001  CNA1001     0.3186
     13  N9A       19.2470   87.8480    5.3380 N.pl3 1001  CNA1001    -0.1439
     14  C8A       18.0520   88.2800    5.9660 C.3   1001  CNA1001     0.3377
     15  N7A       17.0440   88.4910    5.0420 N.2   1001  CNA1001    -0.2095
     16  C5A       17.6130   88.1830    3.7890 C.2   1001  CNA1001     0.2526
     17  C6A       17.1650   88.1690    2.3620 C.2   1001  CNA1001     0.4393
     18  N6A       15.9430   88.5000    1.9830 N.pl3 1001  CNA1001     0.2180
     19  N1A       18.0850   87.7720    1.2720 N.2   1001  CNA1001     0.0021
     20  C2A       19.4630   87.3830    1.5580 C.3   1001  CNA1001     0.5254
     21  N3A       19.9660   87.3690    2.8760 N.2   1001  CNA1001    -0.0055
     22  C4A       18.9960   87.7790    3.9510 C.2   1001  CNA1001     0.3518
     23  O3        19.7720   82.7820   10.6540 O.3   1001  CNA1001    -0.2703
     24  PN        20.2700   81.4360   10.2670 P.3   1001  CNA1001     0.2188
     25  O1N       21.7180   81.5350    9.9650 O.3   1001  CNA1001    -0.4371
     26  O2N       19.8320   80.8270    9.0740 O.2   1001  CNA1001    -0.5170
     27  O5D       20.6540   80.9790   11.6480 O.3   1001  CNA1001    -0.3138
     28  C5D       19.8440   79.7510   11.8500 C.3   1001  CNA1001     0.1517
     29  C4D       18.6590   79.8850   12.7440 C.3   1001  CNA1001     0.0648
     30  C4'       17.6690   80.8660   12.4920 C.3   1001  CNA1001     0.0276
     31  C3D       18.3770   79.1310   13.8440 C.3   1001  CNA1001     0.1862
     32  O3D       19.0560   79.0790   15.1690 O.3   1001  CNA1001    -0.2203
     33  C2D       16.8690   79.3410   13.9930 C.3   1001  CNA1001     0.2000
     34  O2D       16.4890   79.0020   15.2160 O.3   1001  CNA1001    -0.2186
     35  C1D       16.6840   80.7680   13.4520 C.3   1001  CNA1001     0.1061
     36  N1N       15.4140   80.9520   12.6860 N.pl3 1001  CNA1001    -0.3015
     37  C2N       14.7650   79.9600   11.7470 C.3   1001  CNA1001     0.1224
     38  C3N       13.5310   80.3550   11.1070 C.2   1001  CNA1001     0.0543
     39  C7N       12.7720   79.4940   10.1570 C.2   1001  CNA1001     0.2818
     40  O7N       12.8250   78.1040   10.4590 O.2   1001  CNA1001    -0.2670
     41  N7N       12.0650   80.0270    9.0450 N.am  1001  CNA1001    -0.0839
     42  C4N       12.9420   81.7030   11.3840 C.2   1001  CNA1001     0.0033
     43  C5N       13.6000   82.6470   12.3070 C.2   1001  CNA1001     0.0157
     44  C6N       14.8500   82.3470   13.0060 C.2   1001  CNA1001     0.0616
@<TRIPOS>BOND
     1    19    20    1
     2    19    17    2
     3    20    21    1
     4    18    17    1
     5    17    16    1
     6    21    22    2
     7    16    22    1
     8    16    15    2
     9    22    13    1
    10    15    14    1
    11    13    12    1
    12    13    14    1
    13    12     7    1
    14    12    10    1
    15     7     6    1
    16    11    10    1
    17    10     8    1
    18     6     8    1
    19     6     5    1
    20     8     9    1
    21     5     4    1
    22    41    39   am
    23    26    24    2
    24     4     1    1
    25    25    24    1
    26    39    40    2
    27    39    38    1
    28    24    23    1
    29    24    27    1
    30    23     1    1
    31     1     2    2
    32     1     3    1
    33    38    42    2
    34    38    37    1
    35    42    43    1
    36    27    28    1
    37    37    36    1
    38    28    29    1
    39    43    44    2
    40    30    29    1
    41    30    35    1
    42    36    44    1
    43    36    35    1
    44    29    31    1
    45    35    33    1
    46    31    33    1
    47    31    32    1
    48    33    34    1
