@<TRIPOS>MOLECULE
2od3_0G6_B_1.pdb
 30 31 0 0 0
SMALL
GASTEIGER

@<TRIPOS>ATOM
      1  N          0.9670   -0.6130  -28.7960 N.3   301  0G6301     -0.1228
      2  CA         1.3320    0.1710  -27.5470 C.3   301  0G6301      0.1721
      3  C          1.0270   -0.7500  -26.3530 C.2   301  0G6301      0.2437
      4  O          1.4580   -1.9230  -26.3530 O.2   301  0G6301     -0.2733
      5  CB         2.8470    0.5700  -27.5530 C.3   301  0G6301      0.0547
      6  CG         3.3260    1.3490  -26.3220 C.ar  301  0G6301     -0.0202
      7  CD1        2.8200    2.6480  -26.0320 C.ar  301  0G6301     -0.0042
      8  CD2        4.2910    0.7750  -25.4410 C.ar  301  0G6301     -0.0042
      9  CE1        3.2680    3.3670  -24.8660 C.ar  301  0G6301     -0.0003
     10  CE2        4.7460    1.4840  -24.2800 C.ar  301  0G6301     -0.0003
     11  CZ         4.2240    2.7880  -23.9950 C.ar  301  0G6301     -0.0000
     12  N1         0.2960   -0.2600  -25.2980 N.am  301  0G6301     -0.2718
     13  CA1        0.0100   -1.1390  -24.1340 C.3   301  0G6301      0.1535
     14  C1        -0.9080   -2.3170  -24.5100 C.2   301  0G6301      0.2595
     15  O1        -1.7530   -2.1870  -25.4040 O.2   301  0G6301     -0.2716
     16  CB1       -0.7780   -0.2320  -23.1750 C.3   301  0G6301      0.0310
     17  CG1       -0.4710    1.1960  -23.6090 C.3   301  0G6301      0.0237
     18  CD        -0.3000    1.1020  -25.1100 C.3   301  0G6301      0.0939
     19  N2        -0.7690   -3.4590  -23.7950 N.am  301  0G6301     -0.2032
     20  CA2       -1.6370   -4.6160  -24.0350 C.3   301  0G6301      0.1257
     21  C2        -2.3870   -4.8910  -22.7130 C.3   301  0G6301      0.1718
     22  O2        -3.6600   -5.5910  -23.0260 O.3   301  0G6301     -0.2213
     23  CB2       -0.7870   -5.8340  -24.4520 C.3   301  0G6301      0.0280
     24  CG2       -0.0560   -5.6410  -25.7330 C.3   301  0G6301      0.0488
     25  CD3        0.8010   -6.8660  -26.0190 C.3   301  0G6301      0.2205
     26  NE         1.1540   -6.9260  -27.4450 N.pl3 301  0G6301     -0.0865
     27  CZ1        1.9360   -7.8580  -27.9990 C.cat 301  0G6301      0.5346
     28  NH1        2.5030   -8.8500  -27.2300 N.pl3 301  0G6301      0.1354
     29  NH2        2.1640   -7.7900  -29.3230 N.pl3 301  0G6301      0.1354
     30  C3        -2.8600   -3.6050  -21.9100 C.3   301  0G6301      0.0373
@<TRIPOS>BOND
     1    29    27    1
     2     1     2    1
     3    27    26    2
     4    27    28    1
     5     5     2    1
     6     5     6    1
     7     2     3    1
     8    26    25    1
     9     4     3    2
    10     3    12   am
    11     6     7   ar
    12     6     8   ar
    13     7     9   ar
    14    25    24    1
    15    24    23    1
    16     8    10   ar
    17    15    14    2
    18    12    18    1
    19    12    13    1
    20    18    17    1
    21     9    11   ar
    22    14    13    1
    23    14    19   am
    24    23    20    1
    25    10    11   ar
    26    13    16    1
    27    20    19    1
    28    20    21    1
    29    17    16    1
    30    22    21    1
    31    21    30    1
