@<TRIPOS>MOLECULE
2od6_OHA_A_1.pdb
 19 18 0 0 0
SMALL
GASTEIGER

@<TRIPOS>ATOM
      1  O2        18.8830   47.5400   27.7030 O.co2 300  OHA300     -0.2457
      2  C16       17.7160   47.8070   27.4290 C.2   300  OHA300      0.3649
      3  O3        16.8510   46.8440   27.6550 O.co2 300  OHA300     -0.2457
      4  C15       17.2550   49.1600   26.9080 C.3   300  OHA300      0.1141
      5  C14       15.8960   49.0760   26.1870 C.3   300  OHA300      0.0118
      6  C13       15.2270   50.4350   25.8640 C.3   300  OHA300      0.0006
      7  C12       14.8500   50.6340   24.3810 C.3   300  OHA300      0.0000
      8  C11       13.7640   51.7130   24.1190 C.3   300  OHA300      0.0000
      9  C10       14.0510   52.7040   22.9720 C.3   300  OHA300      0.0004
     10  C9        15.0010   53.8280   23.4430 C.3   300  OHA300      0.0077
     11  C8        15.7150   54.6460   22.3410 C.3   300  OHA300      0.0645
     12  C7        16.8060   55.5420   22.9440 C.2   300  OHA300      0.1506
     13  O1        17.9420   55.1120   23.1280 O.2   300  OHA300     -0.2961
     14  C6        16.5610   56.9750   23.3620 C.3   300  OHA300      0.0645
     15  C5        15.1740   57.4970   22.9900 C.3   300  OHA300      0.0077
     16  C4        15.0520   58.9890   23.3510 C.3   300  OHA300      0.0004
     17  C3        13.7610   59.6870   22.8790 C.3   300  OHA300      0.0000
     18  C2        13.4500   59.5790   21.3800 C.3   300  OHA300      0.0000
     19  C1        12.1400   58.8350   21.1570 C.3   300  OHA300      0.0000
@<TRIPOS>BOND
     1    19    18    1
     2    18    17    1
     3    11    12    1
     4    11    10    1
     5    17    16    1
     6    12    13    2
     7    12    14    1
     8     9    10    1
     9     9     8    1
    10    15    16    1
    11    15    14    1
    12     8     7    1
    13     7     6    1
    14     6     5    1
    15     5     4    1
    16     4     2    1
    17     2     3   ar
    18     2     1   ar
