@<TRIPOS>MOLECULE
2od7_A1R_A_1.pdb
 35 38 0 0 0
SMALL
GASTEIGER

@<TRIPOS>ATOM
      1  N1        39.9860   59.4350   23.8490 N.2   1001  A1R1001     0.0021
      2  C2        41.0750   60.3080   24.1050 C.3   1001  A1R1001     0.5254
      3  N3        41.4210   60.7540   25.4520 N.2   1001  A1R1001    -0.0055
      4  C4        40.5590   60.2270   26.4860 C.2   1001  A1R1001     0.3518
      5  C5        39.4560   59.3610   26.3490 C.2   1001  A1R1001     0.2526
      6  C6        39.1600   58.9480   24.9400 C.2   1001  A1R1001     0.4393
      7  N6        38.0920   58.0780   24.6010 N.pl3 1001  A1R1001     0.2180
      8  N7        38.8930   59.0880   27.5840 N.2   1001  A1R1001    -0.2095
      9  C8        39.6330   59.7650   28.4690 C.3   1001  A1R1001     0.3377
     10  N9        40.6620   60.4750   27.8450 N.pl3 1001  A1R1001    -0.1439
     11  C1'       41.7300   61.3400   28.3670 C.3   1001  A1R1001     0.3186
     12  C2'       41.4890   62.2850   29.4690 C.3   1001  A1R1001     0.2570
     13  O2'       41.2640   63.6330   28.9730 O.3   1001  A1R1001    -0.2130
     14  C3'       42.6810   62.1870   30.3520 C.3   1001  A1R1001     0.2184
     15  O3'       43.6480   63.2580   30.2220 O.3   1001  A1R1001    -0.2174
     16  O4'       42.7100   60.4320   28.7900 O.3   1001  A1R1001    -0.3135
     17  C4'       43.3440   60.8620   30.0150 C.3   1001  A1R1001     0.1821
     18  C5'       43.1740   59.7080   31.0570 C.3   1001  A1R1001     0.1813
     19  O5'       43.7730   60.1050   32.3320 O.3   1001  A1R1001    -0.3112
     20  PA        43.7940   59.1870   33.5730 P.3   1001  A1R1001     0.2189
     21  O1A       42.4500   58.7010   33.9410 O.2   1001  A1R1001    -0.5170
     22  O2A       44.4530   59.9210   34.6640 O.3   1001  A1R1001    -0.4371
     23  O3A       44.7520   58.0100   33.3790 O.3   1001  A1R1001    -0.2703
     24  PB        46.1660   57.7370   32.9960 P.3   1001  A1R1001     0.2189
     25  O1B       46.8590   58.9910   32.6910 O.3   1001  A1R1001    -0.4371
     26  O2B       46.4710   56.9560   31.8730 O.2   1001  A1R1001    -0.5170
     27  O5N       46.5770   57.3560   34.4130 O.3   1001  A1R1001    -0.3117
     28  C5N       46.3050   56.3330   35.2510 C.3   1001  A1R1001     0.1760
     29  N4N       45.2540   55.2960   36.7900 N.2   1001  A1R1001    -0.2675
     30  C1N       45.8260   54.8160   38.0760 C.2   1001  A1R1001     0.1022
     31  O2N       45.6550   56.2990   39.4300 O.3   1001  A1R1001    -0.2138
     32  C2N       46.6990   55.7570   38.5710 C.3   1001  A1R1001     0.2245
     33  O3N       46.7160   58.2820   38.1480 O.3   1001  A1R1001    -0.2178
     34  C3N       46.8240   56.9230   37.7290 C.3   1001  A1R1001     0.2125
     35  C4N       45.8910   56.6380   36.5680 C.3   1001  A1R1001     0.1661
@<TRIPOS>BOND
     1     1     2    1
     2     1     6    2
     3     2     3    1
     4     7     6    1
     5     6     5    1
     6     3     4    2
     7     5     4    1
     8     5     8    2
     9     4    10    1
    10     8     9    1
    11    10    11    1
    12    10     9    1
    13    11    16    1
    14    11    12    1
    15    16    17    1
    16    13    12    1
    17    12    14    1
    18    17    14    1
    19    17    18    1
    20    15    14    1
    21    18    19    1
    22    26    24    2
    23    19    20    1
    24    25    24    1
    25    24    23    1
    26    24    27    1
    27    23    20    1
    28    20    21    2
    29    20    22    1
    30    27    28    1
    31    28    35    1
    32    35    29    1
    33    35    34    1
    34    29    30    2
    35    34    33    1
    36    34    32    1
    37    30    32    1
    38    32    31    1
