@<TRIPOS>MOLECULE
2ode_GDP_A_1.pdb
 28 30 0 0 0
SMALL
GASTEIGER

@<TRIPOS>ATOM
      1  PB        23.4030   12.4580   30.1940 P.3   1001  GDP1001     0.5373
      2  O1B       24.6580   12.5450   30.9980 O.3   1001  GDP1001    -0.1143
      3  O2B       22.6650   13.7940   30.1810 O.3   1001  GDP1001    -0.1143
      4  O3B       23.5060   12.0180   28.7380 O.2   1001  GDP1001    -0.2221
      5  O3A       22.3600   11.3890   30.8420 O.3   1001  GDP1001    -0.2261
      6  PA        22.5410   10.6670   32.2720 P.3   1001  GDP1001     0.2231
      7  O1A       22.5460   11.6710   33.4230 O.3   1001  GDP1001    -0.4370
      8  O2A       23.7510    9.7710   32.2700 O.2   1001  GDP1001    -0.5169
      9  O5'       21.1970    9.8090   32.3270 O.3   1001  GDP1001    -0.3111
     10  C5'       19.8760   10.3340   32.5000 C.3   1001  GDP1001     0.1813
     11  C4'       19.1090    9.4550   33.4630 C.3   1001  GDP1001     0.1799
     12  O4'       18.8640    8.1990   32.8050 O.3   1001  GDP1001    -0.3326
     13  C3'       19.8130    9.1220   34.7550 C.3   1001  GDP1001     0.2158
     14  O3'       18.9100    9.1570   35.8580 O.3   1001  GDP1001    -0.2175
     15  C2'       20.3280    7.6990   34.5900 C.3   1001  GDP1001     0.2310
     16  O2'       20.3500    6.9450   35.7960 O.3   1001  GDP1001    -0.2158
     17  C1'       19.3550    7.1040   33.6160 C.3   1001  GDP1001     0.2293
     18  N9        19.8900    6.1250   32.6610 N.pl3 1001  GDP1001    -0.2354
     19  C8        20.9160    6.2860   31.7870 C.3   1001  GDP1001     0.2246
     20  N7        21.0730    5.1640   31.0510 N.2   1001  GDP1001    -0.2322
     21  C5        20.1200    4.3060   31.4390 C.2   1001  GDP1001     0.2182
     22  C6        19.7230    2.9510   31.0460 C.1   1001  GDP1001     0.2372
     23  O6        20.3200    2.4010   30.0950 O.2   1001  GDP1001    -0.2069
     24  N1        18.6850    2.4020   31.7100 N.2   1001  GDP1001    -0.2485
     25  C2        18.0040    3.0220   32.6980 C.1   1001  GDP1001     0.2531
     26  N2        16.9930    2.3740   33.3130 N.pl3 1001  GDP1001    -0.0226
     27  N3        18.2950    4.2850   33.1340 N.2   1001  GDP1001    -0.3074
     28  C4        19.3420    4.9270   32.5140 C.2   1001  GDP1001     0.2300
@<TRIPOS>BOND
     1     4     1    2
     2    23    22    2
     3     3     1    1
     4     1     5    1
     5     1     2    1
     6     5     6    1
     7    22    21    1
     8    22    24    2
     9    20    21    2
    10    20    19    1
    11    21    28    1
    12    24    25    2
    13    19    18    1
    14     8     6    2
    15     6     9    1
    16     6     7    1
    17     9    10    1
    18    10    11    1
    19    28    18    1
    20    28    27    2
    21    18    17    1
    22    25    27    2
    23    25    26    1
    24    12    11    1
    25    12    17    1
    26    11    13    1
    27    17    15    1
    28    15    13    1
    29    15    16    1
    30    13    14    1
