@<TRIPOS>MOLECULE
2odn_DTP_A_1.pdb
 30 32 0 0 0
SMALL
GASTEIGER

@<TRIPOS>ATOM
      1  PG       -28.9700   82.8990    6.0980 P.3   350  DTP350      0.5373
      2  O1G      -28.0990   84.0150    5.4950 O.3   350  DTP350     -0.1143
      3  O2G      -29.8190   82.4330    5.0470 O.2   350  DTP350     -0.2221
      4  O3G      -29.7980   83.4420    7.3590 O.3   350  DTP350     -0.1143
      5  PB       -26.6630   81.1010    6.5010 P.3   350  DTP350      0.2277
      6  O1B      -25.8110   82.2910    6.0880 O.3   350  DTP350     -0.4368
      7  O2B      -26.6360   79.9700    5.6720 O.2   350  DTP350     -0.5168
      8  O3B      -28.1700   81.4660    6.5520 O.3   350  DTP350     -0.2258
      9  PA       -24.9510   81.2060    8.8730 P.3   350  DTP350      0.2189
     10  O1A      -23.7270   81.0240    8.0220 O.2   350  DTP350     -0.5170
     11  O2A      -25.1590   82.5630    9.3890 O.3   350  DTP350     -0.4371
     12  O3A      -26.1510   80.5890    7.9440 O.3   350  DTP350     -0.2700
     13  O5'      -24.9010   80.2370   10.0210 O.3   350  DTP350     -0.3112
     14  C5'      -25.9290   80.1090   11.0320 C.3   350  DTP350      0.1813
     15  C4'      -25.4330   79.6050   12.4040 C.3   350  DTP350      0.1795
     16  O4'      -24.0380   79.9730   12.5830 O.3   350  DTP350     -0.3155
     17  C3'      -26.1900   80.1810   13.6100 C.3   350  DTP350      0.1883
     18  O3'      -26.8970   79.1660   14.3380 O.3   350  DTP350     -0.2202
     19  C2'      -25.1540   80.9160   14.4490 C.3   350  DTP350      0.1151
     20  C1'      -23.8230   80.7440   13.7290 C.3   350  DTP350      0.2873
     21  N9       -23.2990   82.0260   13.2710 N.pl3 350  DTP350     -0.1460
     22  C8       -23.4430   82.8420   12.1760 C.3   350  DTP350      0.3377
     23  N7       -22.7300   83.9460   12.2300 N.2   350  DTP350     -0.2095
     24  C5       -22.0650   83.8520   13.4370 C.2   350  DTP350      0.2526
     25  C6       -21.1190   84.7240   14.1250 C.2   350  DTP350      0.4393
     26  N6       -20.6920   85.8840   13.6230 N.pl3 350  DTP350      0.2180
     27  N1       -20.6270   84.3190   15.3710 N.2   350  DTP350      0.0021
     28  C2       -21.0540   83.1240   15.8960 C.3   350  DTP350      0.5254
     29  N3       -21.9340   82.2420   15.3340 N.2   350  DTP350     -0.0055
     30  C4       -22.3990   82.6690   14.0990 C.2   350  DTP350      0.3518
@<TRIPOS>BOND
     1     3     1    2
     2     2     1    1
     3     7     5    2
     4     6     5    1
     5     1     8    1
     6     1     4    1
     7     5     8    1
     8     5    12    1
     9    12     9    1
    10    10     9    2
    11     9    11    1
    12     9    13    1
    13    13    14    1
    14    14    15    1
    15    22    23    1
    16    22    21    1
    17    23    24    2
    18    15    16    1
    19    15    17    1
    20    16    20    1
    21    21    20    1
    22    21    30    1
    23    24    30    1
    24    24    25    1
    25    17    18    1
    26    17    19    1
    27    26    25    1
    28    20    19    1
    29    30    29    2
    30    25    27    2
    31    29    28    1
    32    27    28    1
