@<TRIPOS>MOLECULE
2odw_AGS_A_1.pdb
 31 33 0 0 0
SMALL
GASTEIGER

@<TRIPOS>ATOM
      1  PG        79.6680    6.1080    6.8760 P.3   430  AGS430      0.4340
      2  S1G       78.2370    5.1210    7.8290 S.3   430  AGS430      0.0416
      3  O2G       79.7050    6.4040    5.3370 O.2   430  AGS430     -0.2423
      4  O3G       80.5510    7.0680    7.6970 O.3   430  AGS430     -0.1305
      5  PB        78.6110    8.8640    6.4540 P.3   430  AGS430      0.2262
      6  O1B       77.5870    9.1850    5.4270 O.2   430  AGS430     -0.5168
      7  O2B       79.2840    9.7090    7.4460 O.3   430  AGS430     -0.4369
      8  O3B       78.5870    7.3460    6.9530 O.3   430  AGS430     -0.2405
      9  PA        76.7770    8.3910    8.8370 P.3   430  AGS430      0.2189
     10  O1A       75.5990    7.5430    8.4390 O.2   430  AGS430     -0.5170
     11  O2A       77.8500    7.6350    9.5760 O.3   430  AGS430     -0.4371
     12  O3A       77.3610    9.0670    7.4630 O.3   430  AGS430     -0.2701
     13  O5'       76.2710    9.7190    9.6240 O.3   430  AGS430     -0.3112
     14  C5'       77.1430   10.1450   10.6950 C.3   430  AGS430      0.1813
     15  C4'       76.4650   10.2240   12.0640 C.3   430  AGS430      0.1821
     16  O4'       75.1180    9.6540   11.9960 O.3   430  AGS430     -0.3135
     17  C3'       77.1100    9.4480   13.2220 C.3   430  AGS430      0.2184
     18  O3'       78.2320   10.1160   13.8080 O.3   430  AGS430     -0.2174
     19  C2'       75.9150    9.1950   14.1730 C.3   430  AGS430      0.2570
     20  O2'       75.6970   10.1640   15.1810 O.3   430  AGS430     -0.2130
     21  C1'       74.7410    9.0420   13.2530 C.3   430  AGS430      0.3186
     22  N9        74.3030    7.5840   13.0590 N.pl3 430  AGS430     -0.1439
     23  C8        74.6490    6.8100   11.9540 C.3   430  AGS430      0.3377
     24  N7        74.1700    5.5570   11.9590 N.2   430  AGS430     -0.2095
     25  C5        73.4770    5.4800   13.1530 C.2   430  AGS430      0.2526
     26  C6        72.6970    4.4310   13.8100 C.2   430  AGS430      0.4393
     27  N6        72.5210    3.1790   13.3210 N.pl3 430  AGS430      0.2180
     28  N1        72.1230    4.7320   15.0250 N.2   430  AGS430      0.0021
     29  C2        72.2760    5.9840   15.5660 C.3   430  AGS430      0.5254
     30  N3        72.9640    7.0350   15.0540 N.2   430  AGS430     -0.0055
     31  C4        73.5360    6.7360   13.8330 C.2   430  AGS430      0.3518
@<TRIPOS>BOND
     1     3     1    2
     2     6     5    2
     3     5     8    1
     4     5     7    1
     5     5    12    1
     6     1     8    1
     7     1     4    1
     8     1     2    1
     9    12     9    1
    10    10     9    2
    11     9    11    1
    12     9    13    1
    13    13    14    1
    14    14    15    1
    15    23    24    1
    16    23    22    1
    17    24    25    2
    18    16    15    1
    19    16    21    1
    20    15    17    1
    21    22    21    1
    22    22    31    1
    23    25    26    1
    24    25    31    1
    25    17    18    1
    26    17    19    1
    27    21    19    1
    28    27    26    1
    29    26    28    2
    30    31    30    2
    31    19    20    1
    32    28    29    1
    33    30    29    1
