@<TRIPOS>MOLECULE
2oec_ANU_B_1.pdb
 16 18 0 0 0
SMALL
GASTEIGER

@<TRIPOS>ATOM
      1  O3'        7.7210   27.7860   -2.3650 O.3     2  ANU2       -0.2164
      2  C3'        8.9460   27.0740   -2.1910 C.3     2  ANU2        0.2255
      3  C2'        9.4290   26.5620   -3.5280 C.3     2  ANU2        0.2492
      4  O2        10.1050   25.3080   -3.3780 O.2     2  ANU2       -0.4366
      5  C2        11.3940   25.4190   -3.8190 C.2     2  ANU2        0.3591
      6  N3        12.3080   24.4270   -3.9070 N.2     2  ANU2       -0.2807
      7  C4        13.5400   24.7420   -4.3790 C.1     2  ANU2        0.2105
      8  O4        14.4190   23.8590   -4.4810 O.2     2  ANU2       -0.2091
      9  C5        13.8350   26.0550   -4.7560 C.2     2  ANU2        0.1230
     10  C6        12.8580   27.0390   -4.6430 C.2     2  ANU2        0.0859
     11  N1        11.6620   26.6680   -4.1750 N.pl3   2  ANU2       -0.2037
     12  C1'       10.5090   27.5410   -3.9790 C.3     2  ANU2        0.2442
     13  O4'       10.7660   28.4280   -2.8870 O.3     2  ANU2       -0.3314
     14  C4'       10.0060   28.0560   -1.7300 C.3     2  ANU2        0.1840
     15  C5'       10.8950   27.4220   -0.6610 C.3     2  ANU2        0.2142
     16  O5'       12.2120   27.9780   -0.7350 O.3     2  ANU2       -0.2176
@<TRIPOS>BOND
     1     9    10    2
     2     9     7    1
     3    10    11    1
     4     8     7    2
     5     7     6    2
     6    11    12    1
     7    11     5    1
     8    12     3    1
     9    12    13    1
    10     6     5    2
    11     5     4    1
    12     3     4    1
    13     3     2    1
    14    13    14    1
    15     1     2    1
    16     2    14    1
    17    14    15    1
    18    16    15    1
