@<TRIPOS>MOLECULE
2oeg_UPG_A_1.pdb
 36 38 0 0 0
SMALL
GASTEIGER

@<TRIPOS>ATOM
      1  N1        26.2530   39.1110   44.5790 N.am  5206  UPG5206    -0.1766
      2  C2        27.0530   39.4760   45.7120 C.1   5206  UPG5206     0.2845
      3  N3        27.5490   38.4130   46.4330 N.2   5206  UPG5206    -0.2452
      4  C4        27.3560   37.0570   46.2200 C.1   5206  UPG5206     0.2182
      5  C5        26.6000   36.7310   44.9820 C.2   5206  UPG5206     0.1242
      6  C6        26.0830   37.7540   44.2370 C.2   5206  UPG5206     0.0929
      7  O2        27.2340   40.6440   46.0170 O.2   5206  UPG5206    -0.1918
      8  O4        27.7760   36.2120   46.9910 O.2   5206  UPG5206    -0.2085
      9  C1C       25.6860   40.2150   43.7480 C.3   5206  UPG5206     0.2401
     10  C2C       25.9760   40.2000   42.2370 C.3   5206  UPG5206     0.2319
     11  O2C       27.1850   40.8270   41.8480 O.3   5206  UPG5206    -0.2157
     12  C3C       24.6670   40.7950   41.7280 C.3   5206  UPG5206     0.2158
     13  C4C       23.5940   40.2340   42.6530 C.3   5206  UPG5206     0.1799
     14  O4C       24.2560   40.2080   43.9420 O.3   5206  UPG5206    -0.3320
     15  O3C       24.7220   42.2480   41.7890 O.3   5206  UPG5206    -0.2175
     16  C5C       23.1630   38.7490   42.4180 C.3   5206  UPG5206     0.1813
     17  O5C       22.7560   38.4970   41.1570 O.3   5206  UPG5206    -0.3112
     18  PA        23.2250   37.4150   40.1400 P.3   5206  UPG5206     0.2189
     19  O1A       23.5960   38.1440   38.9290 O.2   5206  UPG5206    -0.5170
     20  O2A       24.0830   36.3600   40.6570 O.3   5206  UPG5206    -0.4371
     21  O3A       21.8150   36.7920   40.0150 O.3   5206  UPG5206    -0.2703
     22  PB        20.9580   35.6980   40.7940 P.3   5206  UPG5206     0.2208
     23  O1B       21.4510   35.4660   42.1320 O.3   5206  UPG5206    -0.4371
     24  O2B       20.9360   34.5140   39.9090 O.2   5206  UPG5206    -0.5170
     25  O3B       19.4740   36.2820   40.9850 O.3   5206  UPG5206    -0.2857
     26  C1'       19.0240   37.4430   41.6790 C.3   5206  UPG5206     0.2742
     27  C2'       17.9130   36.9640   42.6080 C.3   5206  UPG5206     0.2409
     28  C3'       16.7360   36.3560   41.7850 C.3   5206  UPG5206     0.2198
     29  C4'       16.2370   37.4470   40.8150 C.3   5206  UPG5206     0.2144
     30  C5'       17.4030   37.9430   39.9280 C.3   5206  UPG5206     0.1835
     31  C6'       16.9510   39.1740   39.1640 C.3   5206  UPG5206     0.2142
     32  O2'       18.4310   36.0040   43.5110 O.3   5206  UPG5206    -0.2149
     33  O3'       15.6710   35.9070   42.6400 O.3   5206  UPG5206    -0.2174
     34  O4'       15.2210   36.9220   39.9360 O.3   5206  UPG5206    -0.2176
     35  O5'       18.5220   38.4320   40.7580 O.3   5206  UPG5206    -0.3254
     36  O6'       18.0050   39.3730   38.2290 O.3   5206  UPG5206    -0.2176
@<TRIPOS>BOND
     1    36    31    1
     2    19    18    2
     3    31    30    1
     4    24    22    2
     5    30    35    1
     6    30    29    1
     7    34    29    1
     8    21    18    1
     9    21    22    1
    10    18    20    1
    11    18    17    1
    12    35    26    1
    13    22    25    1
    14    22    23    1
    15    29    28    1
    16    25    26    1
    17    17    16    1
    18    26    27    1
    19    12    15    1
    20    12    10    1
    21    12    13    1
    22    28    27    1
    23    28    33    1
    24    11    10    1
    25    10     9    1
    26    16    13    1
    27    27    32    1
    28    13    14    1
    29     9    14    1
    30     9     1    1
    31     6     1    1
    32     6     5    2
    33     1     2   am
    34     5     4    1
    35     2     7    2
    36     2     3    2
    37     4     3    2
    38     4     8    2
