@<TRIPOS>MOLECULE
2oem_1AE_A_1.pdb
 13 12 0 0 0
SMALL
GASTEIGER

@<TRIPOS>ATOM
      1  C1        -8.9020  -24.6060  -33.8320 C.3   901  1AE901      0.0005
      2  C2        -9.5660  -25.8950  -33.3300 C.3   901  1AE901      0.0082
      3  C3       -10.9110  -25.5900  -32.6570 C.3   901  1AE901      0.0727
      4  C4       -11.5880  -26.8560  -32.0930 C.2   901  1AE901      0.2148
      5  O4       -10.9140  -27.7950  -31.6550 O.2   901  1AE901     -0.2878
      6  C5       -13.1270  -26.9980  -32.0550 C.2   901  1AE901      0.2672
      7  O5       -13.6950  -28.0890  -31.4830 O.2   901  1AE901     -0.2801
      8  C6       -14.0600  -25.9440  -32.6450 C.2   901  1AE901      0.2280
      9  O7       -15.4280  -25.9350  -32.5500 O.2   901  1AE901     -0.3931
     10  P        -16.3270  -24.8120  -33.3010 P.3   901  1AE901      0.5889
     11  O8       -17.6790  -24.7730  -32.6970 O.3   901  1AE901     -0.1039
     12  O9       -16.3820  -25.2070  -34.8610 O.2   901  1AE901     -0.2114
     13  O10      -15.6050  -23.3850  -33.1780 O.3   901  1AE901     -0.1039
@<TRIPOS>BOND
     1    12    10    2
     2     1     2    1
     3     2     3    1
     4    10    13    1
     5    10    11    1
     6    10     9    1
     7     3     4    1
     8     8     9    1
     9     8     6    2
    10     4     6    1
    11     4     5    2
    12     6     7    1
