@<TRIPOS>MOLECULE
2oeo_THP_A_1.pdb
 25 26 0 0 0
SMALL
GASTEIGER

@<TRIPOS>ATOM
      1  P2        16.6740    9.4320    5.9900 P.3   300  THP300      0.5327
      2  O4P       15.3980    9.9890    6.4930 O.3   300  THP300     -0.1145
      3  O5P       16.9920    8.0040    6.1430 O.2   300  THP300     -0.2224
      4  O6P       17.8630   10.2760    6.6170 O.3   300  THP300     -0.1145
      5  P1        19.2900   14.0640    2.0290 P.3   300  THP300      0.5326
      6  O1P       18.3760   15.1940    2.1330 O.3   300  THP300     -0.1145
      7  O2P       20.5800   14.0120    1.3230 O.2   300  THP300     -0.2224
      8  O3P       19.5790   13.5670    3.5230 O.3   300  THP300     -0.1145
      9  O5'       16.8010    9.7560    4.4450 O.3   300  THP300     -0.2675
     10  C5'       16.5510   11.0240    3.8940 C.3   300  THP300      0.1857
     11  C4'       17.3980   11.1360    2.6380 C.3   300  THP300      0.1748
     12  O4'       17.0300   10.0970    1.7310 O.3   300  THP300     -0.3340
     13  C3'       17.1460   12.4500    1.9360 C.3   300  THP300      0.1600
     14  O3'       18.3530   12.9460    1.3340 O.3   300  THP300     -0.2700
     15  C2'       16.1340   12.1330    0.8870 C.3   300  THP300      0.0847
     16  C1'       16.5330   10.6920    0.5380 C.3   300  THP300      0.2089
     17  N1        15.3050   10.0530    0.0580 N.am  300  THP300     -0.1794
     18  C2        15.1330    9.9920   -1.3130 C.1   300  THP300      0.2844
     19  O2        15.9450   10.4320   -2.1170 O.2   300  THP300     -0.1918
     20  N3        13.9810    9.4060   -1.7620 N.2   300  THP300     -0.2455
     21  C4        12.9890    8.8750   -0.9650 C.1   300  THP300      0.2134
     22  O4        12.0150    8.3880   -1.5120 O.2   300  THP300     -0.2088
     23  C5        13.2200    8.9570    0.4750 C.2   300  THP300      0.0891
     24  C5M       12.1740    8.3920    1.4610 C.3   300  THP300      0.0462
     25  C6        14.3550    9.5360    0.9340 C.2   300  THP300      0.0877
@<TRIPOS>BOND
     1    19    18    2
     2    20    18    2
     3    20    21    2
     4    22    21    2
     5    18    17   am
     6    21    23    1
     7    17    16    1
     8    17    25    1
     9    23    25    2
    10    23    24    1
    11    16    15    1
    12    16    12    1
    13    15    13    1
    14     7     5    2
    15    14    13    1
    16    14     5    1
    17    12    11    1
    18    13    11    1
    19     5     6    1
    20     5     8    1
    21    11    10    1
    22    10     9    1
    23     9     1    1
    24     1     3    2
    25     1     2    1
    26     1     4    1
