@<TRIPOS>MOLECULE
2oep_ADP_A_1.pdb
 27 29 0 0 0
SMALL
GASTEIGER

@<TRIPOS>ATOM
      1  PB        25.1220    6.9450    7.4130 P.3   350  ADP350      0.5373
      2  O1B       25.7390    7.9880    6.5000 O.2   350  ADP350     -0.2221
      3  O2B       25.8920    5.9120    8.1140 O.3   350  ADP350     -0.1143
      4  O3B       23.7550    7.3900    8.0340 O.3   350  ADP350     -0.1143
      5  PA        26.9890    8.7150    9.0160 P.3   350  ADP350      0.2231
      6  O1A       28.1640    8.1250    8.2940 O.2   350  ADP350     -0.5169
      7  O2A       26.8400    9.4720   10.2470 O.3   350  ADP350     -0.4370
      8  O3A       25.5820    7.8810    8.6270 O.3   350  ADP350     -0.2261
      9  O5'       27.4060    7.4680   10.0080 O.3   350  ADP350     -0.3111
     10  C5'       26.7260    7.1510   11.2810 C.3   350  ADP350      0.1813
     11  C4'       27.6880    7.1180   12.4790 C.3   350  ADP350      0.1821
     12  O4'       28.6180    8.2900   12.3700 O.3   350  ADP350     -0.3135
     13  C3'       27.0350    7.3010   13.8400 C.3   350  ADP350      0.2184
     14  O3'       26.7870    6.0160   14.4460 O.3   350  ADP350     -0.2174
     15  C2'       28.0550    8.1440   14.7070 C.3   350  ADP350      0.2570
     16  O2'       28.9430    7.2800   15.4910 O.3   350  ADP350     -0.2130
     17  C1'       28.8580    8.9270   13.6510 C.3   350  ADP350      0.3186
     18  N9        28.4290   10.4290   13.5530 N.pl3 350  ADP350     -0.1439
     19  C8        27.9080   11.0250   12.4960 C.3   350  ADP350      0.3377
     20  N7        27.6360   12.2550   12.6820 N.2   350  ADP350     -0.2095
     21  C5        28.0120   12.5180   13.9810 C.2   350  ADP350      0.2526
     22  C6        27.9680   13.6960   14.8270 C.2   350  ADP350      0.4393
     23  N6        27.4980   14.9020   14.3920 N.pl3 350  ADP350      0.2180
     24  N1        28.4280   13.5920   16.0950 N.2   350  ADP350      0.0021
     25  C2        28.8900   12.4170   16.5300 C.3   350  ADP350      0.5254
     26  N3        28.9710   11.2600   15.8200 N.2   350  ADP350     -0.0055
     27  C4        28.5010   11.3760   14.5500 C.2   350  ADP350      0.3518
@<TRIPOS>BOND
     1     2     1    2
     2     1     4    1
     3     1     3    1
     4     1     8    1
     5     6     5    2
     6     8     5    1
     7     5     9    1
     8     5     7    1
     9     9    10    1
    10    10    11    1
    11    12    11    1
    12    12    17    1
    13    11    13    1
    14    19    20    1
    15    19    18    1
    16    20    21    2
    17    18    17    1
    18    18    27    1
    19    17    15    1
    20    13    14    1
    21    13    15    1
    22    21    27    1
    23    21    22    1
    24    23    22    1
    25    27    26    2
    26    15    16    1
    27    22    24    2
    28    26    25    1
    29    24    25    1
