@<TRIPOS>MOLECULE
2of0_CMZ_A_1.pdb
 19 20 0 0 0
SMALL
GASTEIGER

@<TRIPOS>ATOM
      1  C1        73.3240   49.5770    7.1870 C.3   390  CMZ390      0.0311
      2  C2        72.3760   49.1990    8.2860 C.ar  390  CMZ390     -0.0189
      3  C3        72.8390   49.1580    9.5940 C.ar  390  CMZ390     -0.0044
      4  C4        71.9910   48.8000   10.6340 C.ar  390  CMZ390     -0.0016
      5  C5        70.6670   48.4900   10.3550 C.ar  390  CMZ390      0.0121
      6  C6        69.7540   48.1050   11.4990 C.3   390  CMZ390      0.0342
      7  C7        70.1900   48.5430    9.0310 C.ar  390  CMZ390      0.1343
      8  O8        68.8840   48.2150    8.7940 O.3   390  CMZ390     -0.4730
      9  C9        68.3650   48.7240    7.5610 C.3   390  CMZ390      0.2394
     10  C10       66.8470   48.5150    7.6420 C.3   390  CMZ390      0.2112
     11  O11       66.2280   48.7860    6.3830 O.3   390  CMZ390     -0.2176
     12  C12       66.5570   47.0630    8.0930 C.3   390  CMZ390      0.1094
     13  N13       65.1890   46.6310    7.7430 N.3   390  CMZ390     -0.2662
     14  C14       65.0350   45.2150    8.1300 C.3   390  CMZ390      0.1047
     15  C15       63.5990   44.7450    7.8330 C.3   390  CMZ390      0.1595
     16  O16       62.6330   45.5740    8.5090 O.3   390  CMZ390     -0.3508
     17  C17       62.7940   46.9410    8.1010 C.3   390  CMZ390      0.1595
     18  C18       64.1930   47.4370    8.4730 C.3   390  CMZ390      0.1047
     19  C19       71.0570   48.8910    7.9910 C.ar  390  CMZ390      0.0323
@<TRIPOS>BOND
     1    11    10    1
     2     1     2    1
     3     9    10    1
     4     9     8    1
     5    10    12    1
     6    13    12    1
     7    13    14    1
     8    13    18    1
     9    15    14    1
    10    15    16    1
    11    19     2   ar
    12    19     7   ar
    13    17    18    1
    14    17    16    1
    15     2     3   ar
    16     8     7    1
    17     7     5   ar
    18     3     4   ar
    19     5     4   ar
    20     5     6    1
