@<TRIPOS>MOLECULE
2of1_THP_A_1.pdb
 25 26 0 0 0
SMALL
GASTEIGER

@<TRIPOS>ATOM
      1  P2        47.8900   53.1400   20.7450 P.3   501  THP501      0.5327
      2  O4P       48.7600   52.6420   19.6570 O.2   501  THP501     -0.2224
      3  O5P       46.4510   53.3420   20.5360 O.3   501  THP501     -0.1145
      4  O6P       48.5110   54.4890   21.3050 O.3   501  THP501     -0.1145
      5  P1        52.1070   52.1200   26.3200 P.3   501  THP501      0.5326
      6  O1P       52.6740   52.9140   25.2360 O.2   501  THP501     -0.2224
      7  O2P       52.6230   50.8650   26.8730 O.3   501  THP501     -0.1145
      8  O3P       51.9190   53.0990   27.5560 O.3   501  THP501     -0.1145
      9  O5'       48.0370   52.1650   21.9720 O.3   501  THP501     -0.2675
     10  C5'       49.2760   51.7280   22.4540 C.3   501  THP501      0.1857
     11  C4'       49.1220   51.5860   23.9460 C.3   501  THP501      0.1748
     12  O4'       48.0790   50.6670   24.2400 O.3   501  THP501     -0.3340
     13  C3'       50.3810   51.0650   24.5680 C.3   501  THP501      0.1600
     14  O3'       50.6300   51.8020   25.7640 O.3   501  THP501     -0.2700
     15  C2'       50.1220   49.6130   24.8610 C.3   501  THP501      0.0847
     16  C1'       48.5850   49.5700   24.9770 C.3   501  THP501      0.2089
     17  N1        48.1440   48.2880   24.3900 N.am  501  THP501     -0.1794
     18  C2        48.1070   47.1730   25.2180 C.1   501  THP501      0.2844
     19  O2        48.4120   47.1890   26.4010 O.2   501  THP501     -0.1918
     20  N3        47.7040   45.9970   24.6450 N.2   501  THP501     -0.2455
     21  C4        47.3310   45.8320   23.3220 C.1   501  THP501      0.2134
     22  O4        46.9980   44.7210   22.9510 O.2   501  THP501     -0.2088
     23  C5        47.3770   47.0260   22.4990 C.2   501  THP501      0.0891
     24  C5M       46.9750   46.9450   21.0070 C.3   501  THP501      0.0462
     25  C6        47.7770   48.1970   23.0480 C.2   501  THP501      0.0877
@<TRIPOS>BOND
     1     2     1    2
     2     3     1    1
     3     1     4    1
     4     1     9    1
     5    24    23    1
     6     9    10    1
     7    10    11    1
     8    23    25    2
     9    23    21    1
    10    22    21    2
    11    25    17    1
    12    21    20    2
    13    11    12    1
    14    11    13    1
    15    12    16    1
    16    17    16    1
    17    17    18   am
    18    13    15    1
    19    13    14    1
    20    20    18    2
    21    15    16    1
    22    18    19    2
    23     6     5    2
    24    14     5    1
    25     5     7    1
    26     5     8    1
