@<TRIPOS>MOLECULE
2of2_547_A_1.pdb
 30 34 0 0 0
SMALL
GASTEIGER

@<TRIPOS>ATOM
      1  C1        23.3130   35.2040   82.6920 C.ar  201  547201      0.1034
      2  N2        24.6110   34.9970   82.3530 N.ar  201  547201     -0.2097
      3  C3        25.6330   35.8390   82.7690 C.ar  201  547201      0.2309
      4  C4        25.3670   36.9590   83.5920 C.ar  201  547201      0.0713
      5  C5        23.9760   37.2040   83.9840 C.ar  201  547201      0.0715
      6  C6        22.9540   36.2980   83.5210 C.ar  201  547201      0.0370
      7  O9        26.9560   35.7210   82.4870 O.2   201  547201     -0.4361
      8  C10       27.5720   36.7840   83.1180 C.ar  201  547201      0.1472
      9  C11       26.5570   37.6280   83.8630 C.ar  201  547201      0.0404
     10  C12       26.7120   38.8560   84.6820 C.ar  201  547201      0.0031
     11  C13       27.0220   40.1120   84.0560 C.ar  201  547201      0.0001
     12  C14       27.1840   41.2830   84.8650 C.ar  201  547201      0.0000
     13  C15       27.0370   41.1890   86.2990 C.ar  201  547201      0.0000
     14  C16       26.7220   39.9280   86.9320 C.ar  201  547201      0.0000
     15  C17       26.5620   38.7590   86.1200 C.ar  201  547201      0.0001
     16  C23       29.0530   36.9920   83.0270 C.ar  201  547201      0.0346
     17  C24       29.7860   36.2420   82.0450 C.ar  201  547201      0.0030
     18  C25       31.2050   36.4270   81.9230 C.ar  201  547201      0.0001
     19  C26       31.8890   37.3710   82.7800 C.ar  201  547201      0.0000
     20  C27       31.1680   38.1210   83.7630 C.ar  201  547201      0.0001
     21  C28       29.7640   37.9300   83.8800 C.ar  201  547201      0.0030
     22  N34       23.6700   38.2800   84.7910 N.pl3 201  547201     -0.2359
     23  C35       22.3130   38.5930   85.2200 C.3   201  547201      0.1295
     24  C36       22.2460   39.8340   86.1150 C.3   201  547201      0.0958
     25  N39       23.0260   41.0020   85.6340 N.3   201  547201     -0.2687
     26  C42       23.2340   41.8710   86.8240 C.3   201  547201      0.0912
     27  C43       24.0340   43.1270   86.4310 C.3   201  547201      0.1060
     28  N44       23.3110   43.8450   85.3400 N.3   201  547201     -0.2151
     29  C45       23.0980   42.9700   84.1440 C.3   201  547201      0.1060
     30  C46       22.2740   41.7390   84.5800 C.3   201  547201      0.0912
@<TRIPOS>BOND
     1    18    17   ar
     2    18    19   ar
     3    17    16   ar
     4     2     1   ar
     5     2     3   ar
     6     7     3   ar
     7     7     8   ar
     8     1     6   ar
     9     3     4   ar
    10    19    20   ar
    11    16     8    1
    12    16    21   ar
    13     8     9   ar
    14     6     5   ar
    15     4     9   ar
    16     4     5   ar
    17    20    21   ar
    18     9    10    1
    19     5    22    1
    20    11    10   ar
    21    11    12   ar
    22    29    30    1
    23    29    28    1
    24    30    25    1
    25    10    15   ar
    26    22    23    1
    27    12    13   ar
    28    23    24    1
    29    28    27    1
    30    25    24    1
    31    25    26    1
    32    15    14   ar
    33    13    14   ar
    34    27    26    1
