@<TRIPOS>MOLECULE
2of4_979_A_1.pdb
 30 34 0 0 0
SMALL
GASTEIGER

@<TRIPOS>ATOM
      1  C1        23.7940   35.5150   82.2490 C.3   101  979101      0.3939
      2  N2        25.0750   35.3570   81.9170 N.2   101  979101     -0.1873
      3  C3        26.0620   36.1730   82.4300 C.2   101  979101      0.2206
      4  C4        25.7800   37.1810   83.3690 C.3   101  979101      0.2098
      5  C5        24.3740   37.2860   83.7100 C.2   101  979101      0.3468
      6  N6        23.4700   36.4580   83.1500 N.2   101  979101     -0.0365
      7  O8        27.3950   36.1010   82.1700 O.2   101  979101     -0.4395
      8  C9        27.9960   37.0940   82.9060 C.2   101  979101      0.1437
      9  C10       26.9600   37.8360   83.7520 C.2   101  979101      0.0326
     10  N11       23.8520   38.1850   84.5990 N.pl3 101  979101     -0.0333
     11  C12       23.4060   39.4830   84.1250 C.3   101  979101      0.2681
     12  C13       23.2350   40.4470   85.3080 C.3   101  979101      0.1282
     13  N16       22.8660   41.8560   84.9380 N.3   101  979101     -0.2666
     14  C33       27.1280   38.9960   84.7050 C.ar  101  979101     -0.0000
     15  C34       27.7660   40.2210   84.2560 C.ar  101  979101     -0.0002
     16  C35       27.9840   41.2870   85.1840 C.ar  101  979101     -0.0000
     17  C36       27.5780   41.1180   86.5610 C.ar  101  979101     -0.0000
     18  C37       26.9280   39.9080   87.0130 C.ar  101  979101     -0.0000
     19  C38       26.7200   38.8460   86.0890 C.ar  101  979101     -0.0002
     20  C44       29.4860   37.2940   82.8560 C.ar  101  979101      0.0343
     21  C45       30.2230   36.7880   81.7100 C.ar  101  979101      0.0030
     22  C46       31.6410   36.9820   81.6450 C.ar  101  979101      0.0001
     23  C47       32.3250   37.6860   82.7180 C.ar  101  979101      0.0000
     24  C48       31.6160   38.1900   83.8500 C.ar  101  979101      0.0001
     25  C49       30.2030   37.9940   83.9120 C.ar  101  979101      0.0030
     26  C2        22.7350   42.7020   86.1910 C.3   101  979101      0.0913
     27  C7        23.8310   42.4720   83.9170 C.3   101  979101      0.0913
     28  C11       24.1650   43.0430   86.7980 C.3   101  979101      0.1060
     29  C15       25.1600   43.0400   84.5150 C.3   101  979101      0.1060
     30  N1        25.0110   43.7710   85.8140 N.3   101  979101     -0.2151
@<TRIPOS>BOND
     1    22    21   ar
     2    22    23   ar
     3    21    20   ar
     4     2     1    1
     5     2     3    2
     6     7     3    1
     7     7     8    1
     8     1     6    1
     9     3     4    1
    10    23    24   ar
    11    20     8    1
    12    20    25   ar
    13     8     9    2
    14     6     5    2
    15     4     5    1
    16     4     9    1
    17     5    10    1
    18     9    14    1
    19    24    25   ar
    20    27    29    1
    21    27    13    1
    22    11    10    1
    23    11    12    1
    24    15    14   ar
    25    15    16   ar
    26    29    30    1
    27    14    19   ar
    28    13    12    1
    29    13    26    1
    30    16    17   ar
    31    30    28    1
    32    19    18   ar
    33    26    28    1
    34    17    18   ar
