@<TRIPOS>MOLECULE
2of8_BNI_A_1.pdb
 25 27 0 0 0
SMALL
GASTEIGER

@<TRIPOS>ATOM
      1  C1        29.8820   57.2810   12.3710 C.2   502  BNI502      0.2456
      2  C10       28.7210   56.6370   11.6010 C.3   502  BNI502      0.0872
      3  C9        27.3610   57.1650   12.0440 C.3   502  BNI502      0.0097
      4  C8        27.0690   56.8150   13.4960 C.3   502  BNI502      0.0014
      5  C7        25.8520   57.5530   14.0140 C.3   502  BNI502      0.0129
      6  C2        25.5700   57.1920   15.5190 C.3   502  BNI502      0.0729
      7  C6        24.5390   55.9210   17.4560 C.3   502  BNI502      0.0848
      8  C4        24.5430   58.1240   16.2270 C.3   502  BNI502      0.1500
      9  C5        23.9850   57.3510   17.4370 C.3   502  BNI502      0.1509
     10  C3        22.2490   58.0170   16.0750 C.1   502  BNI502      0.2386
     11  O2        29.8870   58.4790   12.6380 O.2   502  BNI502     -0.2730
     12  O3        21.0750   58.1810   15.6510 O.2   502  BNI502     -0.2023
     13  N1        22.5620   57.3970   17.2120 N.2   502  BNI502     -0.1859
     14  N2        23.3510   58.4250   15.4560 N.2   502  BNI502     -0.1860
     15  S1        24.8360   55.5270   15.7050 S.3   502  BNI502     -0.1369
     16  N17       30.8750   56.5100   12.8180 N.am  502  BNI502     -0.1792
     17  C18       32.0370   56.8070   13.4820 C.ar  502  BNI502      0.0735
     18  C20       33.2800   56.2360   13.0710 C.ar  502  BNI502      0.0183
     19  C21       34.4850   56.5570   13.7890 C.ar  502  BNI502      0.0254
     20  C22       34.4390   57.4740   14.9230 C.ar  502  BNI502      0.1430
     21  C23       33.1930   58.0490   15.3320 C.ar  502  BNI502      0.0254
     22  C24       31.9980   57.7300   14.6240 C.ar  502  BNI502      0.0183
     23  N25       35.7230   57.8020   15.6540 N.pl3 502  BNI502      0.0577
     24  O26       36.7670   57.3190   15.3240 O.2   502  BNI502     -0.1261
     25  O27       35.7330   58.5490   16.5880 O.2   502  BNI502     -0.1261
@<TRIPOS>BOND
     1     2     3    1
     2     2     1    1
     3     3     4    1
     4     1    11    2
     5     1    16   am
     6    16    17    1
     7    18    17   ar
     8    18    19   ar
     9    17    22   ar
    10     4     5    1
    11    19    20   ar
    12     5     6    1
    13    22    21   ar
    14    20    21   ar
    15    20    23    1
    16    24    23    2
    17    14    10    2
    18    14     8    1
    19     6    15    1
    20     6     8    1
    21    12    10    2
    22    23    25    2
    23    15     7    1
    24    10    13    2
    25     8     9    1
    26    13     9    1
    27     9     7    1
