@<TRIPOS>MOLECULE
2ofb_BNI_A_1.pdb
 25 27 0 0 0
SMALL
GASTEIGER

@<TRIPOS>ATOM
      1  C1        29.8260   56.7310   12.1920 C.2   502  BNI502      0.2456
      2  C10       28.6820   56.1150   11.4000 C.3   502  BNI502      0.0872
      3  C9        27.3210   56.6500   11.8570 C.3   502  BNI502      0.0097
      4  C8        27.0890   56.3450   13.3390 C.3   502  BNI502      0.0014
      5  C7        25.8530   57.0430   13.8570 C.3   502  BNI502      0.0129
      6  C2        25.5910   56.6820   15.3640 C.3   502  BNI502      0.0729
      7  C6        24.5910   55.4390   17.3450 C.3   502  BNI502      0.0848
      8  C4        24.5740   57.6150   16.1060 C.3   502  BNI502      0.1500
      9  C5        24.0340   56.8600   17.3360 C.3   502  BNI502      0.1509
     10  C3        22.2710   57.5040   15.9890 C.1   502  BNI502      0.2386
     11  O2        29.8410   57.9440   12.3880 O.2   502  BNI502     -0.2730
     12  O3        21.0960   57.6700   15.5920 O.2   502  BNI502     -0.2023
     13  N1        22.6160   56.8870   17.1270 N.2   502  BNI502     -0.1859
     14  N2        23.3610   57.9270   15.3550 N.2   502  BNI502     -0.1860
     15  S1        24.8640   55.0140   15.5860 S.3   502  BNI502     -0.1369
     16  N17       30.7440   55.9470   12.7620 N.am  502  BNI502     -0.1792
     17  C18       31.7650   56.3020   13.5840 C.ar  502  BNI502      0.0735
     18  C20       33.1030   55.8400   13.4160 C.ar  502  BNI502      0.0183
     19  C21       34.1250   56.2890   14.3380 C.ar  502  BNI502      0.0254
     20  C22       33.7540   57.1980   15.4210 C.ar  502  BNI502      0.1430
     21  C23       32.4150   57.6490   15.5780 C.ar  502  BNI502      0.0254
     22  C24       31.4240   57.2160   14.6760 C.ar  502  BNI502      0.0183
     23  N25       34.7770   57.6950   16.4060 N.pl3 502  BNI502      0.0577
     24  O26       35.9230   57.3510   16.3260 O.2   502  BNI502     -0.1261
     25  O27       34.4490   58.4450   17.2810 O.2   502  BNI502     -0.1261
@<TRIPOS>BOND
     1     2     3    1
     2     2     1    1
     3     3     4    1
     4     1    11    2
     5     1    16   am
     6    16    17    1
     7     4     5    1
     8    18    17   ar
     9    18    19   ar
    10    17    22   ar
    11     5     6    1
    12    19    20   ar
    13    22    21   ar
    14    14    10    2
    15    14     8    1
    16     6    15    1
    17     6     8    1
    18    20    21   ar
    19    20    23    1
    20    15     7    1
    21    12    10    2
    22    10    13    2
    23     8     9    1
    24    24    23    2
    25    23    25    2
    26    13     9    1
    27     9     7    1
