@<TRIPOS>MOLECULE
2ofd_NGA_A_1.pdb
 15 15 0 0 0
SMALL
GASTEIGER

@<TRIPOS>ATOM
      1  C1        27.4180   -7.0500   17.1710 C.3   144  NGA144      0.2917
      2  C2        26.3100   -6.0040   17.0330 C.3   144  NGA144      0.1871
      3  C3        26.5380   -5.1410   15.7920 C.3   144  NGA144      0.2095
      4  C4        27.9320   -4.5240   15.8110 C.3   144  NGA144      0.2136
      5  C5        29.0120   -5.5830   16.0530 C.3   144  NGA144      0.1835
      6  C6        30.3270   -4.8970   16.3650 C.3   144  NGA144      0.2142
      7  C7        24.1950   -6.6210   18.1190 C.2   144  NGA144      0.2421
      8  C8        22.8100   -7.1600   17.9170 C.3   144  NGA144      0.0964
      9  N2        24.9830   -6.6030   17.0380 N.am  144  NGA144     -0.1991
     10  O1        27.3780   -7.9910   16.0890 O.3   144  NGA144     -0.1879
     11  O3        25.5640   -4.0990   15.7590 O.3   144  NGA144     -0.2183
     12  O4        28.0080   -3.5110   16.8360 O.3   144  NGA144     -0.2176
     13  O5        28.6970   -6.4060   17.1840 O.3   144  NGA144     -0.3242
     14  O6        31.2980   -5.2520   15.3930 O.3   144  NGA144     -0.2176
     15  O7        24.5590   -6.2350   19.2200 O.2   144  NGA144     -0.2733
@<TRIPOS>BOND
     1    14     6    1
     2    11     3    1
     3     3     4    1
     4     3     2    1
     5     4     5    1
     6     4    12    1
     7     5     6    1
     8     5    13    1
     9    10     1    1
    10     2     9    1
    11     2     1    1
    12     9     7   am
    13     1    13    1
    14     8     7    1
    15     7    15    2
