@<TRIPOS>MOLECULE
2ofe_NAG_A_1.pdb
 15 15 0 0 0
SMALL
GASTEIGER

@<TRIPOS>ATOM
      1  C1        43.4830    1.5970   27.6810 C.3   145  NAG145      0.2917
      2  C2        42.8310    1.9420   29.0220 C.3   145  NAG145      0.1871
      3  C3        41.8850    0.8260   29.4780 C.3   145  NAG145      0.2095
      4  C4        40.9480    0.3900   28.3490 C.3   145  NAG145      0.2136
      5  C5        41.7670    0.0630   27.0940 C.3   145  NAG145      0.1835
      6  C6        40.9090   -0.4130   25.9210 C.3   145  NAG145      0.2142
      7  C7        43.9350    3.2810   30.7530 C.2   145  NAG145      0.2421
      8  C8        45.1170    3.3840   31.6730 C.3   145  NAG145      0.0964
      9  N2        43.8510    2.1600   30.0350 N.am  145  NAG145     -0.1991
     10  O1        44.1870    2.7170   27.1980 O.3   145  NAG145     -0.1879
     11  O3        41.1390    1.2580   30.5970 O.3   145  NAG145     -0.2183
     12  O4        40.1900   -0.7310   28.7540 O.3   145  NAG145     -0.2176
     13  O5        42.5110    1.2110   26.7200 O.3   145  NAG145     -0.3242
     14  O6        39.9800    0.5780   25.5290 O.3   145  NAG145     -0.2176
     15  O7        43.1130    4.1990   30.6960 O.2   145  NAG145     -0.2733
@<TRIPOS>BOND
     1    14     6    1
     2     6     5    1
     3    13     5    1
     4    13     1    1
     5     5     4    1
     6    10     1    1
     7     1     2    1
     8     4    12    1
     9     4     3    1
    10     2     3    1
    11     2     9    1
    12     3    11    1
    13     9     7   am
    14    15     7    2
    15     7     8    1
