@<TRIPOS>MOLECULE
2off_OFF_A_1.pdb
 33 34 0 0 0
SMALL
GASTEIGER

@<TRIPOS>ATOM
      1  C19       25.2210   -2.0630   52.5510 C.ar  930  OFF930      0.0033
      2  C20       24.2330   -2.8410   53.1570 C.ar  930  OFF930      0.0420
      3  C21       24.5450   -4.1120   53.6390 C.ar  930  OFF930      0.1957
      4  O10       23.5890   -4.8770   54.2310 O.3   930  OFF930     -0.2866
      5  C22       25.8430   -4.6020   53.5160 C.ar  930  OFF930      0.0420
      6  C23       26.8290   -3.8200   52.9140 C.ar  930  OFF930      0.0033
      7  C18       26.5250   -2.5500   52.4280 C.ar  930  OFF930      0.0004
      8  C17       27.5350   -1.7920   51.8300 C.2   930  OFF930      0.0067
      9  C16       27.4920   -0.3960   51.8190 C.2   930  OFF930      0.0819
     10  C15       28.4800    0.3950   51.2290 C.2   930  OFF930      0.3414
     11  O9        29.4610   -0.1220   50.6950 O.2   930  OFF930     -0.2449
     12  O8        28.3240    1.7570   51.2720 O.3   930  OFF930     -0.4442
     13  C12       29.4290    2.6190   50.8920 C.3   930  OFF930      0.2314
     14  C13       28.8500    3.9490   50.3500 C.3   930  OFF930      0.1619
     15  C14       28.3130    3.8660   48.9110 C.2   930  OFF930      0.3687
     16  O6        27.3790    4.6520   48.6160 O.co2 930  OFF930     -0.2455
     17  O7        28.8440    3.0330   48.1390 O.co2 930  OFF930     -0.2455
     18  C10       30.2980    2.9510   52.1040 C.3   930  OFF930      0.3107
     19  C11       31.5840    3.6840   51.6940 C.2   930  OFF930      0.4079
     20  O4        31.5580    4.9310   51.6770 O.co2 930  OFF930     -0.2415
     21  O5        32.5880    2.9970   51.4020 O.co2 930  OFF930     -0.2415
     22  O3        30.7060    1.7410   52.7620 O.3   930  OFF930     -0.4335
     23  C9        30.1130    1.4430   53.9550 C.2   930  OFF930      0.3419
     24  O2        29.4320    2.2670   54.5730 O.2   930  OFF930     -0.2449
     25  C8        30.3130    0.1580   54.4500 C.2   930  OFF930      0.0819
     26  C7        29.7650   -0.2720   55.6520 C.2   930  OFF930      0.0067
     27  C4        29.9750   -1.5710   56.1150 C.ar  930  OFF930      0.0004
     28  C5        30.0500   -1.8060   57.4890 C.ar  930  OFF930      0.0033
     29  C6        30.2500   -3.1030   57.9670 C.ar  930  OFF930      0.0420
     30  C1        30.3670   -4.1650   57.0700 C.ar  930  OFF930      0.1957
     31  O1        30.5630   -5.4310   57.5390 O.3   930  OFF930     -0.2866
     32  C2        30.2860   -3.9330   55.6960 C.ar  930  OFF930      0.0420
     33  C3        30.0870   -2.6370   55.2180 C.ar  930  OFF930      0.0033
@<TRIPOS>BOND
     1    17    15   ar
     2    16    15   ar
     3    15    14    1
     4    14    13    1
     5    11    10    2
     6    13    12    1
     7    13    18    1
     8    10    12    1
     9    10     9    1
    10    21    19   ar
    11    20    19   ar
    12    19    18    1
    13     9     8    2
    14     8     7    1
    15    18    22    1
    16     7     1   ar
    17     7     6   ar
    18     1     2   ar
    19    22    23    1
    20     6     5   ar
    21     2     3   ar
    22     5     3   ar
    23     3     4    1
    24    23    25    1
    25    23    24    2
    26    25    26    2
    27    33    32   ar
    28    33    27   ar
    29    26    27    1
    30    32    30   ar
    31    27    28   ar
    32    30    31    1
    33    30    29   ar
    34    28    29   ar
