@<TRIPOS>MOLECULE
2ofi_ADK_A_1.pdb
 11 12 0 0 0
SMALL
GASTEIGER

@<TRIPOS>ATOM
      1  N9        -4.9690   32.2650   47.1330 N.2   301  ADK301     -0.0346
      2  C4        -5.7640   33.3060   46.8060 C.2   301  ADK301      0.3494
      3  N3        -7.2030   33.4110   46.8200 N.pl3 301  ADK301     -0.1388
      4  C2        -7.8030   34.5610   46.4720 C.3   301  ADK301      0.4722
      5  N1        -7.0660   35.6260   46.1390 N.2   301  ADK301     -0.0033
      6  C6        -5.7170   35.6400   46.1240 C.2   301  ADK301      0.4391
      7  N6        -5.0530   36.7380   45.7690 N.pl3 301  ADK301      0.2180
      8  C5        -4.9450   34.4120   46.4550 C.2   301  ADK301      0.2527
      9  N7        -3.6630   34.0150   46.5940 N.2   301  ADK301     -0.2043
     10  C8        -3.6810   32.7070   46.9640 C.3   301  ADK301      0.3923
     11  C3A       -8.0270   32.2350   47.1760 C.3   301  ADK301      0.2573
@<TRIPOS>BOND
     1     7     6    1
     2     6     5    2
     3     6     8    1
     4     5     4    1
     5     8     9    2
     6     8     2    1
     7     4     3    1
     8     9    10    1
     9     2     3    1
    10     2     1    2
    11     3    11    1
    12    10     1    1
