@<TRIPOS>MOLECULE
2ofp_NAP_A_1.pdb
 48 52 0 0 0
SMALL
GASTEIGER

@<TRIPOS>ATOM
      1  PA       -12.7800   41.1360    0.7940 P.3   304  NAP304      0.2189
      2  O1A      -11.4990   41.7320    1.2390 O.3   304  NAP304     -0.4371
      3  O2A      -12.6270   39.9740   -0.0960 O.2   304  NAP304     -0.5170
      4  O5B      -13.6410   42.2590   -0.0010 O.3   304  NAP304     -0.3112
      5  C5B      -13.6540   43.6400    0.3180 C.3   304  NAP304      0.1813
      6  C4B      -13.3810   44.3530   -1.0120 C.3   304  NAP304      0.1820
      7  O4B      -13.5200   45.7520   -0.8790 O.3   304  NAP304     -0.3136
      8  C3B      -11.9560   44.1400   -1.4910 C.3   304  NAP304      0.2157
      9  O3B      -11.9560   43.7480   -2.8610 O.3   304  NAP304     -0.2175
     10  C2B      -11.3220   45.5140   -1.2640 C.3   304  NAP304      0.2314
     11  O2B      -10.2540   45.7930   -2.1310 O.3   304  NAP304     -0.2630
     12  C1B      -12.4590   46.4340   -1.5320 C.3   304  NAP304      0.3158
     13  N9A      -12.3550   47.7540   -0.9020 N.pl3 304  NAP304     -0.1439
     14  C8A      -11.6290   48.1240    0.1980 C.3   304  NAP304      0.3377
     15  N7A      -11.9140   49.4160    0.4760 N.2   304  NAP304     -0.2095
     16  C5A      -12.7940   49.8700   -0.4460 C.2   304  NAP304      0.2526
     17  C6A      -13.3900   51.1030   -0.6570 C.2   304  NAP304      0.4393
     18  N6A      -13.1250   52.1180    0.1550 N.pl3 304  NAP304      0.2180
     19  N1A      -14.2700   51.2610   -1.7010 N.2   304  NAP304      0.0021
     20  C2A      -14.5640   50.2110   -2.5460 C.3   304  NAP304      0.5254
     21  N3A      -13.9690   48.9950   -2.3450 N.2   304  NAP304     -0.0055
     22  C4A      -13.0890   48.8340   -1.3170 C.2   304  NAP304      0.3518
     23  O3       -13.6570   40.8070    2.0900 O.3   304  NAP304     -0.2703
     24  PN       -14.8770   39.7700    2.2640 P.3   304  NAP304      0.2189
     25  O1N      -14.3640   38.4720    2.7770 O.3   304  NAP304     -0.4371
     26  O2N      -15.7850   39.8680    1.0940 O.2   304  NAP304     -0.5170
     27  O5D      -15.6210   40.3620    3.5460 O.3   304  NAP304     -0.3112
     28  C5D      -16.3930   41.5310    3.5480 C.3   304  NAP304      0.1813
     29  C4D      -17.0420   41.5930    4.9340 C.3   304  NAP304      0.1799
     30  O4D      -17.9400   40.4950    5.0200 O.3   304  NAP304     -0.3327
     31  C3D      -16.0960   41.4440    6.1440 C.3   304  NAP304      0.2158
     32  O3D      -16.6200   42.1370    7.2800 O.3   304  NAP304     -0.2175
     33  C2D      -16.1710   39.9450    6.4360 C.3   304  NAP304      0.2309
     34  O2D      -15.9230   39.6270    7.7810 O.3   304  NAP304     -0.2158
     35  C1D      -17.6280   39.6430    6.1130 C.3   304  NAP304      0.2263
     36  N1N      -17.8910   38.2270    5.8030 N.pl3 304  NAP304     -0.2787
     37  C2N      -17.1570   37.5630    4.8440 C.3   304  NAP304      0.1244
     38  C3N      -17.4490   36.2200    4.5690 C.2   304  NAP304      0.0544
     39  C7N      -16.7640   35.5010    3.4560 C.2   304  NAP304      0.2818
     40  O7N      -16.9720   34.1220    3.3650 O.2   304  NAP304     -0.2670
     41  N7N      -15.9290   36.1370    2.6260 N.am  304  NAP304     -0.0839
     42  C4N      -18.4750   35.5690    5.2560 C.2   304  NAP304      0.0033
     43  C5N      -19.2100   36.2570    6.2230 C.2   304  NAP304      0.0157
     44  C6N      -18.9070   37.5970    6.4960 C.2   304  NAP304      0.0633
     45  P2B       -8.7980   45.8350   -1.4350 P.3   304  NAP304      0.5328
     46  O1X       -7.8670   45.9200   -2.6060 O.2   304  NAP304     -0.2224
     47  O2X       -8.7380   47.0270   -0.4830 O.3   304  NAP304     -0.1145
     48  O3X       -8.5650   44.5830   -0.6100 O.3   304  NAP304     -0.1145
@<TRIPOS>BOND
     1     9     8    1
     2    46    45    2
     3    20    21    1
     4    20    19    1
     5    21    22    2
     6    11    45    1
     7    11    10    1
     8    19    17    2
     9    12    10    1
    10    12    13    1
    11    12     7    1
    12     8    10    1
    13     8     6    1
    14    45    48    1
    15    45    47    1
    16    22    13    1
    17    22    16    1
    18     6     7    1
    19     6     5    1
    20    13    14    1
    21    17    16    1
    22    17    18    1
    23    16    15    2
    24     3     1    2
    25     4     5    1
    26     4     1    1
    27    14    15    1
    28     1     2    1
    29     1    23    1
    30    26    24    2
    31    23    24    1
    32    24    25    1
    33    24    27    1
    34    41    39   am
    35    40    39    2
    36    39    38    1
    37    27    28    1
    38    28    29    1
    39    38    37    1
    40    38    42    2
    41    37    36    1
    42    29    30    1
    43    29    31    1
    44    30    35    1
    45    42    43    1
    46    36    35    1
    47    36    44    1
    48    35    33    1
    49    31    33    1
    50    31    32    1
    51    43    44    2
    52    33    34    1
