@<TRIPOS>MOLECULE
2ofp_PAF_A_1.pdb
 10 9 0 0 0
SMALL
GASTEIGER

@<TRIPOS>ATOM
      1  O1       -15.0240   35.2610   10.6930 O.co2 602  PAF602     -0.2428
      2  C1       -15.2360   34.0210   10.6220 C.2   602  PAF602      0.3947
      3  O2       -14.3850   33.2150   10.2050 O.co2 602  PAF602     -0.2428
      4  C2       -16.5800   33.4910   11.0290 C.3   602  PAF602      0.2562
      5  O3       -17.3990   34.6300   11.4000 O.3   602  PAF602     -0.2108
      6  C3       -16.4900   32.4670   12.1710 C.3   602  PAF602      0.0695
      7  C4       -15.4750   32.9460   13.2080 C.3   602  PAF602      0.0057
      8  C5       -17.8330   32.3260   12.8730 C.3   602  PAF602      0.0057
      9  C6       -16.1750   31.0550   11.6370 C.3   602  PAF602      0.1850
     10  O4       -14.8330   30.9280   11.1200 O.3   602  PAF602     -0.2203
@<TRIPOS>BOND
     1     3     2   ar
     2     2     1   ar
     3     2     4    1
     4     4     5    1
     5     4     6    1
     6    10     9    1
     7     9     6    1
     8     6     8    1
     9     6     7    1
