@<TRIPOS>MOLECULE
2ofr_HEM_X_1.pdb
 43 50 0 0 0
SMALL
GASTEIGER

@<TRIPOS>ATOM
      1 FE         10.9230   20.0490   36.5040 Fe    185  HEM185      0.0000
      2  CHA       11.4540   23.0790   35.0520 C.2   185  HEM185      0.0000
      3  CHB        7.5790   20.4360   36.1020 C.2   185  HEM185      0.0000
      4  CHC       10.3940   17.4060   38.5790 C.2   185  HEM185      0.0000
      5  CHD       14.2630   19.4700   36.5680 C.2   185  HEM185      0.0000
      6  NA         9.7590   21.4720   35.7280 N.ar  185  HEM185      0.0000
      7  C1A       10.1640   22.6840   35.2370 C.ar  185  HEM185      0.0000
      8  C2A        9.0270   23.4900   34.8740 C.ar  185  HEM185      0.0000
      9  C3A        7.9400   22.7470   35.1370 C.ar  185  HEM185      0.0000
     10  C4A        8.3780   21.4740   35.6730 C.ar  185  HEM185      0.0000
     11  CMA        6.5070   23.1330   34.9580 C.3   185  HEM185      0.0000
     12  CAA        9.0450   24.9090   34.3250 C.3   185  HEM185      0.0000
     13  CBA        8.8120   25.9250   35.4090 C.3   185  HEM185      0.0000
     14  CGA        8.8220   27.3410   34.9520 C.2   185  HEM185      0.0000
     15  O1A        9.5960   27.7220   34.0420 O.co2 185  HEM185      0.0000
     16  O2A        7.9900   28.1240   35.4570 O.co2 185  HEM185      0.0000
     17  NB         9.3510   19.0980   37.1630 N.2   185  HEM185      0.0000
     18  C1B        8.0170   19.3350   36.8220 C.2   185  HEM185      0.0000
     19  C2B        7.1470   18.3790   37.4400 C.2   185  HEM185      0.0000
     20  C3B        7.9410   17.5560   38.1750 C.2   185  HEM185      0.0000
     21  C4B        9.3110   17.9980   37.9930 C.2   185  HEM185      0.0000
     22  CMB        5.6480   18.3330   37.2320 C.3   185  HEM185      0.0000
     23  CAB        7.5450   16.3610   39.0110 C.2   185  HEM185      0.0000
     24  CBB        7.7690   16.3260   40.3160 C.2   185  HEM185      0.0000
     25  NC        12.1040   18.7270   37.3720 N.ar  185  HEM185      0.0000
     26  C1C       11.6930   17.7150   38.2170 C.ar  185  HEM185      0.0000
     27  C2C       12.8490   16.9430   38.6280 C.ar  185  HEM185      0.0000
     28  C3C       13.9270   17.4570   38.0170 C.ar  185  HEM185      0.0000
     29  C4C       13.4690   18.5970   37.2320 C.ar  185  HEM185      0.0000
     30  CMC       12.7880   15.7550   39.6020 C.3   185  HEM185      0.0000
     31  CAC       15.3640   16.9810   38.0100 C.2   185  HEM185      0.0000
     32  CBC       16.1140   16.5430   38.9560 C.2   185  HEM185      0.0000
     33  ND        12.5240   21.0580   35.9060 N.2   185  HEM185      0.0000
     34  C1D       13.8430   20.6360   35.9690 C.2   185  HEM185      0.0000
     35  C2D       14.7390   21.6340   35.4630 C.2   185  HEM185      0.0000
     36  C3D       13.9280   22.7150   35.0310 C.2   185  HEM185      0.0000
     37  C4D       12.5630   22.3090   35.3580 C.2   185  HEM185      0.0000
     38  CMD       16.2600   21.5520   35.3890 C.3   185  HEM185      0.0000
     39  CAD       14.3570   23.9980   34.3750 C.3   185  HEM185      0.0000
     40  CBD       14.1050   23.9290   32.8690 C.3   185  HEM185      0.0000
     41  CGD       14.4570   25.1990   32.1400 C.2   185  HEM185      0.0000
     42  O1D       13.7120   26.1950   32.2280 O.co2 185  HEM185      0.0000
     43  O2D       15.4810   25.2220   31.3830 O.co2 185  HEM185      0.0000
@<TRIPOS>BOND
     1    43    41   ar
     2    41    42   ar
     3    41    40    1
     4    40    39    1
     5    15    14   ar
     6    12     8    1
     7    12    13    1
     8    39    36    1
     9     8     9   ar
    10     8     7   ar
    11    14    13    1
    12    14    16   ar
    13    11     9    1
    14    36    37    1
    15    36    35    2
    16     2     7    2
    17     2    37    1
    18     9    10   ar
    19     7     6   ar
    20    37    33    2
    21    38    35    1
    22    35    34    1
    23    10     6   ar
    24    10     3    2
    25     6     1    1
    26    33    34    1
    27    33     1    1
    28    34     5    2
    29     3    18    1
    30     1    17    1
    31     1    25    1
    32     5    29    1
    33    18    17    2
    34    18    19    1
    35    17    21    1
    36    29    25   ar
    37    29    28   ar
    38    22    19    1
    39    25    26   ar
    40    19    20    2
    41    21    20    1
    42    21     4    2
    43    31    28    1
    44    31    32    2
    45    28    27   ar
    46    20    23    1
    47    26     4    1
    48    26    27   ar
    49    27    30    1
    50    23    24    2
