@<TRIPOS>MOLECULE
2ofu_1N9_A_1.pdb
 50 54 0 0 0
SMALL
GASTEIGER

@<TRIPOS>ATOM
      1  C13       25.7160   35.8400   82.7480 C.1     1  1N91        0.1709
      2  N1        25.2120   36.6900   83.6600 N.2     1  1N91       -0.3199
      3  C19       23.9300   36.6070   84.0410 C.2     1  1N91        0.2099
      4  C20       23.0440   35.6180   83.4800 C.2     1  1N91        0.0710
      5  C5        23.6170   34.7700   82.5330 C.2     1  1N91        0.1158
      6  N3        24.9150   34.9180   82.2070 N.2     1  1N91       -0.1683
      7  N4        27.0310   35.8420   82.3570 N.pl3   1  1N91       -0.1355
      8  C9        28.0490   36.6660   82.7980 C.ar    1  1N91        0.0888
      9  N6        23.5510   37.5640   85.0020 N.am    1  1N91       -0.1740
     10  C10       24.4230   38.4760   85.6320 C.ar    1  1N91        0.0977
     11  C11       24.1910   39.8960   85.4080 C.ar    1  1N91        0.1558
     12  C12       22.2100   37.5920   85.3050 C.2     1  1N91        0.4190
     13  C14       25.4920   37.9750   86.5020 C.ar    1  1N91        0.0216
     14  C15       26.3320   38.9130   87.1600 C.ar    1  1N91        0.0384
     15  C16       26.0960   40.3120   86.9320 C.ar    1  1N91        0.1418
     16  C17       25.0420   40.8400   86.0750 C.ar    1  1N91        0.0751
     17  C18       27.9010   38.0190   83.3090 C.ar    1  1N91        0.0576
     18  C21       29.0340   38.7810   83.6960 C.ar    1  1N91        0.1768
     19  C22       30.3210   38.1580   83.5530 C.ar    1  1N91        0.2060
     20  C23       30.4780   36.8190   83.0550 C.ar    1  1N91        0.1768
     21  C24       29.3180   36.0680   82.6740 C.ar    1  1N91        0.0576
     22  O1        22.0250   37.9480   86.7470 O.3     1  1N91       -0.4103
     23  C25       20.5850   37.8270   87.2100 C.ar    1  1N91        0.1420
     24  C26       20.0870   36.5390   87.5210 C.ar    1  1N91        0.0125
     25  C27       18.7110   36.4440   87.9640 C.ar    1  1N91       -0.0013
     26  C28       17.9670   37.6600   88.0410 C.ar    1  1N91       -0.0004
     27  C29       18.5010   38.9510   87.7120 C.ar    1  1N91       -0.0013
     28  C30       19.8790   39.0370   87.2720 C.ar    1  1N91        0.0125
     29  C31       20.5330   40.3200   86.8850 C.3     1  1N91        0.0342
     30  C32       20.9280   35.3250   87.3600 C.3     1  1N91        0.0342
     31  O6        31.7910   36.3210   82.9910 O.3     1  1N91       -0.4682
     32  C33       32.0590   35.0050   82.4880 C.3     1  1N91        0.2526
     33  O2        21.2780   37.4040   84.6490 O.2     1  1N91       -0.2250
     34  O3        27.0280   41.1480   87.5650 O.3     1  1N91       -0.4713
     35  O4        23.1300   40.2520   84.5170 O.3     1  1N91       -0.4701
     36  C36       22.6970   41.6340   84.4480 C.3     1  1N91        0.2525
     37  C37       26.5830   42.3600   88.1680 C.3     1  1N91        0.2525
     38  O5        31.4390   38.9290   83.8970 O.3     1  1N91       -0.4694
     39  C7        31.6960   38.8700   85.2980 C.3     1  1N91        0.2071
     40  C8        33.0160   39.5090   85.5580 C.3     1  1N91        0.0646
     41  C35       33.0630   40.9280   84.9840 C.3     1  1N91        0.0760
     42  O7        28.9330   40.0920   84.2320 O.3     1  1N91       -0.4682
     43  C34       27.8930   41.0230   83.8580 C.3     1  1N91        0.2526
     44  C1        36.2520   41.9690   86.9110 C.3     1  1N91        0.0897
     45  N2        36.5290   43.1780   86.0540 N.3     1  1N91       -0.2691
     46  C3        35.2920   43.9500   85.6730 C.3     1  1N91        0.0897
     47  C4        34.2800   43.0040   84.9190 C.3     1  1N91        0.0897
     48  N5        33.9770   41.7970   85.7540 N.3     1  1N91       -0.2702
     49  C6        35.2490   41.0780   86.1080 C.3     1  1N91        0.0897
     50  C2        37.2360   42.7970   84.7960 C.3     1  1N91        0.0897
@<TRIPOS>BOND
     1     6     5    1
     2     6     1    2
     3     7     1    1
     4     7     8    1
     5    32    31    1
     6     5     4    2
     7    21     8   ar
     8    21    20   ar
     9     1     2    2
    10     8    17   ar
    11    31    20    1
    12    20    19   ar
    13    17    18   ar
    14     4     3    1
    15    19    18   ar
    16    19    38    1
    17     2     3    2
    18    18    42    1
    19    43    42    1
    20    38    39    1
    21     3     9    1
    22    36    35    1
    23    35    11    1
    24    33    12    2
    25    50    45    1
    26    47    46    1
    27    47    48    1
    28    41    40    1
    29    41    48    1
    30     9    12   am
    31     9    10    1
    32    39    40    1
    33    12    22    1
    34    11    10   ar
    35    11    16   ar
    36    10    13   ar
    37    46    45    1
    38    48    49    1
    39    45    44    1
    40    16    15   ar
    41    49    44    1
    42    13    14   ar
    43    22    23    1
    44    29    28    1
    45    15    14   ar
    46    15    34    1
    47    23    28   ar
    48    23    24   ar
    49    28    27   ar
    50    30    24    1
    51    24    25   ar
    52    34    37    1
    53    27    26   ar
    54    25    26   ar
