@<TRIPOS>MOLECULE
2ofv_242_A_1.pdb
 31 34 0 0 0
SMALL
GASTEIGER

@<TRIPOS>ATOM
      1  C4        91.2450   36.8190   11.0020 C.2   503  242503      0.1143
      2  C2        90.2700   37.6580   11.6540 C.ar  503  242503      0.0505
      3  C3        88.9470   37.0190   12.0420 C.ar  503  242503      0.1457
      4  N2        88.7440   35.6740   11.7450 N.2   503  242503     -0.3352
      5  C1        89.7140   34.9910   11.1190 C.1   503  242503      0.1864
      6  N3        90.9290   35.5270   10.7620 N.2   503  242503     -0.1673
      7  C8        90.5240   39.0230   11.9540 C.ar  503  242503      0.0041
      8  C9        89.5080   39.7830   12.6050 C.ar  503  242503     -0.0001
      9  C10       88.2060   39.1770   12.9860 C.ar  503  242503      0.0026
     10  C11       87.9130   37.8100   12.7140 C.ar  503  242503      0.0331
     11  N15       89.4720   33.7050   10.8560 N.pl3 503  242503     -0.0345
     12  C16       89.7660   41.2330   12.8950 C.ar  503  242503     -0.0038
     13  C17       90.1210   41.5620   14.2370 C.ar  503  242503      0.0043
     14  C18       90.3780   42.9260   14.5800 C.ar  503  242503      0.0554
     15  C19       90.2820   43.9900   13.5870 C.ar  503  242503      0.0043
     16  C20       89.9210   43.6830   12.2380 C.ar  503  242503     -0.0041
     17  C21       89.6730   42.3070   11.8760 C.ar  503  242503     -0.0218
     18  C25       89.3160   42.0430   10.4030 C.3   503  242503      0.0310
     19  C29       90.7220   43.1720   15.9830 C.2   503  242503      0.2690
     20  O30       91.0530   42.2410   16.7470 O.2   503  242503     -0.2680
     21  N31       90.6970   44.4810   16.4100 N.am  503  242503     -0.1755
     22  C32       91.1260   44.9440   17.6410 C.ar  503  242503      0.0736
     23  C33       92.1470   44.2320   18.3910 C.ar  503  242503      0.0205
     24  C34       92.5790   44.6870   19.6600 C.ar  503  242503      0.0727
     25  C35       91.9870   45.9210   20.1890 C.ar  503  242503      0.0039
     26  C36       90.9540   46.6420   19.4680 C.ar  503  242503      0.0013
     27  C37       90.5480   46.1440   18.1960 C.ar  503  242503      0.0166
     28  C5        93.6790   43.8920   20.4060 C.3   503  242503      0.4186
     29  F3        94.2000   44.6520   21.3330 F     503  242503     -0.1659
     30  F1        94.6300   43.5480   19.5760 F     503  242503     -0.1659
     31  F2        93.1440   42.7930   20.9220 F     503  242503     -0.1659
@<TRIPOS>BOND
     1    18    17    1
     2     6     1    1
     3     6     5    2
     4    11     5    1
     5     1     2    2
     6     5     4    2
     7     2     7   ar
     8     2     3   ar
     9     4     3    2
    10    17    16   ar
    11    17    12   ar
    12     7     8   ar
    13     3    10   ar
    14    16    15   ar
    15     8    12    1
    16     8     9   ar
    17    10     9   ar
    18    12    13   ar
    19    15    14   ar
    20    13    14   ar
    21    14    19    1
    22    19    21   am
    23    19    20    2
    24    21    22    1
    25    22    27   ar
    26    22    23   ar
    27    27    26   ar
    28    23    24   ar
    29    26    25   ar
    30    30    28    1
    31    24    25   ar
    32    24    28    1
    33    28    31    1
    34    28    29    1
