@<TRIPOS>MOLECULE
2ofw_ADX_A_1.pdb
 27 29 0 0 0
SMALL
GASTEIGER

@<TRIPOS>ATOM
      1  SB       -27.5670    7.9530   88.4450 S.3   1100  ADX1100     0.0049
      2  O1B      -26.4800    7.8460   87.4670 O.2   1100  ADX1100    -0.3449
      3  O2B      -28.0340    9.3600   88.4430 O.3   1100  ADX1100    -0.2679
      4  O3B      -28.6660    7.0490   88.1370 O.2   1100  ADX1100    -0.3449
      5  PA       -25.5630    7.8750   90.5160 P.3   1100  ADX1100     0.2383
      6  O1A      -24.6010    6.8860   89.9560 O.2   1100  ADX1100    -0.5161
      7  O2A      -25.2330    9.3370   90.4030 O.3   1100  ADX1100    -0.4361
      8  O3A      -27.0660    7.5900   89.9620 O.3   1100  ADX1100    -0.1945
      9  O5'      -25.8830    7.5740   92.0640 O.3   1100  ADX1100    -0.3102
     10  C5'      -25.9090    6.2620   92.5970 C.3   1100  ADX1100     0.1814
     11  C4'      -25.7730    6.2130   94.1190 C.3   1100  ADX1100     0.1821
     12  O4'      -26.7160    7.0240   94.8430 O.3   1100  ADX1100    -0.3135
     13  C3'      -26.1480    4.7940   94.5430 C.3   1100  ADX1100     0.2184
     14  O3'      -25.0520    3.8990   94.3650 O.3   1100  ADX1100    -0.2174
     15  C2'      -26.7020    4.9040   95.9580 C.3   1100  ADX1100     0.2570
     16  O2'      -25.6850    4.8010   96.9600 O.3   1100  ADX1100    -0.2130
     17  C1'      -27.2540    6.3190   95.9960 C.3   1100  ADX1100     0.3186
     18  N9       -28.7260    6.4090   95.8650 N.pl3 1100  ADX1100    -0.1439
     19  C8       -29.5130    7.1420   96.6770 C.3   1100  ADX1100     0.3377
     20  N7       -30.7980    7.0940   96.2770 N.2   1100  ADX1100    -0.2095
     21  C5       -30.8410    6.3310   95.1710 C.2   1100  ADX1100     0.2526
     22  C6       -31.8970    5.8720   94.2450 C.2   1100  ADX1100     0.4393
     23  N6       -33.1740    6.2600   94.4550 N.pl3 1100  ADX1100     0.2180
     24  N1       -31.5350    5.0910   93.1960 N.2   1100  ADX1100     0.0021
     25  C2       -30.2660    4.7060   92.9940 C.3   1100  ADX1100     0.5254
     26  N3       -29.2530    5.0990   93.7880 N.2   1100  ADX1100    -0.0055
     27  C4       -29.4740    5.8970   94.8790 C.2   1100  ADX1100     0.3518
@<TRIPOS>BOND
     1     2     1    2
     2     4     1    2
     3     3     1    1
     4     1     8    1
     5     6     5    2
     6     8     5    1
     7     7     5    1
     8     5     9    1
     9     9    10    1
    10    10    11    1
    11    25    24    1
    12    25    26    1
    13    24    22    2
    14    26    27    2
    15    11    13    1
    16    11    12    1
    17    22    23    1
    18    22    21    1
    19    14    13    1
    20    13    15    1
    21    12    17    1
    22    27    21    1
    23    27    18    1
    24    21    20    2
    25    18    17    1
    26    18    19    1
    27    15    17    1
    28    15    16    1
    29    20    19    1
