@<TRIPOS>MOLECULE
2ofx_PPS_A_1.pdb
 31 33 0 0 0
SMALL
GASTEIGER

@<TRIPOS>ATOM
      1  S2         1.1240   30.6100    3.4660 S.3   1100  PPS1100     0.0049
      2  OS1        2.3340   29.7680    3.3210 O.2   1100  PPS1100    -0.3449
      3  OS2        0.3320   30.5740    2.2430 O.2   1100  PPS1100    -0.3449
      4  OS3        0.3610   30.1970    4.6450 O.3   1100  PPS1100    -0.2679
      5  O6P        1.5040   32.1500    3.8440 O.3   1100  PPS1100    -0.1945
      6  P2         2.7100   32.9400    3.1590 P.3   1100  PPS1100     0.2383
      7  O4P        3.9820   32.6440    3.9090 O.3   1100  PPS1100    -0.4361
      8  O5P        2.6650   32.7650    1.6620 O.2   1100  PPS1100    -0.5161
      9  O5'        2.3030   34.4600    3.4520 O.3   1100  PPS1100    -0.3102
     10  C5'        2.1910   34.9020    4.8000 C.3   1100  PPS1100     0.1813
     11  C4'        2.5140   36.3800    4.8290 C.3   1100  PPS1100     0.1795
     12  O4'        1.4090   37.1300    4.3540 O.3   1100  PPS1100    -0.3136
     13  C1'        1.0050   38.1390    5.3000 C.3   1100  PPS1100     0.3185
     14  N9        -0.3960   37.8030    5.6680 N.pl3 1100  PPS1100    -0.1439
     15  C4        -0.8650   36.7090    6.2950 C.2   1100  PPS1100     0.3518
     16  N3        -0.2870   35.6190    6.8970 N.2   1100  PPS1100    -0.0055
     17  C2        -1.0350   34.6790    7.4850 C.3   1100  PPS1100     0.5254
     18  N1        -2.3760   34.7880    7.5180 N.2   1100  PPS1100     0.0021
     19  C6        -3.0060   35.8340    6.9370 C.2   1100  PPS1100     0.4393
     20  N6        -4.3580   35.9290    6.9770 N.pl3 1100  PPS1100     0.2180
     21  C5        -2.2540   36.8330    6.3290 C.2   1100  PPS1100     0.2526
     22  N7        -2.5850   37.9900    5.6970 N.2   1100  PPS1100    -0.2095
     23  C8        -1.4420   38.5540    5.2880 C.3   1100  PPS1100     0.3377
     24  C2'        2.0380   38.1190    6.3980 C.3   1100  PPS1100     0.2543
     25  O2'        2.9070   39.2400    6.1420 O.3   1100  PPS1100    -0.2131
     26  C3'        2.7580   36.7830    6.2650 C.3   1100  PPS1100     0.1928
     27  O3'        4.1740   36.8320    6.4100 O.3   1100  PPS1100    -0.2673
     28  P1         5.0350   36.2410    7.6460 P.3   1100  PPS1100     0.5327
     29  O1P        4.5750   34.8590    7.9710 O.3   1100  PPS1100    -0.1145
     30  O2P        4.7440   37.2840    8.6920 O.3   1100  PPS1100    -0.1145
     31  O3P        6.4540   36.2550    7.1350 O.2   1100  PPS1100    -0.2224
@<TRIPOS>BOND
     1     8     6    2
     2     3     1    2
     3     6     9    1
     4     6     5    1
     5     6     7    1
     6     2     1    2
     7     9    10    1
     8     1     5    1
     9     1     4    1
    10    12    11    1
    11    12    13    1
    12    10    11    1
    13    11    26    1
    14    23    14    1
    15    23    22    1
    16    13    14    1
    17    13    24    1
    18    14    15    1
    19    22    21    2
    20    25    24    1
    21    26    24    1
    22    26    27    1
    23    15    21    1
    24    15    16    2
    25    21    19    1
    26    27    28    1
    27    16    17    1
    28    19    20    1
    29    19    18    2
    30    31    28    2
    31    17    18    1
    32    28    29    1
    33    28    30    1
