@<TRIPOS>MOLECULE
2ofx_ADP_A_1.pdb
 27 29 0 0 0
SMALL
GASTEIGER

@<TRIPOS>ATOM
      1  PB         8.3930   35.7650    9.6900 P.3   1300  ADP1300     0.5373
      2  O1B        8.2710   34.3850   10.3020 O.3   1300  ADP1300    -0.1143
      3  O2B        9.0340   35.8510    8.3450 O.2   1300  ADP1300    -0.2221
      4  O3B        7.0850   36.5390    9.8070 O.3   1300  ADP1300    -0.1143
      5  PA        10.3170   37.8490   10.4780 P.3   1300  ADP1300     0.2231
      6  O1A       11.6910   37.5050    9.9820 O.3   1300  ADP1300    -0.4370
      7  O2A        9.4830   38.8180    9.6880 O.2   1300  ADP1300    -0.5169
      8  O3A        9.3680   36.5530   10.7280 O.3   1300  ADP1300    -0.2261
      9  O5'       10.6730   38.2780   11.9900 O.3   1300  ADP1300    -0.3111
     10  C5'        9.7940   38.8630   12.9330 C.3   1300  ADP1300     0.1813
     11  C4'       10.5970   39.7340   13.9010 C.3   1300  ADP1300     0.1821
     12  O4'       11.2920   38.9240   14.8470 O.3   1300  ADP1300    -0.3135
     13  C3'       11.6360   40.6300   13.2410 C.3   1300  ADP1300     0.2184
     14  O3'       11.4980   41.9450   13.7830 O.3   1300  ADP1300    -0.2174
     15  C2'       12.9810   40.0690   13.6490 C.3   1300  ADP1300     0.2570
     16  O2'       13.9260   41.1190   13.8840 O.3   1300  ADP1300    -0.2130
     17  C1'       12.6680   39.2820   14.9100 C.3   1300  ADP1300     0.3186
     18  N9        13.4760   38.0420   15.0130 N.pl3 1300  ADP1300    -0.1439
     19  C8        13.5920   37.0780   14.0830 C.3   1300  ADP1300     0.3377
     20  N7        14.4140   36.0940   14.5070 N.2   1300  ADP1300    -0.2095
     21  C5        14.8350   36.4250   15.7400 C.2   1300  ADP1300     0.2526
     22  C6        15.7290   35.8240   16.7600 C.2   1300  ADP1300     0.4393
     23  N6        16.3320   34.6320   16.5300 N.pl3 1300  ADP1300     0.2180
     24  N1        15.8950   36.5030   17.9250 N.2   1300  ADP1300     0.0021
     25  C2        15.2830   37.6860   18.1610 C.3   1300  ADP1300     0.5254
     26  N3        14.4660   38.2900   17.2750 N.2   1300  ADP1300    -0.0055
     27  C4        14.2110   37.7140   16.0730 C.2   1300  ADP1300     0.3518
@<TRIPOS>BOND
     1     3     1    2
     2     7     5    2
     3     1     4    1
     4     1     2    1
     5     1     8    1
     6     6     5    1
     7     5     8    1
     8     5     9    1
     9     9    10    1
    10    10    11    1
    11    13    15    1
    12    13    14    1
    13    13    11    1
    14    15    16    1
    15    15    17    1
    16    11    12    1
    17    19    20    1
    18    19    18    1
    19    20    21    2
    20    12    17    1
    21    17    18    1
    22    18    27    1
    23    21    27    1
    24    21    22    1
    25    27    26    2
    26    23    22    1
    27    22    24    2
    28    26    25    1
    29    24    25    1
