@<TRIPOS>MOLECULE
2og7_AHB_A_1.pdb
 10 9 0 0 0
SMALL
GASTEIGER

@<TRIPOS>ATOM
      1  N          0.7030   58.8690  -15.9980 N.3   7002  AHB7002    -0.1175
      2  CA         1.2000   57.5400  -15.5180 C.3   7002  AHB7002     0.2334
      3  CB         1.2510   57.5320  -13.9940 C.3   7002  AHB7002     0.2590
      4  OB        -0.0900   57.6850  -13.5230 O.3   7002  AHB7002    -0.2109
      5  CG         2.2130   58.5940  -13.5300 C.2   7002  AHB7002     0.2933
      6  OD1        2.0100   59.7890  -13.7300 O.2   7002  AHB7002    -0.2688
      7  ND2        3.3200   58.1900  -12.9260 N.am  7002  AHB7002    -0.0855
      8  C          0.3490   56.3890  -15.9720 C.2   7002  AHB7002     0.3850
      9  O         -0.7230   56.6000  -16.5520 O.co2 7002  AHB7002    -0.2439
     10  OXT        0.6970   55.2030  -15.7700 O.co2 7002  AHB7002    -0.2439
@<TRIPOS>BOND
     1     9     8   ar
     2     1     2    1
     3     8    10   ar
     4     8     2    1
     5     2     3    1
     6     3     5    1
     7     3     4    1
     8     6     5    2
     9     5     7   am
