@<TRIPOS>MOLECULE
2og8_1N8_A_1.pdb
 41 44 0 0 0
SMALL
GASTEIGER

@<TRIPOS>ATOM
      1  C22        3.0170   26.6310   58.1430 C.ar  501  1N8501     -0.0041
      2  C23        3.3950   27.6880   57.2440 C.ar  501  1N8501      0.0043
      3  C11        4.7990   27.8720   56.9700 C.ar  501  1N8501      0.0554
      4  C14        5.2680   28.8830   55.9860 C.2   501  1N8501      0.2690
      5  N3         4.4430   29.9090   55.6550 N.am  501  1N8501     -0.1741
      6  C15        4.5500   30.6750   54.5550 C.ar  501  1N8501      0.0889
      7  C20        4.3920   32.0770   54.6920 C.ar  501  1N8501      0.0887
      8  C19        4.4850   33.0190   53.5830 C.ar  501  1N8501      0.0179
      9  C18        4.7510   32.4630   52.3020 C.ar  501  1N8501      0.0053
     10  C17        4.9150   31.0060   52.1520 C.ar  501  1N8501      0.0728
     11  C16        4.8130   30.1020   53.2920 C.ar  501  1N8501      0.0218
     12  C21        5.2010   30.3940   50.7400 C.3   501  1N8501      0.4186
     13  F1         4.7940   29.1490   50.5580 F     501  1N8501     -0.1659
     14  F2         6.4700   30.4090   50.4520 F     501  1N8501     -0.1659
     15  F3         4.5570   31.0590   49.8280 F     501  1N8501     -0.1659
     16  O1         6.3640   28.8020   55.4640 O.2   501  1N8501     -0.2680
     17  C12        5.8100   27.0330   57.5850 C.ar  501  1N8501      0.0043
     18  C13        5.4580   25.9530   58.4940 C.ar  501  1N8501     -0.0038
     19  C24        4.0610   25.7940   58.7340 C.ar  501  1N8501     -0.0218
     20  C25        3.5590   24.7130   59.5990 C.3   501  1N8501      0.0310
     21  N4         4.1440   32.4690   55.9700 N.am  501  1N8501     -0.1767
     22  C26        3.5140   33.6200   56.3390 C.2   501  1N8501      0.2620
     23  C27        3.7760   34.0150   57.7810 C.3   501  1N8501      0.1606
     24  N6         3.7970   35.4930   57.8910 N.3   501  1N8501     -0.2650
     25  C28        4.9520   35.9320   58.7010 C.3   501  1N8501      0.0726
     26  C29        2.5630   36.0720   58.4440 C.3   501  1N8501      0.0726
     27  C30        5.5420   37.1550   58.0270 C.3   501  1N8501      0.0188
     28  C5         1.8260   35.1180   59.3770 C.3   501  1N8501      0.0188
     29  N1         9.7900   21.4520   58.1900 N.2   501  1N8501     -0.1686
     30  C2         8.7190   22.1740   57.7860 C.2   501  1N8501      0.1143
     31  C3         8.1960   23.2170   58.6010 C.ar  501  1N8501      0.0505
     32  C4         8.8840   23.4720   59.9240 C.ar  501  1N8501      0.1456
     33  N5         9.9810   22.6650   60.2400 N.2   501  1N8501     -0.3364
     34  C6        10.4070   21.6840   59.3830 C.1   501  1N8501      0.1652
     35  C7         7.0850   24.0310   58.2200 C.ar  501  1N8501      0.0041
     36  C8         6.5720   25.1220   59.0530 C.ar  501  1N8501     -0.0001
     37  C9         7.2320   25.3710   60.3500 C.ar  501  1N8501      0.0026
     38  C10        8.3800   24.5490   60.7780 C.ar  501  1N8501      0.0331
     39  N2        11.4400   20.8790   59.7030 N.pl3 501  1N8501     -0.1602
     40  C1        12.2420   21.0180   60.9180 C.3   501  1N8501      0.1494
     41  O2         2.8020   34.2880   55.5870 O.2   501  1N8501     -0.2715
@<TRIPOS>BOND
     1    15    12    1
     2    14    12    1
     3    13    12    1
     4    12    10    1
     5    10     9   ar
     6    10    11   ar
     7     9     8   ar
     8    11     6   ar
     9     8     7   ar
    10     6     7   ar
    11     6     5    1
    12     7    21    1
    13    16     4    2
    14    41    22    2
    15     5     4   am
    16    21    22   am
    17     4     3    1
    18    22    23    1
    19     3     2   ar
    20     3    17   ar
    21     2     1   ar
    22    17    18   ar
    23    23    24    1
    24    30    29    1
    25    30    31    2
    26    24    26    1
    27    24    25    1
    28    27    25    1
    29     1    19   ar
    30    29    34    2
    31    35    31   ar
    32    35    36   ar
    33    26    28    1
    34    18    19   ar
    35    18    36    1
    36    31    32   ar
    37    19    20    1
    38    36    37   ar
    39    34    39    1
    40    34    33    2
    41    39    40    1
    42    32    33    2
    43    32    38   ar
    44    37    38   ar
