@<TRIPOS>MOLECULE
2oga_PGU_A_1.pdb
 25 25 0 0 0
SMALL
GASTEIGER

@<TRIPOS>ATOM
      1  N1        19.5290  -35.9370    4.3470 N.ar  1020  PGU1020    -0.2452
      2  C2        18.8260  -35.1280    5.1500 C.ar  1020  PGU1020     0.0978
      3  C2A       18.8370  -33.6260    4.9040 C.3   1020  PGU1020     0.0555
      4  C3        18.0730  -35.6700    6.2050 C.ar  1020  PGU1020     0.2067
      5  O3        17.3520  -34.8730    6.9980 O.3   1020  PGU1020    -0.2856
      6  C4        18.0920  -37.0500    6.4260 C.ar  1020  PGU1020     0.0421
      7  C4A       17.3120  -37.6880    7.5340 C.3   1020  PGU1020     0.1547
      8  C5        18.8540  -37.8450    5.6110 C.ar  1020  PGU1020     0.0280
      9  C6        19.5860  -37.2610    4.5620 C.ar  1020  PGU1020     0.0965
     10  C5A       18.8560  -39.3470    5.8470 C.3   1020  PGU1020     0.1816
     11  O4P       17.7050  -39.8600    5.3590 O.3   1020  PGU1020    -0.2653
     12  P         17.2170  -41.1810    6.1560 P.3   1020  PGU1020     0.5329
     13  O1P       16.6620  -40.7340    7.5880 O.3   1020  PGU1020    -0.1145
     14  O2P       18.4500  -42.1900    6.3300 O.3   1020  PGU1020    -0.1145
     15  O3P       16.0440  -41.8800    5.3380 O.2   1020  PGU1020    -0.2224
     16  N         17.4620  -36.8640    8.7100 N.2   1020  PGU1020    -0.2632
     17  CA        17.2340  -37.3270    9.8710 C.2   1020  PGU1020     0.1340
     18  CB        16.8150  -38.7680   10.0950 C.3   1020  PGU1020     0.0641
     19  CG        18.0690  -39.5180   10.5570 C.3   1020  PGU1020     0.1205
     20  CD        17.7940  -40.9770   10.5960 C.2   1020  PGU1020     0.3653
     21  OE1       17.4100  -41.5880    9.5580 O.co2 1020  PGU1020    -0.2456
     22  OE2       17.9760  -41.6160   11.6680 O.co2 1020  PGU1020    -0.2456
     23  C         17.4230  -36.4530   11.0110 C.2   1020  PGU1020     0.4007
     24  O         18.1210  -35.3900   10.8800 O.co2 1020  PGU1020    -0.2392
     25  OXT       16.9470  -36.7900   12.1310 O.co2 1020  PGU1020    -0.2392
@<TRIPOS>BOND
     1     1     9   ar
     2     1     2   ar
     3     9     8   ar
     4     3     2    1
     5     2     4   ar
     6    15    12    2
     7    11    10    1
     8    11    12    1
     9     8    10    1
    10     8     6   ar
    11    12    14    1
    12    12    13    1
    13     4     6   ar
    14     4     5    1
    15     6     7    1
    16     7    16    1
    17    16    17    2
    18    21    20   ar
    19    17    18    1
    20    17    23    1
    21    18    19    1
    22    19    20    1
    23    20    22   ar
    24    24    23   ar
    25    23    25   ar
