@<TRIPOS>MOLECULE
2ogd_SUF_A_1.pdb
 14 13 0 0 0
SMALL
GASTEIGER

@<TRIPOS>ATOM
      1  P1        26.3960  -14.4640    8.1940 P.3   3001  SUF3001     0.1519
      2  P2        25.5840  -14.2290   11.1490 P.3   3001  SUF3001     0.1519
      3  S         28.3030  -15.9030   11.9660 S.3   3001  SUF3001    -0.1745
      4  O1        24.6830  -15.4230   11.0490 O.3   3001  SUF3001    -0.3552
      5  O2        27.8290  -13.1820   10.0660 O.3   3001  SUF3001    -0.2099
      6  O3        26.1750  -14.0750   12.5870 O.3   3001  SUF3001    -0.3552
      7  O4        25.7110  -13.1850    7.7780 O.3   3001  SUF3001    -0.3552
      8  O5        25.4090  -15.6620    8.1770 O.3   3001  SUF3001    -0.3552
      9  C1        26.9900  -14.3450    9.9400 C.3   3001  SUF3001     0.2250
     10  O6        27.6190  -14.7350    7.3480 O.2   3001  SUF3001    -0.4572
     11  C2        27.8710  -15.6090   10.2020 C.3   3001  SUF3001     0.0928
     12  O7        24.9510  -12.8780   10.8120 O.2   3001  SUF3001    -0.4572
     13  C3        29.3470  -14.4960   12.3870 C.3   3001  SUF3001     0.0591
     14  C4        29.3980  -17.3050   11.8760 C.3   3001  SUF3001     0.0591
@<TRIPOS>BOND
     1    10     1    2
     2     7     1    1
     3     8     1    1
     4     1     9    1
     5     9     5    1
     6     9    11    1
     7     9     2    1
     8    11     3    1
     9    12     2    2
    10     4     2    1
    11     2     6    1
    12    14     3    1
    13     3    13    1
