@<TRIPOS>MOLECULE
2ogf_OXG_A_1.pdb
 12 13 0 0 0
SMALL
GASTEIGER

@<TRIPOS>ATOM
      1  N9        21.1060    8.1430   15.1000 N.2   602  OXG602     -0.2373
      2  C8        19.8220    7.9120   14.7970 C.1   602  OXG602      0.3665
      3  N7        19.5020    7.6260   13.5060 N.2   602  OXG602     -0.2823
      4  C5        20.6980    7.6700   12.8840 C.2   602  OXG602      0.3261
      5  C6        21.2350    7.4740   11.5130 C.1   602  OXG602      0.2591
      6  O6        20.5170    7.1840   10.5360 O.2   602  OXG602     -0.2051
      7  N1        22.5690    7.6190   11.3550 N.2   602  OXG602     -0.2465
      8  C2        23.4410    7.9110   12.3630 C.1   602  OXG602      0.2618
      9  N2        24.7560    8.0020   12.0540 N.pl3 602  OXG602     -0.0220
     10  N3        23.0320    8.1100   13.6450 N.2   602  OXG602     -0.2542
     11  C4        21.7110    7.9820   13.9160 C.1   602  OXG602      0.2084
     12  O8        18.9550    7.9960   15.7120 O.2   602  OXG602     -0.1745
@<TRIPOS>BOND
     1     6     5    2
     2     7     5    2
     3     7     8    2
     4     5     4    1
     5     9     8    1
     6     8    10    2
     7     4     3    2
     8     4    11    1
     9     3     2    2
    10    10    11    2
    11    11     1    2
    12     2     1    2
    13     2    12    2
