@<TRIPOS>MOLECULE
2ogi_GDP_A_1.pdb
 28 30 0 0 0
SMALL
GASTEIGER

@<TRIPOS>ATOM
      1  PB         3.7060   16.6960   33.1770 P.3   400  GDP400      0.5373
      2  O1B        4.9760   17.1000   33.8870 O.3   400  GDP400     -0.1143
      3  O2B        3.2840   17.8560   32.2790 O.2   400  GDP400     -0.2221
      4  O3B        3.8490   15.3650   32.4370 O.3   400  GDP400     -0.1143
      5  O3A        2.6410   16.3940   34.3860 O.3   400  GDP400     -0.2261
      6  PA         1.3410   17.2850   34.8020 P.3   400  GDP400      0.2231
      7  O1A        0.6430   18.0760   33.7250 O.2   400  GDP400     -0.5169
      8  O2A        0.3670   16.3950   35.5720 O.3   400  GDP400     -0.4370
      9  O5'        1.8640   18.3200   35.9610 O.3   400  GDP400     -0.3111
     10  C5'        2.9930   19.1610   35.8310 C.3   400  GDP400      0.1813
     11  C4'        3.2630   19.8430   37.1810 C.3   400  GDP400      0.1799
     12  O4'        2.0780   20.5440   37.5700 O.3   400  GDP400     -0.3326
     13  C3'        3.6590   18.9300   38.3550 C.3   400  GDP400      0.2158
     14  O3'        4.8590   19.4220   38.9680 O.3   400  GDP400     -0.2175
     15  C2'        2.5320   19.0330   39.3550 C.3   400  GDP400      0.2310
     16  O2'        2.9770   19.0110   40.7110 O.3   400  GDP400     -0.2158
     17  C1'        2.0180   20.4150   38.9890 C.3   400  GDP400      0.2293
     18  N9         0.6850   20.6430   39.5610 N.pl3 400  GDP400     -0.2354
     19  C8        -0.3400   19.8010   39.5810 C.3   400  GDP400      0.2246
     20  N7        -1.4060   20.3730   40.2080 N.2   400  GDP400     -0.2322
     21  C5        -0.9940   21.5980   40.6290 C.2   400  GDP400      0.2182
     22  C6        -1.5650   22.7030   41.4160 C.1   400  GDP400      0.2372
     23  O6        -2.7430   22.5380   41.8100 O.2   400  GDP400     -0.2069
     24  N1        -0.7780   23.8140   41.6460 N.2   400  GDP400     -0.2485
     25  C2         0.5280   23.9080   41.1990 C.1   400  GDP400      0.2531
     26  N2         1.3240   25.0230   41.4560 N.pl3 400  GDP400     -0.0226
     27  N3         1.1020   22.9030   40.4680 N.2   400  GDP400     -0.3074
     28  C4         0.3940   21.7760   40.1770 C.2   400  GDP400      0.2300
@<TRIPOS>BOND
     1     3     1    2
     2     4     1    1
     3     1     2    1
     4     1     5    1
     5     7     6    2
     6     5     6    1
     7     6     8    1
     8     6     9    1
     9    10     9    1
    10    10    11    1
    11    11    12    1
    12    11    13    1
    13    12    17    1
    14    13    14    1
    15    13    15    1
    16    17    15    1
    17    17    18    1
    18    15    16    1
    19    18    19    1
    20    18    28    1
    21    19    20    1
    22    28    27    2
    23    28    21    1
    24    20    21    2
    25    27    25    2
    26    21    22    1
    27    25    26    1
    28    25    24    2
    29    22    24    2
    30    22    23    2
