@<TRIPOS>MOLECULE
2ogx_ATP_A_1.pdb
 31 33 0 0 0
SMALL
GASTEIGER

@<TRIPOS>ATOM
      1  PG        30.9050   29.1730   35.8320 P.3   281  ATP281      0.5373
      2  O1G       31.6700   29.3960   37.1090 O.3   281  ATP281     -0.1143
      3  O2G       31.4050   30.0010   34.6920 O.2   281  ATP281     -0.2221
      4  O3G       30.6760   27.7410   35.4800 O.3   281  ATP281     -0.1143
      5  PB        28.5750   29.6350   37.4550 P.3   281  ATP281      0.2277
      6  O1B       28.6300   30.7910   38.3460 O.3   281  ATP281     -0.4368
      7  O2B       28.8200   28.2930   38.0800 O.2   281  ATP281     -0.5168
      8  O3B       29.4670   29.8680   36.1440 O.3   281  ATP281     -0.2258
      9  PA        26.2080   28.4640   36.2060 P.3   281  ATP281      0.2189
     10  O1A       26.5080   28.5360   34.7810 O.2   281  ATP281     -0.5170
     11  O2A       26.4260   27.2280   36.9990 O.3   281  ATP281     -0.4371
     12  O3A       27.0850   29.6760   36.8110 O.3   281  ATP281     -0.2700
     13  O5'       24.8080   29.0530   36.6280 O.3   281  ATP281     -0.3112
     14  C5'       24.3880   28.7270   37.9600 C.3   281  ATP281      0.1813
     15  C4'       22.9030   28.5690   37.6600 C.3   281  ATP281      0.1821
     16  O4'       22.6430   27.2260   37.2690 O.3   281  ATP281     -0.3135
     17  C3'       21.9560   28.7790   38.8130 C.3   281  ATP281      0.2184
     18  O3'       21.8200   30.1720   39.0600 O.3   281  ATP281     -0.2174
     19  C2'       20.7030   28.1690   38.2290 C.3   281  ATP281      0.2570
     20  O2'       19.8750   29.1600   37.6040 O.3   281  ATP281     -0.2130
     21  C1'       21.2280   27.2680   37.1170 C.3   281  ATP281      0.3186
     22  N9        20.7310   25.9040   37.2650 N.pl3 281  ATP281     -0.1439
     23  C8        20.3500   25.1350   36.2050 C.3   281  ATP281      0.3377
     24  N7        19.9350   23.9450   36.6520 N.2   281  ATP281     -0.2095
     25  C5        20.0140   23.9380   37.9940 C.2   281  ATP281      0.2526
     26  C6        19.6780   22.9840   39.0380 C.2   281  ATP281      0.4393
     27  N6        19.2100   21.7670   38.6750 N.pl3 281  ATP281      0.2180
     28  N1        19.9080   23.3630   40.3300 N.2   281  ATP281      0.0021
     29  C2        20.4340   24.5810   40.6550 C.3   281  ATP281      0.5254
     30  N3        20.7410   25.5070   39.7250 N.2   281  ATP281     -0.0055
     31  C4        20.5240   25.2420   38.4180 C.2   281  ATP281      0.3518
@<TRIPOS>BOND
     1     3     1    2
     2    10     9    2
     3     4     1    1
     4     1     8    1
     5     1     2    1
     6     8     5    1
     7    23    24    1
     8    23    22    1
     9     9    13    1
    10     9    12    1
    11     9    11    1
    12    13    14    1
    13    24    25    2
    14    12     5    1
    15    21    22    1
    16    21    16    1
    17    21    19    1
    18    22    31    1
    19    16    15    1
    20     5     7    2
    21     5     6    1
    22    20    19    1
    23    15    14    1
    24    15    17    1
    25    25    31    1
    26    25    26    1
    27    19    17    1
    28    31    30    2
    29    27    26    1
    30    17    18    1
    31    26    28    2
    32    30    29    1
    33    28    29    1
