@<TRIPOS>MOLECULE
2ogy_C2F_A_1.pdb
 33 35 0 0 0
SMALL
GASTEIGER

@<TRIPOS>ATOM
      1  N1        -9.2630   76.3060  121.3150 N.2   3000  C2F3000    -0.2726
      2  C2        -8.5850   77.3990  120.8580 C.1   3000  C2F3000     0.2603
      3  NA2       -8.1560   78.3200  121.7590 N.pl3 3000  C2F3000    -0.0221
      4  N3        -8.3300   77.5840  119.5250 N.2   3000  C2F3000    -0.2515
      5  C4        -8.7290   76.7050  118.5670 C.1   3000  C2F3000     0.2218
      6  O4        -8.4730   76.9120  117.3720 O.2   3000  C2F3000    -0.2109
      7  C4A       -9.4800   75.4800  118.9790 C.3   3000  C2F3000     0.2763
      8  N5        -9.9450   74.4870  118.0270 N.3   3000  C2F3000    -0.2435
      9  C6       -10.1440   73.1320  118.6510 C.3   3000  C2F3000     0.1062
     10  C7       -10.8860   73.1940  120.0340 C.3   3000  C2F3000     0.1547
     11  N8       -10.3900   74.2530  120.9250 N.2   3000  C2F3000    -0.2096
     12  C8A       -9.7230   75.3410  120.4630 C.1   3000  C2F3000     0.1050
     13  C9        -8.7660   72.4400  118.8140 C.3   3000  C2F3000     0.1302
     14  N10       -8.8650   70.9940  118.9260 N.pl3 3000  C2F3000    -0.2361
     15  C11      -11.1930   74.9590  117.3840 C.3   3000  C2F3000     0.0915
     16  C12       -9.3870   68.2930  115.7430 C.ar  3000  C2F3000     0.0551
     17  C13       -9.5400   67.8750  117.0990 C.ar  3000  C2F3000     0.0059
     18  C14       -9.3600   68.7960  118.1530 C.ar  3000  C2F3000     0.0162
     19  C15       -9.0260   70.1440  117.8660 C.ar  3000  C2F3000     0.0654
     20  C16       -8.8730   70.5610  116.4930 C.ar  3000  C2F3000     0.0162
     21  C17       -9.0550   69.6380  115.4430 C.ar  3000  C2F3000     0.0059
     22  C         -9.5810   67.2980  114.6400 C.2   3000  C2F3000     0.2652
     23  O         -8.7690   67.2500  113.7310 O.2   3000  C2F3000    -0.2684
     24  N        -10.6590   66.5100  114.7260 N.am  3000  C2F3000    -0.1918
     25  CA       -11.1160   65.4600  113.8250 C.3   3000  C2F3000     0.1986
     26  CB       -12.2900   64.6760  114.4480 C.3   3000  C2F3000     0.0451
     27  CG       -12.1370   63.1840  114.1260 C.3   3000  C2F3000     0.1164
     28  CD       -13.2850   62.3730  114.7310 C.2   3000  C2F3000     0.3649
     29  OE1      -14.4000   62.9700  114.7530 O.co2 3000  C2F3000    -0.2457
     30  OE2      -13.1350   61.2030  115.1710 O.co2 3000  C2F3000    -0.2457
     31  CT       -11.4750   66.0330  112.4620 C.2   3000  C2F3000     0.3842
     32  O1       -12.0830   67.1260  112.3980 O.co2 3000  C2F3000    -0.2437
     33  O2       -11.1480   65.4050  111.4350 O.co2 3000  C2F3000    -0.2437
@<TRIPOS>BOND
     1    33    31   ar
     2    32    31   ar
     3    31    25    1
     4    23    22    2
     5    25    26    1
     6    25    24    1
     7    27    26    1
     8    27    28    1
     9    22    24   am
    10    22    16    1
    11    28    29   ar
    12    28    30   ar
    13    21    16   ar
    14    21    20   ar
    15    16    17   ar
    16    20    19   ar
    17    17    18   ar
    18     6     5    2
    19    15     8    1
    20    19    18   ar
    21    19    14    1
    22     8     9    1
    23     8     7    1
    24     5     7    1
    25     5     4    2
    26     9    13    1
    27     9    10    1
    28    13    14    1
    29     7    12    1
    30     4     2    2
    31    10    11    1
    32    12    11    2
    33    12     1    2
    34     2     1    2
    35     2     3    1
