@<TRIPOS>MOLECULE
2ogz_U1N_A_1.pdb
 24 25 0 0 0
SMALL
GASTEIGER

@<TRIPOS>ATOM
      1  C1        34.2130   52.6560   94.4520 C.ar  767  U1N767      0.0566
      2  C2        34.1970   53.5420   95.5800 C.ar  767  U1N767      0.0043
      3  C3        35.4170   54.1410   96.0020 C.ar  767  U1N767     -0.0041
      4  C4        36.6450   53.8670   95.3240 C.ar  767  U1N767     -0.0221
      5  C5        36.6460   52.9900   94.2130 C.ar  767  U1N767     -0.0041
      6  C6        35.4460   52.3890   93.7790 C.ar  767  U1N767      0.0043
      7  C7        37.9420   54.4870   95.7580 C.3   767  U1N767      0.0278
      8  C8        37.8530   55.9950   95.9480 C.3   767  U1N767      0.0221
      9  C9        37.8050   56.8150   94.6430 C.3   767  U1N767      0.0737
     10  C11       38.4450   58.1650   94.9440 C.3   767  U1N767      0.0188
     11  N12       38.5370   56.1390   93.5360 N.3   767  U1N767     -0.2113
     12  C13       38.1230   56.5430   92.1780 C.3   767  U1N767      0.1574
     13  C14       36.7270   56.0100   91.7850 C.2   767  U1N767      0.1905
     14  O15       35.6870   56.5530   92.1200 O.2   767  U1N767     -0.2898
     15  C16       36.5970   54.7540   90.9250 C.ar  767  U1N767      0.0363
     16  C17       37.5710   53.6990   90.9160 C.ar  767  U1N767      0.0052
     17  C18       37.3870   52.5590   90.0940 C.ar  767  U1N767      0.0297
     18  C19       36.2390   52.4710   89.2750 C.ar  767  U1N767      0.1401
     19  F20       36.0780   51.4110   88.5040 F     767  U1N767     -0.2042
     20  C21       35.2610   53.4920   89.2640 C.ar  767  U1N767      0.0297
     21  C22       35.4420   54.6290   90.0850 C.ar  767  U1N767      0.0052
     22  C23       33.0140   51.9660   93.9350 C.2   767  U1N767      0.2842
     23  N24       31.7430   52.1500   94.5410 N.am  767  U1N767     -0.0837
     24  O25       33.0390   51.2110   92.9880 O.2   767  U1N767     -0.2667
@<TRIPOS>BOND
     1    19    18    1
     2    20    18   ar
     3    20    21   ar
     4    18    17   ar
     5    21    15   ar
     6    17    16   ar
     7    16    15   ar
     8    15    13    1
     9    13    14    2
    10    13    12    1
    11    12    11    1
    12    24    22    2
    13    11     9    1
    14     6     5   ar
    15     6     1   ar
    16    22     1    1
    17    22    23   am
    18     5     4   ar
    19     1     2   ar
    20     9    10    1
    21     9     8    1
    22     4     7    1
    23     4     3   ar
    24     2     3   ar
    25     7     8    1
