@<TRIPOS>MOLECULE
2oh0_2PY_E_1.pdb
 29 33 0 0 0
SMALL
GASTEIGER

@<TRIPOS>ATOM
      1  N1         3.3250   10.2010    4.8580 N.2   351  2PY351     -0.1464
      2  N3         9.5060   10.5300   -0.9050 N.ar  351  2PY351     -0.2395
      3  C4         4.0270   10.0650    2.7230 C.2   351  2PY351      0.1038
      4  C5         4.2100    9.9710    1.3510 C.2   351  2PY351      0.0170
      5  C6         5.5260    9.9600    0.8100 C.2   351  2PY351     -0.0160
      6  C8         4.6670   10.2380    4.9680 C.2   351  2PY351      0.1233
      7  C10       13.4490   13.5440    0.2790 C.2   351  2PY351     -0.0199
      8  C13       14.1020   11.0450    1.4890 C.2   351  2PY351      0.0113
      9  C15       12.8190   13.1790    1.5080 C.3   351  2PY351      0.0521
     10  C17       14.6510    9.7490    1.8010 C.2   351  2PY351     -0.0003
     11  C20        8.0730   10.0080    1.0060 C.ar  351  2PY351      0.0078
     12  C21        9.1970    9.4240    1.6440 C.ar  351  2PY351      0.0364
     13  C22       10.4730    9.3980    0.9970 C.ar  351  2PY351      0.1574
     14  C24       11.8040    8.2200    2.7230 C.3   351  2PY351      0.2246
     15  C1         6.6950   10.0440    1.6390 C.3   351  2PY351      0.0679
     16  C2         6.4860   10.1420    3.0590 C.2   351  2PY351     -0.0145
     17  C3         5.1800   10.1540    3.6060 C.2   351  2PY351      0.0367
     18  N5         2.9580   10.1020    3.5760 N.2   351  2PY351     -0.1479
     19  C11       14.4000   12.6690   -0.3400 C.2   351  2PY351      0.0148
     20  C12       14.7040   11.4490    0.2720 C.2   351  2PY351      0.0804
     21  C14       13.1290   11.9370    2.1310 C.2   351  2PY351     -0.0202
     22  N2        15.5800   10.4480   -0.1330 N.2   351  2PY351     -0.2442
     23  C16       15.5430    9.4320    0.7880 C.2   351  2PY351      0.0946
     24  C18       10.5650    9.9710   -0.2860 C.ar  351  2PY351      0.1356
     25  C19        8.2920   10.5480   -0.2800 C.ar  351  2PY351      0.0954
     26  O1        11.6750    8.8550    1.4630 O.3   351  2PY351     -0.4723
     27  C23       13.2770    7.7430    2.7970 C.3   351  2PY351      0.1397
     28  C25       14.3050    8.8880    3.0220 C.3   351  2PY351      0.0508
     29  N4        13.5810    7.0080    1.5440 N.3   351  2PY351     -0.1286
@<TRIPOS>BOND
     1     2    24   ar
     2     2    25   ar
     3    19    20    1
     4    19     7    2
     5    24    13   ar
     6    25    11   ar
     7    22    20    2
     8    22    23    1
     9    20     8    1
    10     7     9    1
    11    23    10    2
    12     5     4    2
    13     5    15    1
    14    13    26    1
    15    13    12   ar
    16    11    15    1
    17    11    12   ar
    18     4     3    1
    19    26    14    1
    20     8    10    1
    21     8    21    2
    22     9    21    1
    23    29    27    1
    24    15    16    1
    25    10    28    1
    26    14    27    1
    27     3    18    2
    28     3    17    1
    29    27    28    1
    30    16    17    2
    31    18     1    1
    32    17     6    1
    33     1     6    2
