@<TRIPOS>MOLECULE
2oh2_TTP_A_1.pdb
 29 30 0 0 0
SMALL
GASTEIGER

@<TRIPOS>ATOM
      1  PA        43.6870   17.7650   67.2340 P.3   873  TTP873      0.2189
      2  O1A       43.5620   16.7340   68.0490 O.3   873  TTP873     -0.4371
      3  O2A       42.8730   18.8420   67.9730 O.2   873  TTP873     -0.5170
      4  O3A       45.2770   18.2880   67.0410 O.3   873  TTP873     -0.2700
      5  PB        46.5570   17.5250   67.7610 P.3   873  TTP873      0.2277
      6  O1B       47.6840   17.4990   66.6870 O.2   873  TTP873     -0.5168
      7  O2B       46.1760   16.0640   68.1290 O.3   873  TTP873     -0.4368
      8  O3B       47.1070   18.2580   69.0940 O.3   873  TTP873     -0.2258
      9  PG        46.6820   17.7270   70.5780 P.3   873  TTP873      0.5373
     10  O1G       46.2410   18.9570   71.4180 O.3   873  TTP873     -0.1143
     11  O2G       47.9530   17.0600   71.1980 O.3   873  TTP873     -0.1143
     12  O3G       45.5030   16.7150   70.5010 O.2   873  TTP873     -0.2221
     13  O5'       43.4080   17.3720   65.9440 O.3   873  TTP873     -0.3112
     14  C5'       44.2840   16.2350   65.2250 C.3   873  TTP873      0.1812
     15  C4'       44.8470   16.5290   63.8480 C.3   873  TTP873      0.1773
     16  O4'       43.9330   17.0760   62.9010 O.3   873  TTP873     -0.3342
     17  C3'       46.0120   17.4720   63.9850 C.3   873  TTP873      0.1857
     18  O3'       47.1610   16.6890   63.7190 O.3   873  TTP873     -0.2203
     19  C2'       45.7860   18.5760   63.0010 C.3   873  TTP873      0.0871
     20  C1'       44.5100   18.2090   62.2890 C.3   873  TTP873      0.2052
     21  N1        43.6190   19.5000   62.5360 N.am  873  TTP873     -0.1977
     22  C2        43.3930   20.2960   61.3930 C.1   873  TTP873      0.2807
     23  O2        43.7750   19.9750   60.2850 O.2   873  TTP873     -0.1922
     24  N3        42.7430   21.4700   61.4370 N.2   873  TTP873     -0.2457
     25  C4        42.2640   21.9490   62.6120 C.1   873  TTP873      0.2138
     26  O4        41.6530   23.0990   62.5330 O.2   873  TTP873     -0.2088
     27  C5        42.4330   21.2190   63.8420 C.2   873  TTP873      0.0940
     28  C5M       42.0980   21.5440   64.6890 C.2   873  TTP873      0.0105
     29  C6        43.1200   19.9990   63.7250 C.3   873  TTP873      0.1450
@<TRIPOS>BOND
     1    23    22    2
     2    22    24    2
     3    22    21   am
     4    24    25    2
     5    20    21    1
     6    20    16    1
     7    20    19    1
     8    26    25    2
     9    21    29    1
    10    25    27    1
    11    16    15    1
    12    19    17    1
    13    18    17    1
    14    29    27    1
    15    27    28    2
    16    15    17    1
    17    15    14    1
    18    14    13    1
    19    13     1    1
    20     6     5    2
    21     4     1    1
    22     4     5    1
    23     1     3    2
    24     1     2    1
    25     5     7    1
    26     5     8    1
    27     8     9    1
    28    12     9    2
    29     9    11    1
    30     9    10    1
