@<TRIPOS>MOLECULE
2oh4_GIG_A_1.pdb
 36 39 0 0 0
SMALL
GASTEIGER

@<TRIPOS>ATOM
      1  C5         3.8180   42.1630   16.2660 C.ar  303  GIG303      0.0729
      2  C6         3.3520   40.9610   15.7890 C.ar  303  GIG303      0.0228
      3  C7         2.2310   40.9280   14.9250 C.ar  303  GIG303      0.1023
      4  C8         1.6380   42.1490   14.5570 C.ar  303  GIG303      0.1554
      5  C10        3.2090   43.3680   15.9180 C.ar  303  GIG303      0.0062
      6  N12        1.7150   39.7440   14.3920 N.am  303  GIG303     -0.1584
      7  C13        1.8400   38.4790   14.9620 C.2   303  GIG303      0.3478
      8  C17        0.3750   35.3350   13.5620 C.ar  303  GIG303      0.0198
      9  C20        1.3240   34.2650   15.9590 C.ar  303  GIG303      0.0388
     10  C21        1.5310   35.6090   15.6870 C.ar  303  GIG303      0.0198
     11  C24        0.9770   30.2490   16.5390 C.ar  303  GIG303      0.0732
     12  C36        2.5920   24.1590   20.7880 C.3   303  GIG303      0.2574
     13  O35        3.3860   24.9300   19.8640 O.3   303  GIG303     -0.4287
     14  C33        2.7940   26.0050   19.3060 C.2   303  GIG303      0.4363
     15  O34        1.5340   26.0010   19.2070 O.2   303  GIG303     -0.2234
     16  N32        3.6610   26.6580   18.5000 N.am  303  GIG303     -0.0516
     17  C27        3.2900   27.8030   17.7700 C.1   303  GIG303      0.2301
     18  N28        4.1140   28.5060   16.9830 N.2   303  GIG303     -0.3240
     19  C29        3.3300   29.5070   16.4530 C.ar  303  GIG303      0.1756
     20  C30        3.6970   30.5510   15.5730 C.ar  303  GIG303      0.0389
     21  C31        2.6930   31.4170   15.1850 C.ar  303  GIG303      0.0403
     22  C23        1.3710   31.2660   15.6690 C.ar  303  GIG303      0.1481
     23  O22        0.3720   32.1280   15.2970 O.3   303  GIG303     -0.4534
     24  C19        0.6090   33.4740   15.0400 C.ar  303  GIG303      0.1454
     25  C16        1.0590   36.1610   14.4710 C.ar  303  GIG303      0.0752
     26  N15        1.2720   37.5070   14.1350 N.am  303  GIG303     -0.1607
     27  O14        2.7540   38.2140   15.7960 O.2   303  GIG303     -0.2484
     28  C9         2.1110   43.3720   15.0650 C.ar  303  GIG303      0.0309
     29  F11        0.5910   42.1310   13.7320 F     303  GIG303     -0.2028
     30  C2         5.0010   42.1560   17.2260 C.3   303  GIG303      0.4186
     31  F3         5.1800   43.3280   17.8870 F     303  GIG303     -0.1659
     32  F4         4.8570   41.2930   18.2530 F     303  GIG303     -0.1659
     33  F1         6.1940   41.7900   16.7140 F     303  GIG303     -0.1659
     34  C18        0.1510   33.9940   13.8360 C.ar  303  GIG303      0.0388
     35  C25        1.9790   29.3760   16.9330 C.ar  303  GIG303      0.1784
     36  N26        1.9620   28.2750   17.7700 N.2   303  GIG303     -0.3239
@<TRIPOS>BOND
     1     8    34   ar
     2     8    25   ar
     3    29     4    1
     4    34    24   ar
     5    26    25    1
     6    26     7   am
     7     6     3    1
     8     6     7   am
     9    25    10   ar
    10     4     3   ar
    11     4    28   ar
    12     3     2   ar
    13     7    27    2
    14    24    23    1
    15    24     9   ar
    16    28     5   ar
    17    21    20   ar
    18    21    22   ar
    19    23    22    1
    20    20    19   ar
    21    22    11   ar
    22    10     9   ar
    23     2     1   ar
    24     5     1   ar
    25     1    30    1
    26    19    35   ar
    27    19    18    2
    28    11    35   ar
    29    33    30    1
    30    35    36    2
    31    18    17    2
    32    30    31    1
    33    30    32    1
    34    17    36    2
    35    17    16    1
    36    16    14   am
    37    15    14    2
    38    14    13    1
    39    13    12    1
