@<TRIPOS>MOLECULE
2oh5_GTP_A_1.pdb
 32 34 0 0 0
SMALL
GASTEIGER

@<TRIPOS>ATOM
      1  PG        41.8190   50.3530    7.0020 P.3   252  GTP252      0.5373
      2  O1G       41.8410   50.5260    5.5320 O.2   252  GTP252     -0.2221
      3  O2G       43.2570   50.5990    7.6810 O.3   252  GTP252     -0.1143
      4  O3G       41.3660   48.8740    7.4500 O.3   252  GTP252     -0.1143
      5  O3B       40.8050   51.3660    7.7360 O.3   252  GTP252     -0.2258
      6  PB        39.2340   51.0220    7.8060 P.3   252  GTP252      0.2277
      7  O1B       38.8310   49.9750    6.8410 O.2   252  GTP252     -0.5168
      8  O2B       38.4660   52.4170    7.5720 O.3   252  GTP252     -0.4368
      9  O3A       38.9420   50.6090    9.3350 O.3   252  GTP252     -0.2700
     10  PA        39.0780   49.0720    9.7940 P.3   252  GTP252      0.2189
     11  O1A       39.2660   48.1470    8.6540 O.2   252  GTP252     -0.5170
     12  O2A       40.3000   49.0310   10.8400 O.3   252  GTP252     -0.4371
     13  O5'       37.7530   48.7480   10.6490 O.3   252  GTP252     -0.3112
     14  C5'       36.4820   48.6710    9.9980 C.3   252  GTP252      0.1813
     15  C4'       35.3400   48.7900   11.0080 C.3   252  GTP252      0.1799
     16  O4'       35.4780   50.0150   11.7450 O.3   252  GTP252     -0.3326
     17  C3'       34.0140   48.9540   10.2630 C.3   252  GTP252      0.2158
     18  O3'       33.3310   47.6990   10.2210 O.3   252  GTP252     -0.2175
     19  C2'       33.2240   49.9360   11.1300 C.3   252  GTP252      0.2310
     20  O2'       32.0480   49.2940   11.6290 O.3   252  GTP252     -0.2158
     21  C1'       34.1710   50.2430   12.2920 C.3   252  GTP252      0.2293
     22  N9        34.0370   51.6660   12.6750 N.pl3 252  GTP252     -0.2354
     23  C8        33.5090   52.1220   13.8120 C.3   252  GTP252      0.2246
     24  N7        33.5550   53.4540   13.8120 N.2   252  GTP252     -0.2322
     25  C5        34.1160   53.8480   12.6750 C.2   252  GTP252      0.2182
     26  C6        34.4110   55.0990   12.1510 C.1   252  GTP252      0.2372
     27  O6        34.1440   56.1200   12.7830 O.2   252  GTP252     -0.2069
     28  N1        35.0160   55.1770   10.8950 N.2   252  GTP252     -0.2485
     29  C2        35.3060   53.9950   10.2030 C.1   252  GTP252      0.2531
     30  N2        35.8820   54.0530    9.0070 N.pl3 252  GTP252     -0.0226
     31  N3        35.0050   52.8020   10.7420 N.2   252  GTP252     -0.3074
     32  C4        34.4240   52.7080   11.9470 C.2   252  GTP252      0.2300
@<TRIPOS>BOND
     1     2     1    2
     2     7     6    2
     3     1     4    1
     4     1     3    1
     5     1     5    1
     6     8     6    1
     7     5     6    1
     8     6     9    1
     9    11    10    2
    10    30    29    1
    11     9    10    1
    12    10    13    1
    13    10    12    1
    14    14    13    1
    15    14    15    1
    16    29    31    2
    17    29    28    2
    18    18    17    1
    19    17    15    1
    20    17    19    1
    21    31    32    2
    22    28    26    2
    23    15    16    1
    24    19    20    1
    25    19    21    1
    26    16    21    1
    27    32    22    1
    28    32    25    1
    29    26    25    1
    30    26    27    2
    31    21    22    1
    32    22    23    1
    33    25    24    2
    34    23    24    1
