@<TRIPOS>MOLECULE
2oh5_CTP_A_1.pdb
 29 30 0 0 0
SMALL
GASTEIGER

@<TRIPOS>ATOM
      1  N1        42.6740   58.1860   39.5490 N.am  254  CTP254     -0.1778
      2  C2        41.7190   59.2080   39.5180 C.1   254  CTP254      0.2756
      3  N3        41.1280   59.5720   38.3030 N.2   254  CTP254     -0.3024
      4  C4        41.4950   58.9130   37.1240 C.2   254  CTP254      0.2346
      5  C5        42.4450   57.8980   37.1590 C.2   254  CTP254      0.0687
      6  C6        43.0350   57.5330   38.3640 C.2   254  CTP254      0.0836
      7  O2        41.3990   59.7850   40.5570 O.2   254  CTP254     -0.1925
      8  N4        40.9340   59.2580   35.9680 N.pl3 254  CTP254     -0.0921
      9  C1'       43.3020   57.7970   40.8310 C.3   254  CTP254      0.2400
     10  C2'       42.4240   56.7610   41.5360 C.3   254  CTP254      0.2319
     11  O2'       41.6480   57.4050   42.5500 O.3   254  CTP254     -0.2157
     12  C3'       43.4300   55.8110   42.1890 C.3   254  CTP254      0.2158
     13  C4'       44.7900   56.3880   41.7920 C.3   254  CTP254      0.1799
     14  O4'       44.5270   57.0940   40.5700 O.3   254  CTP254     -0.3320
     15  O3'       43.2840   55.8650   43.6100 O.3   254  CTP254     -0.2175
     16  C5'       45.7700   55.2450   41.5210 C.3   254  CTP254      0.1813
     17  O5'       45.7940   54.9100   40.1310 O.3   254  CTP254     -0.3112
     18  PA        45.0050   53.6100   39.6020 P.3   254  CTP254      0.2189
     19  O1A       44.1900   52.9640   40.6560 O.3   254  CTP254     -0.4371
     20  O2A       44.1250   54.1070   38.3490 O.2   254  CTP254     -0.5170
     21  O3A       46.1270   52.6300   38.9920 O.3   254  CTP254     -0.2700
     22  PB        47.2130   51.9450   39.9640 P.3   254  CTP254      0.2277
     23  O1B       46.8470   52.0440   41.3940 O.3   254  CTP254     -0.4368
     24  O2B       48.6170   52.6580   39.6280 O.2   254  CTP254     -0.5168
     25  O3B       47.3590   50.4230   39.4590 O.3   254  CTP254     -0.2258
     26  PG        46.2690   49.3220   39.8960 P.3   254  CTP254      0.5373
     27  O1G       45.8030   48.4930   38.7620 O.2   254  CTP254     -0.2221
     28  O2G       46.9620   48.4540   41.0610 O.3   254  CTP254     -0.1143
     29  O3G       45.0760   50.1390   40.6050 O.3   254  CTP254     -0.1143
@<TRIPOS>BOND
     1     8     4    1
     2     4     5    1
     3     4     3    2
     4     5     6    2
     5     3     2    2
     6    20    18    2
     7     6     1    1
     8    27    26    2
     9    21    18    1
    10    21    22    1
    11    25    26    1
    12    25    22    1
    13     2     1   am
    14     2     7    2
    15     1     9    1
    16    18    17    1
    17    18    19    1
    18    24    22    2
    19    26    29    1
    20    26    28    1
    21    22    23    1
    22    17    16    1
    23    14     9    1
    24    14    13    1
    25     9    10    1
    26    16    13    1
    27    10    12    1
    28    10    11    1
    29    13    12    1
    30    12    15    1
