@<TRIPOS>MOLECULE
2oh5_ATP_A_1.pdb
 31 33 0 0 0
SMALL
GASTEIGER

@<TRIPOS>ATOM
      1  PG        45.7260   26.6310   -2.2910 P.3   253  ATP253      0.5373
      2  O1G       45.9210   27.6990   -3.3270 O.2   253  ATP253     -0.2221
      3  O2G       44.3780   25.7720   -2.5230 O.3   253  ATP253     -0.1143
      4  O3G       45.7110   27.2310   -0.7820 O.3   253  ATP253     -0.1143
      5  PB        47.1520   24.2300   -2.8970 P.3   253  ATP253      0.2277
      6  O1B       46.2760   23.9590   -4.0500 O.2   253  ATP253     -0.5168
      7  O2B       48.7810   24.1310   -3.1820 O.3   253  ATP253     -0.4368
      8  O3B       47.0220   25.6890   -2.2410 O.3   253  ATP253     -0.2258
      9  PA        45.5230   22.7010   -1.1230 P.3   253  ATP253      0.2189
     10  O1A       44.4110   22.8280   -2.0990 O.2   253  ATP253     -0.5170
     11  O2A       45.3430   23.5570    0.2380 O.3   253  ATP253     -0.4371
     12  O3A       46.9520   23.2720   -1.6220 O.3   253  ATP253     -0.2700
     13  O5'       45.8100   21.1540   -0.7170 O.3   253  ATP253     -0.3112
     14  C5'       46.9110   20.8580    0.1640 C.3   253  ATP253      0.1813
     15  C4'       46.7820   19.4770    0.8020 C.3   253  ATP253      0.1821
     16  O4'       45.6540   19.5490    1.7210 O.3   253  ATP253     -0.3135
     17  C3'       46.4390   18.3880   -0.2380 C.3   253  ATP253      0.2184
     18  O3'       46.8670   17.1110    0.2280 O.3   253  ATP253     -0.2174
     19  C2'       44.9240   18.3840   -0.2630 C.3   253  ATP253      0.2570
     20  O2'       44.4500   17.0850   -0.6780 O.3   253  ATP253     -0.2130
     21  C1'       44.6020   18.6570    1.2180 C.3   253  ATP253      0.3186
     22  N9        43.2470   19.2500    1.4310 N.pl3 253  ATP253     -0.1439
     23  C8        42.4110   19.7950    0.5360 C.3   253  ATP253      0.3377
     24  N7        41.2900   20.2030    1.1540 N.2   253  ATP253     -0.2095
     25  C5        41.4100   19.9220    2.4520 C.2   253  ATP253      0.2526
     26  C6        40.5990   20.0900    3.5840 C.2   253  ATP253      0.4393
     27  N6        39.3850   20.6490    3.5470 N.pl3 253  ATP253      0.2180
     28  N1        41.0820   19.6740    4.7600 N.2   253  ATP253      0.0021
     29  C2        42.2820   19.1120    4.8690 C.3   253  ATP253      0.5254
     30  N3        43.0710   18.9220    3.8270 N.2   253  ATP253     -0.0055
     31  C4        42.6590   19.3150    2.6120 C.2   253  ATP253      0.3518
@<TRIPOS>BOND
     1     6     5    2
     2     2     1    2
     3     7     5    1
     4     5     8    1
     5     5    12    1
     6     3     1    1
     7     1     8    1
     8     1     4    1
     9    10     9    2
    10    12     9    1
    11     9    13    1
    12     9    11    1
    13    13    14    1
    14    20    19    1
    15    19    17    1
    16    19    21    1
    17    17    18    1
    18    17    15    1
    19    14    15    1
    20    23    24    1
    21    23    22    1
    22    15    16    1
    23    24    25    2
    24    21    22    1
    25    21    16    1
    26    22    31    1
    27    25    31    1
    28    25    26    1
    29    31    30    2
    30    27    26    1
    31    26    28    2
    32    30    29    1
    33    28    29    1
