@<TRIPOS>MOLECULE
2oh6_ATP_A_1.pdb
 31 33 0 0 0
SMALL
GASTEIGER

@<TRIPOS>ATOM
      1  PG        57.0470   26.6160    2.1800 P.3   253  ATP253      0.5373
      2  O1G       57.0360   27.6890    3.2270 O.3   253  ATP253     -0.1143
      3  O2G       58.3350   25.6330    2.3520 O.3   253  ATP253     -0.1143
      4  O3G       57.1550   27.1700    0.6730 O.2   253  ATP253     -0.2221
      5  PB        55.5470   24.2640    2.7060 P.3   253  ATP253      0.2277
      6  O1B       56.4840   23.9720    3.8260 O.3   253  ATP253     -0.4368
      7  O2B       53.9800   24.1040    3.1500 O.2   253  ATP253     -0.5168
      8  O3B       55.6390   25.7960    2.1680 O.3   253  ATP253     -0.2258
      9  PA        57.1650   22.6790    0.8860 P.3   253  ATP253      0.2189
     10  O1A       58.3100   22.8300    1.8270 O.3   253  ATP253     -0.4371
     11  O2A       57.3810   23.4000   -0.5340 O.2   253  ATP253     -0.5170
     12  O3A       55.7660   23.3400    1.3720 O.3   253  ATP253     -0.2700
     13  O5'       56.8780   21.1300    0.5310 O.3   253  ATP253     -0.3112
     14  C5'       55.7890   20.8020   -0.3710 C.3   253  ATP253      0.1813
     15  C4'       55.9200   19.3760   -0.9540 C.3   253  ATP253      0.1821
     16  O4'       56.9930   19.3560   -1.9320 O.3   253  ATP253     -0.3135
     17  C3'       56.2900   18.3560    0.1400 C.3   253  ATP253      0.2184
     18  O3'       55.7900   17.0600   -0.1850 O.3   253  ATP253     -0.2174
     19  C2'       57.7980   18.3060    0.0670 C.3   253  ATP253      0.2570
     20  O2'       58.2850   17.0270    0.5200 O.3   253  ATP253     -0.2130
     21  C1'       58.0480   18.4840   -1.4310 C.3   253  ATP253      0.3186
     22  N9        59.3500   19.1450   -1.5780 N.pl3 253  ATP253     -0.1439
     23  C8        60.0620   19.7390   -0.6150 C.3   253  ATP253      0.3377
     24  N7        61.1940   20.2300   -1.1210 N.2   253  ATP253     -0.2095
     25  C5        61.2000   19.9520   -2.4140 C.2   253  ATP253      0.2526
     26  C6        62.0990   20.2120   -3.4410 C.2   253  ATP253      0.4393
     27  N6        63.2350   20.8660   -3.1990 N.pl3 253  ATP253      0.2180
     28  N1        61.7920   19.7800   -4.6810 N.2   253  ATP253      0.0021
     29  C2        60.6520   19.1220   -4.9250 C.3   253  ATP253      0.5254
     30  N3        59.7700   18.8640   -3.9660 N.2   253  ATP253     -0.0055
     31  C4        60.0250   19.2620   -2.7070 C.2   253  ATP253      0.3518
@<TRIPOS>BOND
     1    29    28    1
     2    29    30    1
     3    28    26    2
     4    30    31    2
     5    26    27    1
     6    26    25    1
     7    31    25    1
     8    31    22    1
     9    25    24    2
    10    16    21    1
    11    16    15    1
    12    22    21    1
    13    22    23    1
    14    21    19    1
    15    24    23    1
    16    15    14    1
    17    15    17    1
    18    11     9    2
    19    14    13    1
    20    18    17    1
    21    19    17    1
    22    19    20    1
    23    13     9    1
    24     4     1    2
    25     9    12    1
    26     9    10    1
    27    12     5    1
    28     8     1    1
    29     8     5    1
    30     1     3    1
    31     1     2    1
    32     5     7    2
    33     5     6    1
