@<TRIPOS>MOLECULE
2oh6_GTP_A_1.pdb
 32 34 0 0 0
SMALL
GASTEIGER

@<TRIPOS>ATOM
      1  PG        58.3850    9.5380    0.7560 P.3   252  GTP252      0.5373
      2  O1G       56.9910    9.9570    1.1570 O.3   252  GTP252     -0.1143
      3  O2G       58.2950    8.2700   -0.0540 O.2   252  GTP252     -0.2221
      4  O3G       59.2330    9.3100    1.9880 O.3   252  GTP252     -0.1143
      5  O3B       59.0590   10.6940   -0.1480 O.3   252  GTP252     -0.2258
      6  PB        59.0640   12.2630    0.2410 P.3   252  GTP252      0.2277
      7  O1B       58.2180   12.4980    1.4760 O.3   252  GTP252     -0.4368
      8  O2B       58.6030   13.1340   -0.9100 O.2   252  GTP252     -0.5168
      9  O3A       60.6130   12.5700    0.5290 O.3   252  GTP252     -0.2700
     10  PA        61.1820   12.6840    2.0260 P.3   252  GTP252      0.2189
     11  O1A       60.0490   12.6160    3.0300 O.3   252  GTP252     -0.4371
     12  O2A       62.1930   11.5960    2.3040 O.2   252  GTP252     -0.5170
     13  O5'       61.8720   14.1430    2.0640 O.3   252  GTP252     -0.3112
     14  C5'       61.1030   15.3240    2.1730 C.3   252  GTP252      0.1813
     15  C4'       61.9910   16.4820    2.6270 C.3   252  GTP252      0.1799
     16  O4'       63.2300   16.4690    1.9330 O.3   252  GTP252     -0.3326
     17  C3'       61.3330   17.8370    2.3880 C.3   252  GTP252      0.2158
     18  O3'       60.9290   18.4260    3.6040 O.3   252  GTP252     -0.2175
     19  C2'       62.3700   18.6690    1.6410 C.3   252  GTP252      0.2310
     20  O2'       62.7330   19.8570    2.3230 O.3   252  GTP252     -0.2158
     21  C1'       63.5650   17.7430    1.4000 C.3   252  GTP252      0.2293
     22  N9        63.8540   17.6640   -0.0560 N.pl3 252  GTP252     -0.2354
     23  C8        64.9770   18.1310   -0.6950 C.3   252  GTP252      0.2246
     24  N7        64.8590   17.8820   -2.0200 N.2   252  GTP252     -0.2322
     25  C5        63.6770   17.2730   -2.2410 C.2   252  GTP252      0.2182
     26  C6        63.0690   16.8080   -3.4020 C.1   252  GTP252      0.2372
     27  O6        63.6400   16.9330   -4.4870 O.2   252  GTP252     -0.2069
     28  N1        61.8210   16.2040   -3.3130 N.2   252  GTP252     -0.2485
     29  C2        61.1920   16.0730   -2.0790 C.1   252  GTP252      0.2531
     30  N2        59.9960   15.4940   -1.9870 N.pl3 252  GTP252     -0.0226
     31  N3        61.8090   16.5400   -0.9350 N.2   252  GTP252     -0.3074
     32  C4        63.0310   17.1260   -1.0150 C.2   252  GTP252      0.2300
@<TRIPOS>BOND
     1    27    26    2
     2    26    28    2
     3    26    25    1
     4    28    29    2
     5    25    24    2
     6    25    32    1
     7    29    30    1
     8    29    31    2
     9    24    23    1
    10    32    31    2
    11    32    22    1
    12     8     6    2
    13    23    22    1
    14     5     6    1
    15     5     1    1
    16    22    21    1
    17     3     1    2
    18     6     9    1
    19     6     7    1
    20     9    10    1
    21     1     2    1
    22     1     4    1
    23    21    19    1
    24    21    16    1
    25    19    20    1
    26    19    17    1
    27    16    15    1
    28    10    13    1
    29    10    12    2
    30    10    11    1
    31    13    14    1
    32    14    15    1
    33    17    15    1
    34    17    18    1
