@<TRIPOS>MOLECULE
2oh6_CTP_A_1.pdb
 29 30 0 0 0
SMALL
GASTEIGER

@<TRIPOS>ATOM
      1  N1        42.8350   58.4140   39.6200 N.am  254  CTP254     -0.1778
      2  C2        41.8520   59.3790   39.3930 C.1   254  CTP254      0.2756
      3  N3        41.1260   59.3770   38.2170 N.2   254  CTP254     -0.3024
      4  C4        41.6710   58.7530   37.1100 C.2   254  CTP254      0.2346
      5  C5        42.7750   57.9080   37.2790 C.2   254  CTP254      0.0687
      6  C6        43.2600   57.6460   38.5630 C.2   254  CTP254      0.0836
      7  O2        41.6230   60.2670   40.2130 O.2   254  CTP254     -0.1925
      8  N4        41.1420   58.9720   35.9070 N.pl3 254  CTP254     -0.0921
      9  C1'       43.2820   58.1020   41.0150 C.3   254  CTP254      0.2400
     10  C2'       42.4210   56.9860   41.6190 C.3   254  CTP254      0.2319
     11  O2'       41.8850   57.3100   42.8830 O.3   254  CTP254     -0.2157
     12  C3'       43.3570   55.8160   41.7880 C.3   254  CTP254      0.2158
     13  C4'       44.7450   56.4670   41.8350 C.3   254  CTP254      0.1799
     14  O4'       44.6420   57.6660   41.0770 O.3   254  CTP254     -0.3320
     15  O3'       43.0550   55.0390   42.9330 O.3   254  CTP254     -0.2175
     16  C5'       45.8520   55.5500   41.3110 C.3   254  CTP254      0.1813
     17  O5'       45.5840   55.2030   39.9670 O.3   254  CTP254     -0.3112
     18  PA        44.9560   53.7770   39.5060 P.3   254  CTP254      0.2189
     19  O1A       44.1900   53.1050   40.6330 O.3   254  CTP254     -0.4371
     20  O2A       44.1200   54.0070   38.2700 O.2   254  CTP254     -0.5170
     21  O3A       46.2500   52.8780   39.1250 O.3   254  CTP254     -0.2700
     22  PB        47.3230   52.1810   40.1180 P.3   254  CTP254      0.2277
     23  O1B       46.9360   52.2240   41.5820 O.3   254  CTP254     -0.4368
     24  O2B       48.6690   52.8160   39.8840 O.2   254  CTP254     -0.5168
     25  O3B       47.4140   50.6630   39.5730 O.3   254  CTP254     -0.2258
     26  PG        46.4240   49.4890   40.0460 P.3   254  CTP254      0.5373
     27  O1G       46.1240   48.6000   38.8540 O.2   254  CTP254     -0.2221
     28  O2G       47.1380   48.7200   41.1260 O.3   254  CTP254     -0.1143
     29  O3G       45.1340   50.1050   40.5230 O.3   254  CTP254     -0.1143
@<TRIPOS>BOND
     1     8     4    1
     2     4     5    1
     3     4     3    2
     4     5     6    2
     5     3     2    2
     6    20    18    2
     7     6     1    1
     8    27    26    2
     9    21    18    1
    10    21    22    1
    11     2     1   am
    12     2     7    2
    13    18    17    1
    14    18    19    1
    15    25    26    1
    16    25    22    1
    17     1     9    1
    18    24    22    2
    19    17    16    1
    20    26    29    1
    21    26    28    1
    22    22    23    1
    23     9    14    1
    24     9    10    1
    25    14    13    1
    26    16    13    1
    27    10    12    1
    28    10    11    1
    29    12    13    1
    30    12    15    1
