@<TRIPOS>MOLECULE
2oh7_ATP_A_1.pdb
 31 33 0 0 0
SMALL
GASTEIGER

@<TRIPOS>ATOM
      1  PG        57.1440   26.6170    2.2080 P.3   253  ATP253      0.5373
      2  O1G       57.2360   27.4150    3.4630 O.3   253  ATP253     -0.1143
      3  O2G       58.4520   25.6860    1.9760 O.3   253  ATP253     -0.1143
      4  O3G       57.0010   27.5270    0.8740 O.2   253  ATP253     -0.2221
      5  PB        55.5610   24.2160    2.6320 P.3   253  ATP253      0.2277
      6  O1B       56.3230   23.9110    3.8780 O.3   253  ATP253     -0.4368
      7  O2B       53.9210   24.1150    2.7760 O.2   253  ATP253     -0.5168
      8  O3B       55.7700   25.7470    2.1330 O.3   253  ATP253     -0.2258
      9  PA        57.2750   22.5200    1.0700 P.3   253  ATP253      0.2189
     10  O1A       58.1630   22.5140    2.2670 O.3   253  ATP253     -0.4371
     11  O2A       58.0210   23.2700   -0.1980 O.2   253  ATP253     -0.5170
     12  O3A       55.9120   23.3190    1.2870 O.3   253  ATP253     -0.2700
     13  O5'       56.8270   21.0130    0.5530 O.3   253  ATP253     -0.3112
     14  C5'       55.8560   20.7290   -0.5000 C.3   253  ATP253      0.1813
     15  C4'       55.9800   19.2680   -1.0090 C.3   253  ATP253      0.1821
     16  O4'       57.0910   19.2140   -1.9510 O.3   253  ATP253     -0.3135
     17  C3'       56.3070   18.2160    0.1080 C.3   253  ATP253      0.2184
     18  O3'       55.9970   16.8900   -0.2780 O.3   253  ATP253     -0.2174
     19  C2'       57.8110   18.3110    0.2300 C.3   253  ATP253      0.2570
     20  O2'       58.3350   17.1100    0.8480 O.3   253  ATP253     -0.2130
     21  C1'       58.2120   18.5000   -1.2590 C.3   253  ATP253      0.3186
     22  N9        59.5220   19.1850   -1.4460 N.pl3 253  ATP253     -0.1439
     23  C8        60.3130   19.8280   -0.5660 C.3   253  ATP253      0.3377
     24  N7        61.4200   20.2810   -1.1990 N.2   253  ATP253     -0.2095
     25  C5        61.3270   19.9050   -2.4830 C.2   253  ATP253      0.2526
     26  C6        62.1190   20.0520   -3.6280 C.2   253  ATP253      0.4393
     27  N6        63.2890   20.6900   -3.6100 N.pl3 253  ATP253      0.2180
     28  N1        61.6700   19.5290   -4.7950 N.2   253  ATP253      0.0021
     29  C2        60.5020   18.8840   -4.8720 C.3   253  ATP253      0.5254
     30  N3        59.7310   18.7190   -3.8070 N.2   253  ATP253     -0.0055
     31  C4        60.1150   19.2140   -2.6230 C.2   253  ATP253      0.3518
@<TRIPOS>BOND
     1    29    28    1
     2    29    30    1
     3    28    26    2
     4    30    31    2
     5    26    27    1
     6    26    25    1
     7    31    25    1
     8    31    22    1
     9    25    24    2
    10    16    21    1
    11    16    15    1
    12    22    21    1
    13    22    23    1
    14    21    19    1
    15    24    23    1
    16    15    14    1
    17    15    17    1
    18    14    13    1
    19    18    17    1
    20    11     9    2
    21    17    19    1
    22    19    20    1
    23    13     9    1
    24     4     1    2
    25     9    12    1
    26     9    10    1
    27    12     5    1
    28     3     1    1
    29     8     1    1
    30     8     5    1
    31     1     2    1
    32     5     7    2
    33     5     6    1
