@<TRIPOS>MOLECULE
2oh7_GTP_A_1.pdb
 32 34 0 0 0
SMALL
GASTEIGER

@<TRIPOS>ATOM
      1  PG        58.2720    9.5110    0.9860 P.3   252  GTP252      0.5373
      2  O1G       56.8070    9.1310    1.1050 O.3   252  GTP252     -0.1143
      3  O2G       58.9440    8.3460    0.3050 O.2   252  GTP252     -0.2221
      4  O3G       58.8910    9.7560    2.3390 O.3   252  GTP252     -0.1143
      5  O3B       58.4370   10.8250    0.0450 O.3   252  GTP252     -0.2258
      6  PB        58.7630   12.3450    0.5260 P.3   252  GTP252      0.2277
      7  O1B       58.0080   12.6040    1.8340 O.3   252  GTP252     -0.4368
      8  O2B       58.4120   13.3620   -0.5600 O.2   252  GTP252     -0.5168
      9  O3A       60.3760   12.3990    0.7090 O.3   252  GTP252     -0.2700
     10  PA        61.1170   12.6870    2.1230 P.3   252  GTP252      0.2189
     11  O1A       60.0880   12.6660    3.2300 O.3   252  GTP252     -0.4371
     12  O2A       62.2070   11.6640    2.3540 O.2   252  GTP252     -0.5170
     13  O5'       61.7000   14.2060    2.0150 O.3   252  GTP252     -0.3112
     14  C5'       61.0900   15.3360    2.6340 C.3   252  GTP252      0.1813
     15  C4'       62.0910   16.4830    2.8880 C.3   252  GTP252      0.1799
     16  O4'       63.3140   16.3310    2.1610 O.3   252  GTP252     -0.3326
     17  C3'       61.5420   17.8700    2.5180 C.3   252  GTP252      0.2158
     18  O3'       60.8050   18.4790    3.5620 O.3   252  GTP252     -0.2175
     19  C2'       62.7730   18.6740    2.0730 C.3   252  GTP252      0.2310
     20  O2'       63.1810   19.6550    3.0190 O.3   252  GTP252     -0.2158
     21  C1'       63.8500   17.6060    1.7780 C.3   252  GTP252      0.2293
     22  N9        64.2170   17.5630    0.3360 N.pl3 252  GTP252     -0.2354
     23  C8        65.3970   17.9660   -0.2630 C.3   252  GTP252      0.2246
     24  N7        65.2930   17.7470   -1.6050 N.2   252  GTP252     -0.2322
     25  C5        64.0730   17.2110   -1.8690 C.2   252  GTP252      0.2182
     26  C6        63.4450   16.7850   -3.0410 C.1   252  GTP252      0.2372
     27  O6        64.0380   16.8780   -4.1260 O.2   252  GTP252     -0.2069
     28  N1        62.1420   16.2610   -2.9750 N.2   252  GTP252     -0.2485
     29  C2        61.4820   16.1530   -1.7480 C.1   252  GTP252      0.2531
     30  N2        60.2470   15.6640   -1.6500 N.pl3 252  GTP252     -0.0226
     31  N3        62.1220   16.5700   -0.6040 N.2   252  GTP252     -0.3074
     32  C4        63.3870   17.0870   -0.6590 C.2   252  GTP252      0.2300
@<TRIPOS>BOND
     1    27    26    2
     2    26    28    2
     3    26    25    1
     4    28    29    2
     5    25    24    2
     6    25    32    1
     7    29    30    1
     8    29    31    2
     9    24    23    1
    10    32    31    2
    11    32    22    1
    12     8     6    2
    13    23    22    1
    14     5     6    1
    15     5     1    1
    16     3     1    2
    17    22    21    1
    18     6     9    1
    19     6     7    1
    20     9    10    1
    21     1     2    1
    22     1     4    1
    23    21    19    1
    24    21    16    1
    25    13    10    1
    26    13    14    1
    27    19    17    1
    28    19    20    1
    29    10    12    2
    30    10    11    1
    31    16    15    1
    32    17    15    1
    33    17    18    1
    34    14    15    1
