@<TRIPOS>MOLECULE
2oh7_CTP_A_1.pdb
 29 30 0 0 0
SMALL
GASTEIGER

@<TRIPOS>ATOM
      1  N1        42.6320   58.1900   39.6340 N.am  254  CTP254     -0.1778
      2  C2        41.6790   59.2140   39.6760 C.1   254  CTP254      0.2756
      3  N3        41.0150   59.5940   38.5040 N.2   254  CTP254     -0.3024
      4  C4        41.3070   58.9490   37.2960 C.2   254  CTP254      0.2346
      5  C5        42.2560   57.9330   37.2600 C.2   254  CTP254      0.0687
      6  C6        42.9180   57.5520   38.4210 C.2   254  CTP254      0.0836
      7  O2        41.4250   59.7770   40.7390 O.2   254  CTP254     -0.1925
      8  N4        40.6770   59.3090   36.1820 N.pl3 254  CTP254     -0.0921
      9  C1'       43.3380   57.7840   40.8700 C.3   254  CTP254      0.2400
     10  C2'       42.4900   56.7620   41.6300 C.3   254  CTP254      0.2319
     11  O2'       41.7990   57.4150   42.6980 O.3   254  CTP254     -0.2157
     12  C3'       43.5190   55.7890   42.2080 C.3   254  CTP254      0.2158
     13  C4'       44.8600   56.3440   41.7260 C.3   254  CTP254      0.1799
     14  O4'       44.5290   57.0600   40.5260 O.3   254  CTP254     -0.3320
     15  O3'       43.4690   55.8340   43.6360 O.3   254  CTP254     -0.2175
     16  C5'       45.8010   55.1860   41.3870 C.3   254  CTP254      0.1813
     17  O5'       45.6830   54.8170   40.0100 O.3   254  CTP254     -0.3112
     18  PA        44.8530   53.5010   39.5980 P.3   254  CTP254      0.2189
     19  O1A       44.0750   52.9360   40.7240 O.3   254  CTP254     -0.4371
     20  O2A       43.9260   53.9350   38.3550 O.2   254  CTP254     -0.5170
     21  O3A       45.9320   52.4650   39.0030 O.3   254  CTP254     -0.2700
     22  PB        47.1910   52.0110   39.8980 P.3   254  CTP254      0.2277
     23  O1B       47.0030   52.2940   41.3390 O.3   254  CTP254     -0.4368
     24  O2B       48.4710   52.7620   39.2750 O.2   254  CTP254     -0.5168
     25  O3B       47.4060   50.4450   39.5930 O.3   254  CTP254     -0.2258
     26  PG        46.2070   49.4020   39.8500 P.3   254  CTP254      0.5373
     27  O1G       45.5120   49.0070   38.6040 O.2   254  CTP254     -0.2221
     28  O2G       46.8670   48.1510   40.6200 O.3   254  CTP254     -0.1143
     29  O3G       45.2280   50.1090   40.9150 O.3   254  CTP254     -0.1143
@<TRIPOS>BOND
     1     8     4    1
     2     5     4    1
     3     5     6    2
     4     4     3    2
     5    20    18    2
     6     6     1    1
     7     3     2    2
     8    27    26    2
     9    21    18    1
    10    21    22    1
    11    24    22    2
    12    25    26    1
    13    25    22    1
    14    18    17    1
    15    18    19    1
    16     1     2   am
    17     1     9    1
    18     2     7    2
    19    26    28    1
    20    26    29    1
    21    22    23    1
    22    17    16    1
    23    14     9    1
    24    14    13    1
    25     9    10    1
    26    16    13    1
    27    10    12    1
    28    10    11    1
    29    13    12    1
    30    12    15    1
