@<TRIPOS>MOLECULE
2oh8_HEM_A_1.pdb
 43 50 0 0 0
SMALL
GASTEIGER

@<TRIPOS>ATOM
      1 FE         35.1560    4.0900   10.3820 Fe    154  HEM154      0.0000
      2  CHA       37.7880    2.2210   11.5250 C.2   154  HEM154      0.0000
      3  CHB       37.1090    5.3020    7.8400 C.2   154  HEM154      0.0000
      4  CHC       32.5760    6.0720    9.2770 C.2   154  HEM154      0.0000
      5  CHD       33.2550    3.0870   13.0010 C.2   154  HEM154      0.0000
      6  NA        36.9660    3.7870    9.7790 N.ar  154  HEM154      0.0000
      7  C1A       37.9460    2.9590   10.3500 C.ar  154  HEM154      0.0000
      8  C2A       39.1730    3.0360    9.6150 C.ar  154  HEM154      0.0000
      9  C3A       38.9730    3.8770    8.6070 C.ar  154  HEM154      0.0000
     10  C4A       37.6470    4.3780    8.7200 C.ar  154  HEM154      0.0000
     11  CMA       39.9960    4.2460    7.5220 C.3   154  HEM154      0.0000
     12  CAA       40.4390    2.2450    9.9150 C.3   154  HEM154      0.0000
     13  CBA       40.5260    1.0080    8.9510 C.3   154  HEM154      0.0000
     14  CGA       39.2850    0.1110    8.9980 C.2   154  HEM154      0.0000
     15  O1A       39.0360   -0.5300   10.0460 O.co2 154  HEM154      0.0000
     16  O2A       38.5670    0.0580    7.9610 O.co2 154  HEM154      0.0000
     17  NB        34.8770    5.3530    8.8650 N.2   154  HEM154      0.0000
     18  C1B       35.8020    5.7470    7.9060 C.2   154  HEM154      0.0000
     19  C2B       35.2450    6.7170    6.9860 C.2   154  HEM154      0.0000
     20  C3B       33.9640    6.9290    7.3770 C.2   154  HEM154      0.0000
     21  C4B       33.7420    6.0650    8.5310 C.2   154  HEM154      0.0000
     22  CMB       35.9640    7.2850    5.7350 C.3   154  HEM154      0.0000
     23  CAB       32.9680    7.7420    6.7670 C.3   154  HEM154      0.0000
     24  CBB       33.2120    9.0820    6.2930 C.3   154  HEM154      0.0000
     25  NC        33.3370    4.4630   10.9900 N.ar  154  HEM154      0.0000
     26  C1C       32.3900    5.3250   10.4470 C.ar  154  HEM154      0.0000
     27  C2C       31.2400    5.4480   11.2930 C.ar  154  HEM154      0.0000
     28  C3C       31.4530    4.6280   12.3640 C.ar  154  HEM154      0.0000
     29  C4C       32.7180    4.0220   12.1540 C.ar  154  HEM154      0.0000
     30  CMC       30.0440    6.3730   11.0080 C.3   154  HEM154      0.0000
     31  CAC       30.6310    4.3800   13.5180 C.3   154  HEM154      0.0000
     32  CBC       29.4590    5.1470   13.8810 C.3   154  HEM154      0.0000
     33  ND        35.4630    2.8700   11.8840 N.2   154  HEM154      0.0000
     34  C1D       34.5570    2.5570   12.8810 C.2   154  HEM154      0.0000
     35  C2D       35.1670    1.7110   13.8710 C.2   154  HEM154      0.0000
     36  C3D       36.4330    1.5160   13.4970 C.2   154  HEM154      0.0000
     37  C4D       36.6090    2.2090   12.2500 C.2   154  HEM154      0.0000
     38  CMD       34.4840    1.1900   15.1540 C.3   154  HEM154      0.0000
     39  CAD       37.5400    0.8030   14.2710 C.3   154  HEM154      0.0000
     40  CBD       38.2020    1.7930   15.2770 C.3   154  HEM154      0.0000
     41  CGD       39.2680    1.1240   16.1600 C.2   154  HEM154      0.0000
     42  O1D       38.9360    0.5120   17.2000 O.co2 154  HEM154      0.0000
     43  O2D       40.4340    1.2010   15.7990 O.co2 154  HEM154      0.0000
@<TRIPOS>BOND
     1    22    19    1
     2    24    23    1
     3    23    20    1
     4    19    20    2
     5    19    18    1
     6    20    21    1
     7    11     9    1
     8     3    18    1
     9     3    10    2
    10    18    17    2
    11    16    14   ar
    12    21    17    1
    13    21     4    2
    14     9    10   ar
    15     9     8   ar
    16    10     6   ar
    17    17     1    1
    18    13    14    1
    19    13    12    1
    20    14    15   ar
    21     4    26    1
    22     8    12    1
    23     8     7   ar
    24     6     7   ar
    25     6     1    1
    26     7     2    2
    27     1    25    1
    28     1    33    1
    29    26    25   ar
    30    26    27   ar
    31    25    29   ar
    32    30    27    1
    33    27    28   ar
    34     2    37    1
    35    33    37    2
    36    33    34    1
    37    29    28   ar
    38    29     5    1
    39    37    36    1
    40    28    31    1
    41    34     5    2
    42    34    35    1
    43    36    35    2
    44    36    39    1
    45    31    32    1
    46    35    38    1
    47    39    40    1
    48    40    41    1
    49    43    41   ar
    50    41    42   ar
