@<TRIPOS>MOLECULE
2oh9_HEM_A_1.pdb
 43 50 0 0 0
SMALL
GASTEIGER

@<TRIPOS>ATOM
      1 FE         35.3180    4.4310   10.2890 Fe    154  HEM154      0.0000
      2  CHA       37.9250    2.6060   11.4790 C.2   154  HEM154      0.0000
      3  CHB       37.2410    5.4850    7.6990 C.2   154  HEM154      0.0000
      4  CHC       32.7400    6.2930    9.1380 C.2   154  HEM154      0.0000
      5  CHD       33.4520    3.4950   12.9450 C.2   154  HEM154      0.0000
      6  NA        37.1800    4.1340    9.7280 N.ar  154  HEM154      0.0000
      7  C1A       38.1330    3.3280   10.3230 C.ar  154  HEM154      0.0000
      8  C2A       39.3730    3.3290    9.5680 C.ar  154  HEM154      0.0000
      9  C3A       39.1800    4.1530    8.5150 C.ar  154  HEM154      0.0000
     10  C4A       37.8250    4.6490    8.6220 C.ar  154  HEM154      0.0000
     11  CMA       40.1720    4.4660    7.4030 C.3   154  HEM154      0.0000
     12  CAA       40.6150    2.4820    9.8480 C.3   154  HEM154      0.0000
     13  CBA       40.7190    1.2710    8.9220 C.3   154  HEM154      0.0000
     14  CGA       39.4620    0.4100    8.9390 C.2   154  HEM154      0.0000
     15  O1A       39.1590   -0.1920    9.9910 O.co2 154  HEM154      0.0000
     16  O2A       38.7740    0.3430    7.8970 O.co2 154  HEM154      0.0000
     17  NB        35.0340    5.5780    8.7260 N.2   154  HEM154      0.0000
     18  C1B       35.9350    5.9200    7.7400 C.2   154  HEM154      0.0000
     19  C2B       35.3460    6.8110    6.7620 C.2   154  HEM154      0.0000
     20  C3B       34.0620    7.0140    7.1490 C.2   154  HEM154      0.0000
     21  C4B       33.8870    6.2660    8.3760 C.2   154  HEM154      0.0000
     22  CMB       36.0320    7.3900    5.5280 C.3   154  HEM154      0.0000
     23  CAB       33.0660    7.6920    6.4440 C.3   154  HEM154      0.0000
     24  CBB       33.2150    9.0690    6.0050 C.3   154  HEM154      0.0000
     25  NC        33.4840    4.7870   10.8950 N.ar  154  HEM154      0.0000
     26  C1C       32.5580    5.6270   10.3290 C.ar  154  HEM154      0.0000
     27  C2C       31.3710    5.7510   11.1540 C.ar  154  HEM154      0.0000
     28  C3C       31.5740    4.9550   12.2360 C.ar  154  HEM154      0.0000
     29  C4C       32.8770    4.3540   12.0480 C.ar  154  HEM154      0.0000
     30  CMC       30.1530    6.6210   10.8530 C.3   154  HEM154      0.0000
     31  CAC       30.7250    4.7280   13.3290 C.3   154  HEM154      0.0000
     32  CBC       29.6440    5.6210   13.7220 C.3   154  HEM154      0.0000
     33  ND        35.6010    3.2600   11.8360 N.2   154  HEM154      0.0000
     34  C1D       34.7180    2.9820   12.8550 C.2   154  HEM154      0.0000
     35  C2D       35.3070    2.1300   13.8550 C.2   154  HEM154      0.0000
     36  C3D       36.5760    1.9060   13.4680 C.2   154  HEM154      0.0000
     37  C4D       36.7460    2.5860   12.2010 C.2   154  HEM154      0.0000
     38  CMD       34.6150    1.5640   15.0870 C.3   154  HEM154      0.0000
     39  CAD       37.6630    1.2390   14.2980 C.3   154  HEM154      0.0000
     40  CBD       38.4520    2.2530   15.1270 C.3   154  HEM154      0.0000
     41  CGD       39.5180    1.6000   15.9900 C.2   154  HEM154      0.0000
     42  O1D       39.1660    0.9380   16.9880 O.co2 154  HEM154      0.0000
     43  O2D       40.7100    1.7440   15.6630 O.co2 154  HEM154      0.0000
@<TRIPOS>BOND
     1    22    19    1
     2    24    23    1
     3    23    20    1
     4    19    20    2
     5    19    18    1
     6    20    21    1
     7    11     9    1
     8     3    18    1
     9     3    10    2
    10    18    17    2
    11    16    14   ar
    12    21    17    1
    13    21     4    2
    14     9    10   ar
    15     9     8   ar
    16    10     6   ar
    17    17     1    1
    18    13    14    1
    19    13    12    1
    20    14    15   ar
    21     4    26    1
    22     8    12    1
    23     8     7   ar
    24     6     1    1
    25     6     7   ar
    26     1    25    1
    27     1    33    1
    28     7     2    2
    29    26    25   ar
    30    26    27   ar
    31    30    27    1
    32    25    29   ar
    33    27    28   ar
    34     2    37    1
    35    33    37    2
    36    33    34    1
    37    29    28   ar
    38    29     5    1
    39    37    36    1
    40    28    31    1
    41    34     5    2
    42    34    35    1
    43    31    32    1
    44    36    35    2
    45    36    39    1
    46    35    38    1
    47    39    40    1
    48    40    41    1
    49    43    41   ar
    50    41    42   ar
