@<TRIPOS>MOLECULE
2oha_HEM_A_1.pdb
 43 50 0 0 0
SMALL
GASTEIGER

@<TRIPOS>ATOM
      1 FE         34.8480    4.0140   10.3410 Fe    154  HEM154      0.0000
      2  CHA       37.4540    2.1210   11.4420 C.2   154  HEM154      0.0000
      3  CHB       36.7920    5.2000    7.8070 C.2   154  HEM154      0.0000
      4  CHC       32.3310    6.0780    9.3500 C.2   154  HEM154      0.0000
      5  CHD       32.9550    2.9530   12.9590 C.2   154  HEM154      0.0000
      6  NA        36.7150    3.7560    9.7810 N.ar  154  HEM154      0.0000
      7  C1A       37.6680    2.9190   10.3210 C.ar  154  HEM154      0.0000
      8  C2A       38.9070    2.9590    9.5690 C.ar  154  HEM154      0.0000
      9  C3A       38.7060    3.8300    8.5550 C.ar  154  HEM154      0.0000
     10  C4A       37.3640    4.3120    8.6840 C.ar  154  HEM154      0.0000
     11  CMA       39.6710    4.1690    7.4280 C.3   154  HEM154      0.0000
     12  CAA       40.1690    2.1080    9.8170 C.3   154  HEM154      0.0000
     13  CBA       40.2660    0.8960    8.8400 C.3   154  HEM154      0.0000
     14  CGA       38.9780    0.0620    8.7930 C.2   154  HEM154      0.0000
     15  O1A       38.6450   -0.6150    9.7910 O.co2 154  HEM154      0.0000
     16  O2A       38.2820    0.0980    7.7460 O.co2 154  HEM154      0.0000
     17  NB        34.6120    5.3090    8.8730 N.2   154  HEM154      0.0000
     18  C1B       35.5020    5.6700    7.8950 C.2   154  HEM154      0.0000
     19  C2B       34.9300    6.6570    6.9840 C.2   154  HEM154      0.0000
     20  C3B       33.6850    6.9270    7.4400 C.2   154  HEM154      0.0000
     21  C4B       33.4960    6.0850    8.5990 C.2   154  HEM154      0.0000
     22  CMB       35.5890    7.2180    5.7200 C.3   154  HEM154      0.0000
     23  CAB       32.6980    7.7800    6.8740 C.3   154  HEM154      0.0000
     24  CBB       32.9990    9.1000    6.3380 C.3   154  HEM154      0.0000
     25  NC        33.0180    4.3870   10.9750 N.ar  154  HEM154      0.0000
     26  C1C       32.1100    5.3010   10.4760 C.ar  154  HEM154      0.0000
     27  C2C       30.9290    5.4130   11.3150 C.ar  154  HEM154      0.0000
     28  C3C       31.1050    4.5250   12.3490 C.ar  154  HEM154      0.0000
     29  C4C       32.3870    3.8830   12.1010 C.ar  154  HEM154      0.0000
     30  CMC       29.7350    6.3460   11.0560 C.3   154  HEM154      0.0000
     31  CAC       30.3130    4.3250   13.5170 C.3   154  HEM154      0.0000
     32  CBC       28.9660    4.8410   13.7170 C.3   154  HEM154      0.0000
     33  ND        35.1170    2.7580   11.8180 N.2   154  HEM154      0.0000
     34  C1D       34.2340    2.4400   12.8330 C.2   154  HEM154      0.0000
     35  C2D       34.8450    1.5640   13.8050 C.2   154  HEM154      0.0000
     36  C3D       36.1110    1.3710   13.3950 C.2   154  HEM154      0.0000
     37  C4D       36.2670    2.0720   12.1530 C.2   154  HEM154      0.0000
     38  CMD       34.1850    1.0120   15.0700 C.3   154  HEM154      0.0000
     39  CAD       37.2070    0.6770   14.1550 C.3   154  HEM154      0.0000
     40  CBD       37.8450    1.6380   15.1780 C.3   154  HEM154      0.0000
     41  CGD       38.9260    0.9560   15.9760 C.2   154  HEM154      0.0000
     42  O1D       38.5860    0.2230   16.9240 O.co2 154  HEM154      0.0000
     43  O2D       40.1040    1.1460   15.6260 O.co2 154  HEM154      0.0000
@<TRIPOS>BOND
     1    22    19    1
     2    24    23    1
     3    23    20    1
     4    19    20    2
     5    19    18    1
     6    11     9    1
     7    20    21    1
     8    16    14   ar
     9     3    18    1
    10     3    10    2
    11    18    17    2
    12     9    10   ar
    13     9     8   ar
    14    21    17    1
    15    21     4    2
    16    10     6   ar
    17    14    13    1
    18    14    15   ar
    19    13    12    1
    20    17     1    1
    21     4    26    1
    22     8    12    1
    23     8     7   ar
    24     6     7   ar
    25     6     1    1
    26     7     2    2
    27     1    25    1
    28     1    33    1
    29    26    25   ar
    30    26    27   ar
    31    25    29   ar
    32    30    27    1
    33    27    28   ar
    34     2    37    1
    35    33    37    2
    36    33    34    1
    37    29    28   ar
    38    29     5    1
    39    37    36    1
    40    28    31    1
    41    34     5    2
    42    34    35    1
    43    36    35    2
    44    36    39    1
    45    31    32    1
    46    35    38    1
    47    39    40    1
    48    40    41    1
    49    43    41   ar
    50    41    42   ar
