@<TRIPOS>MOLECULE
2ohb_HEM_A_1.pdb
 43 50 0 0 0
SMALL
GASTEIGER

@<TRIPOS>ATOM
      1 FE         35.1910    4.2080   10.1890 Fe    154  HEM154      0.0000
      2  CHA       37.8150    2.4280   11.3910 C.2   154  HEM154      0.0000
      3  CHB       37.1250    5.3680    7.6730 C.2   154  HEM154      0.0000
      4  CHC       32.6080    6.0840    9.0540 C.2   154  HEM154      0.0000
      5  CHD       33.3190    3.2480   12.8460 C.2   154  HEM154      0.0000
      6  NA        37.0590    3.9610    9.6550 N.ar  154  HEM154      0.0000
      7  C1A       38.0140    3.1590   10.2410 C.ar  154  HEM154      0.0000
      8  C2A       39.2590    3.1930    9.4990 C.ar  154  HEM154      0.0000
      9  C3A       39.0700    4.0470    8.4720 C.ar  154  HEM154      0.0000
     10  C4A       37.7080    4.5110    8.5710 C.ar  154  HEM154      0.0000
     11  CMA       40.0970    4.4510    7.4220 C.3   154  HEM154      0.0000
     12  CAA       40.4950    2.3410    9.7500 C.3   154  HEM154      0.0000
     13  CBA       40.5890    1.1470    8.8030 C.3   154  HEM154      0.0000
     14  CGA       39.3780    0.2300    8.8900 C.2   154  HEM154      0.0000
     15  O1A       39.1310   -0.3350    9.9760 O.co2 154  HEM154      0.0000
     16  O2A       38.6710    0.0760    7.8710 O.co2 154  HEM154      0.0000
     17  NB        34.9270    5.4540    8.6990 N.2   154  HEM154      0.0000
     18  C1B       35.8290    5.8040    7.7210 C.2   154  HEM154      0.0000
     19  C2B       35.2290    6.6540    6.7160 C.2   154  HEM154      0.0000
     20  C3B       33.9330    6.8200    7.0760 C.2   154  HEM154      0.0000
     21  C4B       33.7680    6.0990    8.3230 C.2   154  HEM154      0.0000
     22  CMB       35.9270    7.2280    5.4870 C.3   154  HEM154      0.0000
     23  CAB       32.9110    7.3980    6.3220 C.3   154  HEM154      0.0000
     24  CBB       33.1380    8.4690    5.3670 C.3   154  HEM154      0.0000
     25  NC        33.3680    4.5870   10.8160 N.ar  154  HEM154      0.0000
     26  C1C       32.4240    5.4060   10.2350 C.ar  154  HEM154      0.0000
     27  C2C       31.2230    5.4900   11.0350 C.ar  154  HEM154      0.0000
     28  C3C       31.4270    4.7010   12.1180 C.ar  154  HEM154      0.0000
     29  C4C       32.7520    4.1340   11.9620 C.ar  154  HEM154      0.0000
     30  CMC       29.9700    6.3000   10.7050 C.3   154  HEM154      0.0000
     31  CAC       30.5480    4.4650   13.1720 C.3   154  HEM154      0.0000
     32  CBC       29.7290    5.5140   13.7610 C.3   154  HEM154      0.0000
     33  ND        35.4830    3.0470   11.7430 N.2   154  HEM154      0.0000
     34  C1D       34.5900    2.7320   12.7470 C.2   154  HEM154      0.0000
     35  C2D       35.1860    1.8650   13.7320 C.2   154  HEM154      0.0000
     36  C3D       36.4670    1.6770   13.3560 C.2   154  HEM154      0.0000
     37  C4D       36.6370    2.3870   12.1070 C.2   154  HEM154      0.0000
     38  CMD       34.5080    1.2790   14.9650 C.3   154  HEM154      0.0000
     39  CAD       37.5580    1.0210   14.1870 C.3   154  HEM154      0.0000
     40  CBD       38.2990    2.0290   15.0620 C.3   154  HEM154      0.0000
     41  CGD       39.3390    1.3840   15.9570 C.2   154  HEM154      0.0000
     42  O1D       38.9550    0.6520   16.8920 O.co2 154  HEM154      0.0000
     43  O2D       40.5430    1.6080   15.7210 O.co2 154  HEM154      0.0000
@<TRIPOS>BOND
     1    24    23    1
     2    22    19    1
     3    23    20    1
     4    19    20    2
     5    19    18    1
     6    20    21    1
     7    11     9    1
     8     3    18    1
     9     3    10    2
    10    18    17    2
    11    16    14   ar
    12    21    17    1
    13    21     4    2
    14     9    10   ar
    15     9     8   ar
    16    10     6   ar
    17    17     1    1
    18    13    14    1
    19    13    12    1
    20    14    15   ar
    21     4    26    1
    22     8    12    1
    23     8     7   ar
    24     6     1    1
    25     6     7   ar
    26     1    25    1
    27     1    33    1
    28    26    25   ar
    29    26    27   ar
    30     7     2    2
    31    30    27    1
    32    25    29   ar
    33    27    28   ar
    34     2    37    1
    35    33    37    2
    36    33    34    1
    37    29    28   ar
    38    29     5    1
    39    37    36    1
    40    28    31    1
    41    34     5    2
    42    34    35    1
    43    31    32    1
    44    36    35    2
    45    36    39    1
    46    35    38    1
    47    39    40    1
    48    40    41    1
    49    43    41   ar
    50    41    42   ar
