@<TRIPOS>MOLECULE
2ohf_ACP_A_1.pdb
 31 33 0 0 0
SMALL
GASTEIGER

@<TRIPOS>ATOM
      1  PG        54.3200   44.8110   -4.2710 P.3   9001  ACP9001     0.1295
      2  O1G       55.2180   45.7280   -5.0660 O.2   9001  ACP9001    -0.4595
      3  O2G       52.9480   44.5830   -4.8720 O.3   9001  ACP9001    -0.3567
      4  O3G       55.0140   43.5470   -3.8260 O.3   9001  ACP9001    -0.3567
      5  PB        53.4210   44.6800   -1.4400 P.3   9001  ACP9001     0.3815
      6  O1B       54.5860   43.7440   -1.2200 O.3   9001  ACP9001    -0.1391
      7  O2B       52.0280   44.1410   -1.7060 O.2   9001  ACP9001    -0.2547
      8  C3B       53.9950   45.7720   -2.7730 C.3   9001  ACP9001     0.1768
      9  PA        54.5310   46.0670    0.7190 P.3   9001  ACP9001     0.2209
     10  O1A       55.7030   46.2610   -0.2170 O.2   9001  ACP9001    -0.5170
     11  O2A       54.7400   45.2300    1.9550 O.3   9001  ACP9001    -0.4371
     12  O3A       53.2470   45.5410   -0.0970 O.3   9001  ACP9001    -0.2483
     13  O5'       53.9170   47.4660    1.2000 O.3   9001  ACP9001    -0.3111
     14  C5'       54.1180   48.6820    0.4950 C.3   9001  ACP9001     0.1813
     15  C4'       53.8720   49.8030    1.4860 C.3   9001  ACP9001     0.1821
     16  O4'       52.5370   49.6930    1.9990 O.3   9001  ACP9001    -0.3135
     17  C3'       54.8300   49.7240    2.6740 C.3   9001  ACP9001     0.2184
     18  O3'       55.7760   50.8010    2.6620 O.3   9001  ACP9001    -0.2174
     19  C2'       53.9290   49.7570    3.8990 C.3   9001  ACP9001     0.2570
     20  O2'       54.3100   50.7340    4.8680 O.3   9001  ACP9001    -0.2130
     21  C1'       52.5440   50.0880    3.3740 C.3   9001  ACP9001     0.3186
     22  N9        51.5540   49.4010    4.2440 N.pl3 9001  ACP9001    -0.1439
     23  C8        50.8190   48.3010    3.9830 C.3   9001  ACP9001     0.3377
     24  N7        50.0320   47.9860    5.0480 N.2   9001  ACP9001    -0.2095
     25  C5        50.2710   48.8950    6.0050 C.2   9001  ACP9001     0.2526
     26  C6        49.7980   49.1670    7.3760 C.2   9001  ACP9001     0.4393
     27  N6        48.8840   48.3820    7.9660 N.pl3 9001  ACP9001     0.2180
     28  N1        50.3060   50.2330    8.0340 N.2   9001  ACP9001     0.0021
     29  C2        51.2260   51.0460    7.4770 C.3   9001  ACP9001     0.5254
     30  N3        51.7040   50.8550    6.2340 N.2   9001  ACP9001    -0.0055
     31  C4        51.2730   49.8220    5.4710 C.2   9001  ACP9001     0.3518
@<TRIPOS>BOND
     1     2     1    2
     2     3     1    1
     3     1     4    1
     4     1     8    1
     5     8     5    1
     6     7     5    2
     7     5     6    1
     8     5    12    1
     9    10     9    2
    10    12     9    1
    11    14    13    1
    12    14    15    1
    13     9    13    1
    14     9    11    1
    15    15    16    1
    16    15    17    1
    17    16    21    1
    18    18    17    1
    19    17    19    1
    20    21    19    1
    21    21    22    1
    22    19    20    1
    23    23    22    1
    24    23    24    1
    25    22    31    1
    26    24    25    2
    27    31    25    1
    28    31    30    2
    29    25    26    1
    30    30    29    1
    31    26    27    1
    32    26    28    2
    33    29    28    1
