@<TRIPOS>MOLECULE
2ohh_FMN_A_1.pdb
 31 33 0 0 0
SMALL
GASTEIGER

@<TRIPOS>ATOM
      1  N1        14.5360   74.2980   15.7420 N.2   701  FMN701     -0.2887
      2  C2        14.6170   75.5510   16.3360 C.1   701  FMN701      0.3669
      3  O2        15.3910   76.3640   15.8290 O.2   701  FMN701     -0.1744
      4  N3        13.8480   75.8470   17.4430 N.2   701  FMN701     -0.2300
      5  C4        12.9760   74.9280   17.9970 C.1   701  FMN701      0.2513
      6  O4        12.3810   75.2110   19.0250 O.2   701  FMN701     -0.2057
      7  C4A       12.8790   73.6650   17.4130 C.2   701  FMN701      0.2706
      8  N5        12.0090   72.7080   17.9330 N.2   701  FMN701     -0.3841
      9  C5A       11.9920   71.4640   17.3360 C.2   701  FMN701      0.1452
     10  C6        11.1540   70.5080   17.8830 C.2   701  FMN701      0.0252
     11  C7        11.0730   69.2480   17.3030 C.2   701  FMN701     -0.0375
     12  C7M       10.1980   68.2460   18.0340 C.3   701  FMN701      0.0268
     13  C8        11.8640   68.9370   16.1830 C.3   701  FMN701      0.0417
     14  C8M       12.1620   67.5060   15.8800 C.3   701  FMN701      0.0091
     15  C9        12.7250   69.8980   15.6490 C.2   701  FMN701     -0.0049
     16  C9A       12.7870   71.1750   16.2230 C.2   701  FMN701      0.0795
     17  N10       13.6360   72.1610   15.6860 N.pl3 701  FMN701     -0.2545
     18  C10       13.6630   73.3850   16.2770 C.2   701  FMN701      0.2449
     19  C1'       14.1180   72.0790   14.2810 C.3   701  FMN701      0.1336
     20  C2'       15.4270   71.3110   14.2580 C.3   701  FMN701      0.2048
     21  O2'       16.3150   71.9620   15.1660 O.3   701  FMN701     -0.2185
     22  C3'       15.9360   71.2340   12.8340 C.3   701  FMN701      0.2165
     23  O3'       15.1940   70.1790   12.2140 O.3   701  FMN701     -0.2175
     24  C4'       17.4210   70.8830   12.7770 C.3   701  FMN701      0.2147
     25  O4'       17.9120   70.8280   11.4610 O.3   701  FMN701     -0.2176
     26  C5'       17.6200   69.4620   13.2380 C.3   701  FMN701      0.1892
     27  O5'       19.0200   69.1660   13.3030 O.3   701  FMN701     -0.2674
     28  P         19.4960   67.6260   13.2420 P.3   701  FMN701      0.5327
     29  O1P       19.3880   67.1620   11.8250 O.2   701  FMN701     -0.2224
     30  O2P       20.9520   67.3820   13.6930 O.3   701  FMN701     -0.1145
     31  O3P       18.5920   66.8560   14.1460 O.3   701  FMN701     -0.1145
@<TRIPOS>BOND
     1    25    24    1
     2    29    28    2
     3    23    22    1
     4    24    22    1
     5    24    26    1
     6    22    20    1
     7    26    27    1
     8    28    27    1
     9    28    30    1
    10    28    31    1
    11    20    19    1
    12    20    21    1
    13    19    17    1
    14    15    13    1
    15    15    16    2
    16    17    16    1
    17    17    18    1
    18     1    18    2
    19     1     2    2
    20     3     2    2
    21    14    13    1
    22    13    11    1
    23    16     9    1
    24    18     7    1
    25     2     4    2
    26    11    10    2
    27    11    12    1
    28     9    10    1
    29     9     8    2
    30     7     8    2
    31     7     5    1
    32     4     5    2
    33     5     6    2
