@<TRIPOS>MOLECULE
2ohi_FMN_A_1.pdb
 31 33 0 0 0
SMALL
GASTEIGER

@<TRIPOS>ATOM
      1  N1        58.9300   37.2800  128.2740 N.2   701  FMN701     -0.2887
      2  C2        58.6020   35.9560  128.3820 C.1   701  FMN701      0.3669
      3  O2        58.1040   35.5280  129.4120 O.2   701  FMN701     -0.1744
      4  N3        58.8410   35.1160  127.3240 N.2   701  FMN701     -0.2300
      5  C4        59.4020   35.5460  126.1520 C.1   701  FMN701      0.2513
      6  O4        59.9520   34.6580  125.5070 O.2   701  FMN701     -0.2057
      7  C4A       59.7460   36.8940  126.0280 C.2   701  FMN701      0.2703
      8  N5        60.3210   37.4310  124.8760 N.2   701  FMN701     -0.3885
      9  C5A       60.6510   38.7850  124.8270 C.2   701  FMN701      0.1233
     10  C6        61.2310   39.3460  123.6880 C.3   701  FMN701      0.0606
     11  C7        61.5730   40.7070  123.6150 C.3   701  FMN701      0.0111
     12  C7M       62.6480   41.1210  122.6570 C.3   701  FMN701      0.0008
     13  C8        61.3180   41.5270  124.7140 C.3   701  FMN701      0.0238
     14  C8M       61.4670   43.0160  124.6090 C.3   701  FMN701      0.0047
     15  C9        60.7430   40.9770  125.8600 C.2   701  FMN701     -0.0093
     16  C9A       60.4100   39.6120  125.9190 C.2   701  FMN701      0.0750
     17  N10       59.8410   39.0780  127.0670 N.pl3 701  FMN701     -0.2548
     18  C10       59.4980   37.7470  127.1110 C.2   701  FMN701      0.2449
     19  C1'       59.3280   39.9690  128.1640 C.3   701  FMN701      0.1336
     20  C2'       60.3630   40.3110  129.2230 C.3   701  FMN701      0.2048
     21  O2'       60.8080   39.1370  129.8720 O.3   701  FMN701     -0.2185
     22  C3'       59.6900   41.2720  130.2040 C.3   701  FMN701      0.2165
     23  O3'       59.2470   42.4140  129.5030 O.3   701  FMN701     -0.2175
     24  C4'       60.5190   41.6470  131.4360 C.3   701  FMN701      0.2147
     25  O4'       59.7210   42.4380  132.3090 O.3   701  FMN701     -0.2176
     26  C5'       61.8280   42.4000  131.1670 C.3   701  FMN701      0.1892
     27  O5'       62.4890   42.5880  132.3990 O.3   701  FMN701     -0.2674
     28  P         63.4950   43.8040  132.6040 P.3   701  FMN701      0.5327
     29  O1P       62.6740   45.0170  132.9270 O.3   701  FMN701     -0.1145
     30  O2P       64.4370   43.5680  133.7450 O.3   701  FMN701     -0.1145
     31  O3P       64.2710   43.9740  131.3260 O.2   701  FMN701     -0.2224
@<TRIPOS>BOND
     1    12    11    1
     2    11    10    1
     3    11    13    1
     4    10     9    1
     5    14    13    1
     6    13    15    1
     7     9     8    2
     8     9    16    1
     9     8     7    2
    10     6     5    2
    11    15    16    2
    12    16    17    1
    13     7     5    1
    14     7    18    1
    15     5     4    2
    16    17    18    1
    17    17    19    1
    18    18     1    2
    19     4     2    2
    20    19    20    1
    21     1     2    2
    22     2     3    2
    23    20    21    1
    24    20    22    1
    25    23    22    1
    26    22    24    1
    27    26    24    1
    28    26    27    1
    29    31    28    2
    30    24    25    1
    31    27    28    1
    32    28    29    1
    33    28    30    1
