@<TRIPOS>MOLECULE
2ohj_FMN_A_1.pdb
 31 33 0 0 0
SMALL
GASTEIGER

@<TRIPOS>ATOM
      1  N1        84.4040  107.0210  134.2530 N.2   701  FMN701     -0.2890
      2  C2        84.9270  107.5520  133.0850 C.1   701  FMN701      0.3669
      3  O2        84.2550  108.3120  132.3830 O.2   701  FMN701     -0.1744
      4  N3        86.2000  107.2140  132.6910 N.2   701  FMN701     -0.2300
      5  C4        86.9640  106.3610  133.4620 C.1   701  FMN701      0.2513
      6  O4        88.0480  105.9730  133.0440 O.2   701  FMN701     -0.2057
      7  C4A       86.4500  105.8320  134.6400 C.2   701  FMN701      0.2700
      8  N5        87.2170  104.9870  135.4000 N.2   701  FMN701     -0.3878
      9  C5A       86.7280  104.4420  136.5670 C.2   701  FMN701      0.1320
     10  C6        87.5270  103.5730  137.3120 C.2   701  FMN701      0.0250
     11  C7        87.0260  103.0130  138.5020 C.2   701  FMN701     -0.0238
     12  C7M       87.7990  101.8940  139.1670 C.3   701  FMN701      0.0308
     13  C8        85.7260  103.3400  138.9300 C.2   701  FMN701     -0.0280
     14  C8M       85.1140  102.7190  140.1480 C.3   701  FMN701      0.0304
     15  C9        84.9460  104.2040  138.1740 C.2   701  FMN701     -0.0041
     16  C9A       85.4330  104.7560  136.9810 C.3   701  FMN701      0.1497
     17  N10       84.6510  105.6260  136.2160 N.pl3 701  FMN701     -0.2691
     18  C10       85.1590  106.1590  135.0430 C.2   701  FMN701      0.2416
     19  C1'       83.4120  106.2350  136.8090 C.3   701  FMN701      0.1294
     20  C2'       82.1830  105.3780  136.4870 C.3   701  FMN701      0.2044
     21  O2'       82.2030  105.0160  135.1200 O.3   701  FMN701     -0.2185
     22  C3'       80.8880  106.1220  136.8630 C.3   701  FMN701      0.2164
     23  O3'       80.8410  106.2330  138.2670 O.3   701  FMN701     -0.2175
     24  C4'       79.5920  105.4640  136.3530 C.3   701  FMN701      0.2147
     25  O4'       78.4560  106.2490  136.6750 O.3   701  FMN701     -0.2176
     26  C5'       79.3350  104.0570  136.8830 C.3   701  FMN701      0.1892
     27  O5'       78.0570  103.6250  136.4300 O.3   701  FMN701     -0.2674
     28  P         77.2360  102.4930  137.2160 P.3   701  FMN701      0.5327
     29  O1P       76.3920  103.1570  138.2590 O.3   701  FMN701     -0.1145
     30  O2P       76.3840  101.7320  136.2610 O.2   701  FMN701     -0.2224
     31  O3P       78.2160  101.5430  137.8910 O.3   701  FMN701     -0.1145
@<TRIPOS>BOND
     1     3     2    2
     2     4     2    2
     3     4     5    2
     4     6     5    2
     5     2     1    2
     6     5     7    1
     7     1    18    2
     8     7    18    1
     9     7     8    2
    10    18    17    1
    11    21    20    1
    12     8     9    2
    13    17    19    1
    14    17    16    1
    15    30    28    2
    16    24    25    1
    17    24    22    1
    18    24    26    1
    19    27    26    1
    20    27    28    1
    21    20    19    1
    22    20    22    1
    23     9    16    1
    24     9    10    1
    25    22    23    1
    26    16    15    1
    27    28    31    1
    28    28    29    1
    29    10    11    2
    30    15    13    2
    31    11    13    1
    32    11    12    1
    33    13    14    1
