@<TRIPOS>MOLECULE
2ohk_1SQ_A_1.pdb
 19 20 0 0 0
SMALL
GASTEIGER

@<TRIPOS>ATOM
      1  N1        66.6510   49.0460    6.1240 N.pl3 390  1SQ390     -0.3330
      2  C2        67.4210   49.0870    7.2440 C.2   390  1SQ390      0.1748
      3  N3        67.8830   50.2920    7.6400 N.2   390  1SQ390     -0.4000
      4  C4        68.6510   50.3330    8.7350 C.2   390  1SQ390      0.0660
      5  C5        68.9550   49.2220    9.4970 C.3   390  1SQ390      0.0440
      6  C6        68.4550   47.9810    9.1330 C.ar  390  1SQ390     -0.0257
      7  C7        68.7150   46.8260    9.8620 C.ar  390  1SQ390     -0.0572
      8  C8        68.1960   45.6130    9.4540 C.ar  390  1SQ390     -0.0614
      9  C9        67.4250   45.5400    8.3140 C.ar  390  1SQ390     -0.0610
     10  C10       67.1560   46.6740    7.5840 C.ar  390  1SQ390     -0.0500
     11  C11       67.6570   47.9060    7.9780 C.ar  390  1SQ390      0.0306
     12 HN11       66.2100   49.8490    5.8250 H     390  1SQ390      0.1447
     13 HN12       66.6020   48.2380    5.6030 H     390  1SQ390      0.1447
     14  H4        69.0350   51.3020    9.0220 H     390  1SQ390      0.0929
     15  H5        69.5600   49.3190   10.3870 H     390  1SQ390      0.0427
     16  H7        69.3230   46.8800   10.7530 H     390  1SQ390      0.0621
     17  H8        68.4050   44.7180   10.0210 H     390  1SQ390      0.0618
     18  H9        67.0230   44.5920    7.9980 H     390  1SQ390      0.0618
     19  H10       66.5490   46.6070    6.7000 H     390  1SQ390      0.0625
@<TRIPOS>BOND
     1    13     1    1
     2    12     1    1
     3     1     2    1
     4    19    10    1
     5     2     3    2
     6     2    11    1
     7    10    11   ar
     8    10     9   ar
     9     3     4    2
    10    11     6   ar
    11    18     9    1
    12     9     8   ar
    13     4    14    1
    14     4     5    1
    15     6     5    1
    16     6     7   ar
    17     8     7   ar
    18     8    17    1
    19     5    15    1
    20     7    16    1
