@<TRIPOS>MOLECULE
2ohl_2AQ_A_1.pdb
 19 20 0 0 0
SMALL
GASTEIGER

@<TRIPOS>ATOM
      1  N1        65.9390   48.6290    6.0130 N.pl3 390  2AQ390     -0.3334
      2  C2        66.6300   48.6680    7.0830 C.2   390  2AQ390      0.1678
      3  C3        66.9230   47.5020    7.7790 C.2   390  2AQ390     -0.0124
      4  C4        67.6720   47.5720    8.9280 C.2   390  2AQ390     -0.0616
      5  C5        68.1000   48.8100    9.3810 C.3   390  2AQ390      0.0798
      6  C6        68.8550   48.9590   10.5330 C.2   390  2AQ390     -0.0659
      7  C7        69.2520   50.2120   10.9470 C.2   390  2AQ390     -0.0643
      8  C8        68.9030   51.3310   10.2150 C.2   390  2AQ390     -0.0593
      9  C9        68.1580   51.2020    9.0600 C.2   390  2AQ390     -0.0272
     10  C10       67.7480   49.9540    8.6280 C.2   390  2AQ390      0.1087
     11  N11       67.0270   49.8790    7.5020 N.2   390  2AQ390     -0.3925
     12 HN11       65.7780   49.4380    5.5170 H     390  2AQ390      0.1447
     13 HN12       65.5630   47.7780    5.7720 H     390  2AQ390      0.1447
     14  H3        66.5880   46.5460    7.4020 H     390  2AQ390      0.0660
     15  H4        67.9200   46.6750    9.4770 H     390  2AQ390      0.0587
     16  H6        69.1190   48.0890   11.1150 H     390  2AQ390      0.0585
     17  H7        69.8350   50.3210   11.8490 H     390  2AQ390      0.0615
     18  H8        69.2250   52.3080   10.5400 H     390  2AQ390      0.0618
     19  H9        67.8950   52.0790    8.4880 H     390  2AQ390      0.0646
@<TRIPOS>BOND
     1    12     1    1
     2    13     1    1
     3     1     2    1
     4     2    11    2
     5     2     3    1
     6    14     3    1
     7    11    10    2
     8     3     4    2
     9    19     9    1
    10    10     9    1
    11    10     5    1
    12     4     5    1
    13     4    15    1
    14     9     8    2
    15     5     6    1
    16     8    18    1
    17     8     7    1
    18     6     7    2
    19     6    16    1
    20     7    17    1
