@<TRIPOS>MOLECULE
2ohm_8AP_A_1.pdb
 15 16 0 0 0
SMALL
GASTEIGER

@<TRIPOS>ATOM
      1  N1        65.6880   48.6310    6.2310 N.pl3 389  8AP389     -0.1058
      2  C2        66.2870   47.8660    7.2320 C.ar  389  8AP389      0.1846
      3  N3        66.0580   46.5570    7.2700 N.ar  389  8AP389     -0.2249
      4  C4        66.5910   45.7550    8.1840 C.ar  389  8AP389      0.1005
      5  C5        67.4340   46.2650    9.1590 C.ar  389  8AP389      0.0221
      6  C6        67.7060   47.6270    9.1660 C.ar  389  8AP389      0.0206
      7  C7        67.1160   48.4480    8.2020 C.ar  389  8AP389      0.1004
      8  N8        67.3950   49.8210    8.1900 N.pl3 389  8AP389     -0.2299
      9  C9        68.5800   50.3200    8.9060 C.3   389  8AP389      0.1386
     10  C10       69.8690   49.8130    8.2810 C.ar  389  8AP389     -0.0007
     11  C11       69.8650   49.0380    7.1180 C.ar  389  8AP389     -0.0026
     12  C12       71.0520   48.5880    6.5590 C.ar  389  8AP389     -0.0003
     13  C13       72.2570   48.9160    7.1620 C.ar  389  8AP389     -0.0000
     14  C14       72.2660   49.6880    8.3180 C.ar  389  8AP389     -0.0003
     15  C15       71.0770   50.1340    8.8800 C.ar  389  8AP389     -0.0026
@<TRIPOS>BOND
     1     1     2    1
     2    12    11   ar
     3    12    13   ar
     4    11    10   ar
     5    13    14   ar
     6     2     3   ar
     7     2     7   ar
     8     3     4   ar
     9     4     5   ar
    10     8     7    1
    11     8     9    1
    12     7     6   ar
    13    10    15   ar
    14    10     9    1
    15    14    15   ar
    16     5     6   ar
