@<TRIPOS>MOLECULE
2ohn_4FP_A_1.pdb
 31 32 0 0 0
SMALL
GASTEIGER

@<TRIPOS>ATOM
      1  F1        74.5400   48.3200    8.6200 F     405  4FP405     -0.2055
      2  C2        73.2580   48.7380    8.6750 C.ar  405  4FP405      0.1234
      3  C3        72.7080   49.4220    7.6020 C.ar  405  4FP405     -0.0262
      4  C4        71.4030   49.8620    7.6600 C.ar  405  4FP405     -0.0559
      5  C5        70.6270   49.6190    8.7880 C.ar  405  4FP405     -0.0469
      6  C6        69.2030   50.1040    8.8480 C.3   405  4FP405     -0.0250
      7  C7        68.2050   49.1100    8.3010 C.3   405  4FP405     -0.0405
      8  C8        66.8400   49.7760    8.1260 C.3   405  4FP405     -0.0654
      9  C9        65.8420   48.8330    7.4770 C.3   405  4FP405     -0.0932
     10  N10       66.3680   48.3390    6.1760 N.4   405  4FP405      0.3791
     11  C11       67.6420   47.5890    6.3710 C.3   405  4FP405     -0.0932
     12  C12       68.6830   48.5130    6.9760 C.3   405  4FP405     -0.0654
     13  C13       71.1810   48.9250    9.8590 C.ar  405  4FP405     -0.0559
     14  C14       72.4890   48.4860    9.8040 C.ar  405  4FP405     -0.0262
     15  H3        73.3080   49.6210    6.7270 H     405  4FP405      0.0646
     16  H4        70.9780   50.4010    6.8260 H     405  4FP405      0.0621
     17  H61       68.9470   50.3200    9.8790 H     405  4FP405      0.0316
     18  H62       69.1210   51.0300    8.2830 H     405  4FP405      0.0316
     19  H7        68.1010   48.3020    9.0240 H     405  4FP405      0.0303
     20  H81       66.4640   50.0840    9.1010 H     405  4FP405      0.0250
     21  H82       66.9530   50.6600    7.5080 H     405  4FP405      0.0250
     22  H91       65.6580   47.9870    8.1400 H     405  4FP405      0.0054
     23  H92       64.9040   49.3550    7.3130 H     405  4FP405      0.0054
     24 HN10       65.6950   47.7190    5.7870 H     405  4FP405     -0.0859
     25 H111       67.4750   46.7440    7.0390 H     405  4FP405      0.0054
     26 H112       67.9980   47.2150    5.4210 H     405  4FP405      0.0054
     27 H121       68.8990   49.3210    6.2760 H     405  4FP405      0.0250
     28 H122       69.6010   47.9520    7.1470 H     405  4FP405      0.0250
     29  H13       70.5830   48.7330   10.7380 H     405  4FP405      0.0621
     30  H14       72.9170   47.9510   10.6390 H     405  4FP405      0.0646
     31  H12       66.5340   49.1110    5.5690 H     405  4FP405     -0.0859
@<TRIPOS>BOND
     1    26    11    1
     2    31    10    1
     3    24    10    1
     4    10    11    1
     5    10     9    1
     6    27    12    1
     7    11    12    1
     8    11    25    1
     9    15     3    1
    10    16     4    1
    11    12    28    1
    12    12     7    1
    13    23     9    1
    14     9     8    1
    15     9    22    1
    16    21     8    1
    17     3     4   ar
    18     3     2   ar
    19     4     5   ar
    20     8     7    1
    21     8    20    1
    22    18     6    1
    23     7     6    1
    24     7    19    1
    25     1     2    1
    26     2    14   ar
    27     5     6    1
    28     5    13   ar
    29     6    17    1
    30    14    13   ar
    31    14    30    1
    32    13    29    1
