@<TRIPOS>MOLECULE
2ohp_6IP_A_1.pdb
 34 36 0 0 0
SMALL
GASTEIGER

@<TRIPOS>ATOM
      1  N1        65.9590   48.6240    6.1440 N.3   389  6IP389     -0.3039
      2  C2        66.8150   48.4670    7.1260 C.3   389  6IP389      0.1394
      3  C3        66.7820   47.3350    7.9340 C.2   389  6IP389     -0.0429
      4  C4        67.6920   47.1950    8.9600 C.2   389  6IP389     -0.0609
      5  C5        68.6210   48.1910    9.1960 C.2   389  6IP389     -0.0451
      6  C6        68.6360   49.3310    8.4000 C.2   389  6IP389      0.0058
      7  C7        69.6430   50.4290    8.6230 C.3   389  6IP389     -0.0108
      8  C8        70.4360   50.7520    7.3720 C.3   389  6IP389     -0.0225
      9  C9        71.3270   49.6250    6.9150 C.ar  389  6IP389     -0.0450
     10  C10       72.3880   49.2050    7.7140 C.ar  389  6IP389     -0.0579
     11  C11       73.2320   48.1870    7.3060 C.ar  389  6IP389     -0.0523
     12  C12       73.0220   47.5880    6.0700 C.ar  389  6IP389     -0.0003
     13  C13       73.6720   46.5570    5.3590 C.ar  389  6IP389     -0.0367
     14  C14       73.0020   46.3900    4.1450 C.ar  389  6IP389      0.0027
     15  N15       71.9850   47.2750    4.0950 N.ar  389  6IP389     -0.3606
     16  C16       71.9680   48.0130    5.2590 C.ar  389  6IP389      0.0467
     17  C17       71.1180   49.0320    5.6730 C.ar  389  6IP389     -0.0346
     18  N18       67.7260   49.4530    7.3860 N.pl3 389  6IP389     -0.3233
     19 HN11       65.2670   47.9670    6.0350 H     389  6IP389      0.1206
     20 HN12       66.0240   49.3810    5.5590 H     389  6IP389      0.1206
     21  H3        66.0560   46.5590    7.7420 H     389  6IP389      0.0608
     22  H4        67.6730   46.3140    9.5840 H     389  6IP389      0.0616
     23  H5        69.3300   48.0900   10.0030 H     389  6IP389      0.0633
     24  H71       70.3320   50.1260    9.4110 H     389  6IP389      0.0329
     25  H72       69.1230   51.3270    8.9550 H     389  6IP389      0.0329
     26  H81       71.0520   51.6300    7.5660 H     389  6IP389      0.0317
     27  H82       69.7440   51.0050    6.5710 H     389  6IP389      0.0317
     28  H10       72.5420   49.6710    8.6760 H     389  6IP389      0.0620
     29  H11       74.0400   47.8650    7.9470 H     389  6IP389      0.0624
     30  H13       74.5320   46.0000    5.7010 H     389  6IP389      0.0638
     31  H14       73.2320   45.6840    3.3610 H     389  6IP389      0.0807
     32 HN15       71.3580   47.3690    3.3620 H     389  6IP389      0.1653
     33  H17       70.3090   49.3720    5.0430 H     389  6IP389      0.0641
     34  H20       67.7510   50.2320    6.8250 H     389  6IP389      0.1479
@<TRIPOS>BOND
     1    31    14    1
     2    32    15    1
     3    15    14   ar
     4    15    16   ar
     5    14    13   ar
     6    33    17    1
     7    16    17   ar
     8    16    12   ar
     9    13    30    1
    10    13    12   ar
    11    20     1    1
    12    17     9   ar
    13    19     1    1
    14    12    11   ar
    15     1     2    1
    16    27     8    1
    17    34    18    1
    18     9     8    1
    19     9    10   ar
    20     2    18    1
    21     2     3    1
    22    11    10   ar
    23    11    29    1
    24     8    26    1
    25     8     7    1
    26    18     6    1
    27    10    28    1
    28    21     3    1
    29     3     4    2
    30     6     7    1
    31     6     5    2
    32     7    25    1
    33     7    24    1
    34     4     5    1
    35     4    22    1
    36     5    23    1
