@<TRIPOS>MOLECULE
2ohq_7IP_A_1.pdb
 44 46 0 0 0
SMALL
GASTEIGER

@<TRIPOS>ATOM
      1  C1        71.0690   45.9020    1.0960 C.3   404  7IP404      0.0788
      2  O2        71.0940   46.8910    2.1280 O.3   404  7IP404     -0.4951
      3  C3        71.8850   46.6510    3.2260 C.ar  404  7IP404      0.1207
      4  C4        72.7200   45.5530    3.3820 C.ar  404  7IP404     -0.0199
      5  C5        73.4540   45.3940    4.5370 C.ar  404  7IP404     -0.0577
      6  C6        73.3650   46.3230    5.5500 C.ar  404  7IP404     -0.0538
      7  C7        72.5290   47.4280    5.4290 C.ar  404  7IP404     -0.0144
      8  C8        71.7940   47.5810    4.2550 C.ar  404  7IP404     -0.0122
      9  C9        72.4280   48.4190    6.5390 C.ar  404  7IP404     -0.0175
     10  C10       73.4330   48.5070    7.4990 C.ar  404  7IP404     -0.0540
     11  C11       73.3380   49.4120    8.5370 C.ar  404  7IP404     -0.0609
     12  C12       72.2420   50.2400    8.6340 C.ar  404  7IP404     -0.0585
     13  C13       71.2180   50.1660    7.7010 C.ar  404  7IP404     -0.0466
     14  C14       70.0300   51.0860    7.8080 C.3   404  7IP404     -0.0232
     15  C15       69.1150   50.7320    8.9620 C.3   404  7IP404      0.0012
     16  C16       68.2920   49.5100    8.6570 C.3   404  7IP404      0.1630
     17  C17       68.3930   48.3490    9.4150 C.2   404  7IP404     -0.0340
     18  C18       67.6270   47.2480    9.0880 C.2   404  7IP404     -0.0541
     19  C19       66.7710   47.3060    8.0070 C.2   404  7IP404      0.0224
     20  C20       66.6880   48.4690    7.2470 C.2   404  7IP404      0.2540
     21  N21       65.8930   48.5460    6.1790 N.pl3 404  7IP404     -0.2516
     22  N22       67.4430   49.5480    7.5900 N.pl3 404  7IP404     -0.2253
     23  C23       71.3160   49.2510    6.6590 C.ar  404  7IP404     -0.0508
     24 H11A       72.0640   45.7870    0.6930 H     404  7IP404      0.0660
     25 H12A       70.3910   46.2150    0.3030 H     404  7IP404      0.0660
     26  H13       70.7320   44.9510    1.5070 H     404  7IP404      0.0660
     27  H4        72.7990   44.8250    2.5920 H     404  7IP404      0.0654
     28  H5        74.1050   44.5420    4.6470 H     404  7IP404      0.0619
     29  H6        73.9400   46.1870    6.4500 H     404  7IP404      0.0624
     30  H8        71.1360   48.4290    4.1450 H     404  7IP404      0.0660
     31  H10       74.2950   47.8650    7.4290 H     404  7IP404      0.0624
     32  H11       74.1280   49.4760    9.2700 H     404  7IP404      0.0618
     33  H12       72.1730   50.9450    9.4430 H     404  7IP404      0.0620
     34 H141       70.3860   52.1050    7.9420 H     404  7IP404      0.0315
     35 H142       69.4640   51.0460    6.8790 H     404  7IP404      0.0315
     36 H151       69.7160   50.5480    9.8530 H     404  7IP404      0.0315
     37 H152       68.4490   51.5720    9.1620 H     404  7IP404      0.0315
     38  H17       69.0550   48.3180   10.2670 H     404  7IP404      0.0617
     39  H18       67.6900   46.3480    9.6820 H     404  7IP404      0.0618
     40  H19       66.1740   46.4460    7.7400 H     404  7IP404      0.0695
     41 H211       65.3910   47.7610    5.9580 H     404  7IP404      0.2881
     42 H212       65.8100   49.3670    5.6880 H     404  7IP404      0.2881
     43  H23       70.5270   49.1970    5.9260 H     404  7IP404      0.0626
     44  H22       67.3950   50.3430    7.0590 H     404  7IP404      0.2921
@<TRIPOS>BOND
     1    25     1    1
     2    24     1    1
     3     1    26    1
     4     1     2    1
     5     2     3    1
     6    27     4    1
     7     3     4   ar
     8     3     8   ar
     9     4     5   ar
    10    30     8    1
    11     8     7   ar
    12     5    28    1
    13     5     6   ar
    14     7     6   ar
    15     7     9    1
    16     6    29    1
    17    42    21    1
    18    43    23    1
    19    41    21    1
    20    21    20    1
    21     9    23   ar
    22     9    10   ar
    23    23    13   ar
    24    35    14    1
    25    44    22    1
    26    20    22    1
    27    20    19    2
    28    31    10    1
    29    10    11   ar
    30    22    16    1
    31    13    14    1
    32    13    12   ar
    33    40    19    1
    34    14    34    1
    35    14    15    1
    36    19    18    1
    37    11    12   ar
    38    11    32    1
    39    12    33    1
    40    16    15    1
    41    16    17    1
    42    15    37    1
    43    15    36    1
    44    18    17    2
    45    18    39    1
    46    17    38    1
