@<TRIPOS>MOLECULE
2ohr_8IP_A_1.pdb
 37 39 0 0 0
SMALL
GASTEIGER

@<TRIPOS>ATOM
      1  N1        65.3690   47.2000    6.3800 N.pl3 504  8IP504     -0.3350
      2  C2        66.0320   46.3570    7.1920 C.2   504  8IP504      0.1708
      3  N3        65.6790   45.0520    7.1510 N.2   504  8IP504     -0.3992
      4  C4        66.3160   44.2090    7.9730 C.2   504  8IP504      0.0797
      5  C5        67.2970   44.6060    8.8580 C.2   504  8IP504     -0.0334
      6  C6        67.6600   45.9320    8.9150 C.2   504  8IP504     -0.0510
      7  C7        67.0250   46.8470    8.0850 C.3   504  8IP504      0.1356
      8  N8        67.3140   48.2130    8.0970 N.3   504  8IP504     -0.2944
      9  C9        68.2930   48.8430    8.9680 C.3   504  8IP504      0.0225
     10  C10       69.7330   48.5410    8.6180 C.ar  504  8IP504     -0.0332
     11  C11       70.7450   48.9240    9.4820 C.ar  504  8IP504     -0.0573
     12  C12       72.0640   48.6670    9.1750 C.ar  504  8IP504     -0.0612
     13  C13       72.3920   48.0050    8.0120 C.ar  504  8IP504     -0.0573
     14  C14       71.4000   47.6030    7.1250 C.ar  504  8IP504     -0.0294
     15  C15       70.0700   47.8750    7.4430 C.ar  504  8IP504     -0.0529
     16  C16       71.7530   46.8550    5.8850 C.3   504  8IP504      0.0792
     17  C17       72.7980   45.9420    5.8710 C.2   504  8IP504     -0.0635
     18  C18       73.0820   45.2550    4.7120 C.2   504  8IP504     -0.0345
     19  C19       72.2990   45.4660    3.5970 C.2   504  8IP504      0.0772
     20  N20       71.2840   46.3340    3.5720 N.2   504  8IP504     -0.4228
     21  C21       71.0160   46.9940    4.7090 C.2   504  8IP504      0.0709
     22 HN11       64.6540   46.8650    5.8370 H     504  8IP504      0.1444
     23 HN12       65.5890   48.1290    6.3630 H     504  8IP504      0.1444
     24  H4        66.0370   43.1700    7.9130 H     504  8IP504      0.0970
     25  H5        67.7840   43.8800    9.4930 H     504  8IP504      0.0641
     26  H6        68.4200   46.2620    9.6060 H     504  8IP504      0.0597
     27  HN8       66.8560   48.7960    7.4870 H     504  8IP504      0.1235
     28  H91       68.1430   49.9210    8.9340 H     504  8IP504      0.0474
     29  H92       68.1050   48.5190    9.9920 H     504  8IP504      0.0474
     30  H11       70.4970   49.4530   10.3880 H     504  8IP504      0.0621
     31  H12       72.8410   48.9780    9.8530 H     504  8IP504      0.0618
     32  H13       73.4260   47.7950    7.7870 H     504  8IP504      0.0621
     33  H15       69.2890   47.5570    6.7710 H     504  8IP504      0.0624
     34  H17       73.3920   45.7830    6.7590 H     504  8IP504      0.0586
     35  H18       73.8970   44.5480    4.6820 H     504  8IP504      0.0640
     36  H19       72.5150   44.9390    2.6790 H     504  8IP504      0.0969
     37  H21       70.1900   47.6880    4.6770 H     504  8IP504      0.0934
@<TRIPOS>BOND
     1    36    19    1
     2    20    19    2
     3    20    21    2
     4    19    18    1
     5    37    21    1
     6    35    18    1
     7    21    16    1
     8    18    17    2
     9    22     1    1
    10    17    16    1
    11    17    34    1
    12    16    14    1
    13    23     1    1
    14     1     2    1
    15    33    15    1
    16    14    15   ar
    17    14    13   ar
    18     3     2    2
    19     3     4    2
    20     2     7    1
    21    15    10   ar
    22    27     8    1
    23    32    13    1
    24    24     4    1
    25     4     5    1
    26    13    12   ar
    27     7     8    1
    28     7     6    1
    29     8     9    1
    30    10     9    1
    31    10    11   ar
    32     5     6    2
    33     5    25    1
    34     6    26    1
    35    28     9    1
    36     9    29    1
    37    12    11   ar
    38    12    31    1
    39    11    30    1
