@<TRIPOS>MOLECULE
2ohs_9IP_A_1.pdb
 42 44 0 0 0
SMALL
GASTEIGER

@<TRIPOS>ATOM
      1  C1        70.3460   45.2650    1.6510 C.3   389  9IP389      0.0789
      2  O2        70.3220   46.3010    2.6470 O.2   389  9IP389     -0.4928
      3  C3        71.1190   46.1400    3.7510 C.2   389  9IP389      0.1472
      4  C4        72.1610   45.2300    3.8810 C.2   389  9IP389      0.1187
      5  N5        72.8980   45.1020    4.9860 N.2   389  9IP389     -0.4191
      6  C6        72.5730   45.8770    6.0270 C.2   389  9IP389      0.0712
      7  C7        71.5480   46.8230    6.0100 C.3   389  9IP389      0.0826
      8  C8        70.7990   46.9310    4.8460 C.2   389  9IP389     -0.0215
      9  C9        71.2270   47.6230    7.2260 C.ar  389  9IP389     -0.0293
     10  C10       72.2370   47.9840    8.1090 C.ar  389  9IP389     -0.0573
     11  C11       71.9460   48.6710    9.2660 C.ar  389  9IP389     -0.0612
     12  C12       70.6400   48.9970    9.5730 C.ar  389  9IP389     -0.0571
     13  C13       69.6010   48.6310    8.7300 C.ar  389  9IP389     -0.0301
     14  C14       68.1810   48.9910    9.0970 C.3   389  9IP389      0.0346
     15  N15       67.1400   48.4090    8.2530 N.pl3 389  9IP389     -0.3338
     16  C16       66.7280   47.0330    8.2800 C.2   389  9IP389      0.1125
     17  C17       67.3370   46.1160    9.1300 C.2   389  9IP389     -0.0333
     18  C18       66.9430   44.7930    9.1180 C.2   389  9IP389     -0.0357
     19  C19       65.9210   44.3880    8.2810 C.3   389  9IP389      0.1495
     20  N20       65.3140   45.2570    7.4540 N.pl3 389  9IP389     -0.2266
     21  C21       65.6910   46.5750    7.4180 C.2   389  9IP389      0.2751
     22  N22       65.0300   47.3900    6.5800 N.pl3 389  9IP389     -0.2500
     23  C23       69.9050   47.9370    7.5560 C.ar  389  9IP389     -0.0526
     24 H11A       69.5250   45.4140    0.9500 H     389  9IP389      0.0660
     25 H12A       71.2920   45.3010    1.1130 H     389  9IP389      0.0660
     26  H13       70.2390   44.2920    2.1320 H     389  9IP389      0.0660
     27  H4        72.4340   44.6080    3.0420 H     389  9IP389      0.1007
     28  H6        73.1710   45.7570    6.9170 H     389  9IP389      0.0934
     29  H8        69.9790   47.6320    4.7900 H     389  9IP389      0.0622
     30  H10       73.2620   47.7380    7.8750 H     389  9IP389      0.0621
     31  H11       72.7420   48.9710    9.9270 H     389  9IP389      0.0618
     32  H12       70.4230   49.5430   10.4780 H     389  9IP389      0.0621
     33 H141       67.9990   48.6820   10.1260 H     389  9IP389      0.0511
     34 H142       68.0780   50.0730    9.0660 H     389  9IP389      0.0511
     35 HN15       66.7100   49.0070    7.6340 H     389  9IP389      0.1466
     36  H17       68.1340   46.4350    9.7790 H     389  9IP389      0.0637
     37  H18       67.4140   44.0820    9.7800 H     389  9IP389      0.0614
     38  H19       65.5980   43.3590    8.2770 H     389  9IP389      0.0853
     39 H221       64.2790   47.0520    6.0870 H     389  9IP389      0.2882
     40 H222       65.3010   48.3060    6.4990 H     389  9IP389      0.2882
     41  H23       69.1070   47.6330    6.8970 H     389  9IP389      0.0624
     42  H21       64.6030   44.9530    6.8790 H     389  9IP389      0.2919
@<TRIPOS>BOND
     1    24     1    1
     2    25     1    1
     3     1    26    1
     4     1     2    1
     5     2     3    1
     6    27     4    1
     7     3     4    1
     8     3     8    2
     9     4     5    2
    10    29     8    1
    11     8     7    1
    12     5     6    2
    13     7     6    1
    14     7     9    1
    15     6    28    1
    16    39    22    1
    17    40    22    1
    18    22    21    1
    19    42    20    1
    20    41    23    1
    21     9    23   ar
    22     9    10   ar
    23    21    20    1
    24    21    16    2
    25    20    19    1
    26    23    13   ar
    27    35    15    1
    28    30    10    1
    29    10    11   ar
    30    15    16    1
    31    15    14    1
    32    38    19    1
    33    16    17    1
    34    19    18    1
    35    13    14    1
    36    13    12   ar
    37    34    14    1
    38    14    33    1
    39    18    17    2
    40    18    37    1
    41    17    36    1
    42    11    12   ar
    43    11    31    1
    44    12    32    1
