@<TRIPOS>MOLECULE
2oht_IP6_A_1.pdb
 24 27 0 0 0
SMALL
GASTEIGER

@<TRIPOS>ATOM
      1  N1        65.8610   48.7170    6.5440 N.pl3 601  IP6601     -0.1058
      2  C2        65.7760   48.1960    7.8330 C.ar  601  IP6601      0.1846
      3  N3        65.1480   47.0390    8.0370 N.ar  601  IP6601     -0.2249
      4  C4        65.0470   46.5000    9.2420 C.ar  601  IP6601      0.1005
      5  C5        65.5920   47.1180   10.3530 C.ar  601  IP6601      0.0221
      6  C6        66.2570   48.3260   10.1850 C.ar  601  IP6601      0.0206
      7  C7        66.3570   48.8900    8.9100 C.ar  601  IP6601      0.1004
      8  N8        67.0270   50.1180    8.6990 N.pl3 601  IP6601     -0.2299
      9  C9        67.7440   50.8000    9.7950 C.3   601  IP6601      0.1386
     10  C10       69.1070   50.1540    9.9970 C.ar  601  IP6601     -0.0007
     11  C11       69.5460   49.9200   11.3020 C.ar  601  IP6601     -0.0026
     12  C12       70.7790   49.3260   11.5120 C.ar  601  IP6601     -0.0003
     13  C13       71.5790   48.9590   10.4280 C.ar  601  IP6601     -0.0000
     14  C14       71.1570   49.2000    9.1100 C.ar  601  IP6601     -0.0002
     15  C15       69.9000   49.7890    8.8990 C.ar  601  IP6601     -0.0026
     16  C16       72.0310   48.7840    7.9840 C.2   601  IP6601      0.0009
     17  C17       73.4380   48.8230    8.1250 C.2   601  IP6601     -0.0038
     18  C18       74.2530   48.4180    7.0920 C.2   601  IP6601     -0.0161
     19  C19       73.6950   47.9500    5.8810 C.3   601  IP6601      0.0856
     20  C20       74.2490   47.4550    4.6050 C.2   601  IP6601      0.0045
     21  C21       73.2110   47.1310    3.7960 C.2   601  IP6601      0.0946
     22  N22       72.0250   47.3840    4.4400 N.2   601  IP6601     -0.2478
     23  C23       72.2780   47.8790    5.7250 C.2   601  IP6601      0.0668
     24  C24       71.4560   48.2980    6.7960 C.2   601  IP6601      0.0153
@<TRIPOS>BOND
     1    21    22    1
     2    21    20    2
     3    22    23    2
     4    20    19    1
     5    23    19    1
     6    23    24    1
     7    19    18    1
     8     1     2    1
     9    24    16    2
    10    18    17    2
    11     2     3   ar
    12     2     7   ar
    13    16    17    1
    14    16    14    1
    15     3     4   ar
    16     8     7    1
    17     8     9    1
    18    15    14   ar
    19    15    10   ar
    20     7     6   ar
    21    14    13   ar
    22     4     5   ar
    23     9    10    1
    24    10    11   ar
    25     6     5   ar
    26    13    12   ar
    27    11    12   ar
