@<TRIPOS>MOLECULE
2ohu_IP7_A_1.pdb
 32 36 0 0 0
SMALL
GASTEIGER

@<TRIPOS>ATOM
      1  N1        66.0360   48.6110    5.9490 N.pl3 390  IP7390     -0.1058
      2  C2        65.8280   48.1070    7.2250 C.ar  390  IP7390      0.1846
      3  N3        65.2290   46.9250    7.3770 N.ar  390  IP7390     -0.2249
      4  C4        65.0120   46.3850    8.5740 C.ar  390  IP7390      0.1005
      5  C5        65.3990   47.0460    9.7300 C.ar  390  IP7390      0.0221
      6  C6        66.0280   48.2850    9.6220 C.ar  390  IP7390      0.0206
      7  C7        66.2470   48.8450    8.3540 C.ar  390  IP7390      0.1004
      8  N8        66.9010   50.0870    8.2030 N.pl3 390  IP7390     -0.2298
      9  C9        67.5590   50.7320    9.3440 C.3   390  IP7390      0.1416
     10  C10       68.8540   50.0560    9.7630 C.ar  390  IP7390      0.0334
     11  C11       69.7790   49.7240    8.7840 C.ar  390  IP7390      0.0005
     12  C12       70.9900   49.1200    9.1360 C.ar  390  IP7390     -0.0000
     13  C13       71.2790   48.8260   10.4910 C.ar  390  IP7390      0.0031
     14  C14       70.3510   49.1470   11.4760 C.ar  390  IP7390      0.0366
     15  C15       69.1360   49.7630   11.1220 C.ar  390  IP7390      0.1368
     16  O16       68.2380   50.0740   12.1090 O.3   390  IP7390     -0.4693
     17  C17       68.5890   51.3460   12.6680 C.3   390  IP7390      0.2508
     18  C18       67.7320   52.4160   12.0360 C.ar  390  IP7390      0.1026
     19  C19       66.3800   52.5190   12.3870 C.ar  390  IP7390      0.0185
     20  C20       65.5840   53.5110   11.8020 C.ar  390  IP7390      0.0029
     21  C21       66.2090   54.3670   10.8910 C.ar  390  IP7390      0.0207
     22  C22       67.5550   54.2120   10.5740 C.ar  390  IP7390      0.0986
     23  N23       68.2680   53.2470   11.1420 N.ar  390  IP7390     -0.2445
     24  C24       71.9470   48.7460    8.0740 C.2   390  IP7390      0.0009
     25  C25       73.3390   48.8440    8.2790 C.2   390  IP7390     -0.0038
     26  C26       74.2010   48.4470    7.2890 C.2   390  IP7390     -0.0161
     27  C27       73.6900   47.9400    6.0730 C.3   390  IP7390      0.0856
     28  C28       74.2930   47.4450    4.8410 C.2   390  IP7390      0.0045
     29  C29       73.3020   47.0690    4.0120 C.2   390  IP7390      0.0946
     30  N30       72.0920   47.2820    4.5890 N.2   390  IP7390     -0.2478
     31  C31       72.2850   47.8090    5.8700 C.2   390  IP7390      0.0668
     32  C32       71.4230   48.2120    6.9000 C.2   390  IP7390      0.0153
@<TRIPOS>BOND
     1    29    30    1
     2    29    28    2
     3    30    31    2
     4    28    27    1
     5    31    27    1
     6    31    32    1
     7     1     2    1
     8    27    26    1
     9    32    24    2
    10     2     3   ar
    11     2     7   ar
    12    26    25    2
    13     3     4   ar
    14    24    25    1
    15    24    12    1
    16     8     7    1
    17     8     9    1
    18     7     6   ar
    19     4     5   ar
    20    11    12   ar
    21    11    10   ar
    22    12    13   ar
    23     9    10    1
    24     6     5   ar
    25    10    15   ar
    26    13    14   ar
    27    22    21   ar
    28    22    23   ar
    29    21    20   ar
    30    15    14   ar
    31    15    16    1
    32    23    18   ar
    33    20    19   ar
    34    18    19   ar
    35    18    17    1
    36    16    17    1
