@<TRIPOS>MOLECULE
2ohv_NHL_A_1.pdb
 21 22 0 0 0
SMALL
GASTEIGER

@<TRIPOS>ATOM
      1  C8        36.2470   32.8940   68.4700 C.ar  400  NHL400     -0.0043
      2  C7        34.9780   32.3740   68.0820 C.ar  400  NHL400     -0.0003
      3  C3        33.9610   32.1660   69.0540 C.ar  400  NHL400     -0.0000
      4  C2        32.6940   31.6490   68.6630 C.ar  400  NHL400     -0.0000
      5  C1        31.6820   31.4440   69.6360 C.ar  400  NHL400     -0.0000
      6  C6        31.9310   31.7550   71.0100 C.ar  400  NHL400     -0.0000
      7  C5        33.2000   32.2750   71.4190 C.ar  400  NHL400     -0.0000
      8  C4        34.2260   32.4860   70.4540 C.ar  400  NHL400     -0.0003
      9  C10       35.5000   33.0080   70.8410 C.ar  400  NHL400     -0.0043
     10  C9        36.5170   33.2200   69.8520 C.ar  400  NHL400     -0.0216
     11  C11       37.8870   33.7850   70.2440 C.3   400  NHL400      0.0376
     12  CG        38.0840   35.2250   69.6560 C.3   400  NHL400      0.1097
     13  CD        39.4530   35.3250   68.9520 C.2   400  NHL400      0.3647
     14  OE2       39.5110   35.2990   67.6190 O.co2 400  NHL400     -0.2457
     15  OE1       40.5100   35.4340   69.5830 O.co2 400  NHL400     -0.2457
     16  CB        37.9710   36.3020   70.7970 C.3   400  NHL400      0.0422
     17  CA        38.1470   37.7960   70.4170 C.3   400  NHL400      0.1949
     18  N         37.2920   38.1220   69.2290 N.3   400  NHL400     -0.1208
     19  C         37.7820   38.6400   71.6250 C.2   400  NHL400      0.3819
     20  OXT       38.5120   38.7260   72.5890 O.co2 400  NHL400     -0.2441
     21  O         36.6110   39.2780   71.5890 O.co2 400  NHL400     -0.2441
@<TRIPOS>BOND
     1    14    13   ar
     2     2     1   ar
     3     2     3   ar
     4     1    10   ar
     5     4     3   ar
     6     4     5   ar
     7    13    15   ar
     8    13    12    1
     9     3     8   ar
    10    18    17    1
    11     5     6   ar
    12    12    11    1
    13    12    16    1
    14    10    11    1
    15    10     9   ar
    16    17    16    1
    17    17    19    1
    18     8     9   ar
    19     8     7   ar
    20     6     7   ar
    21    21    19   ar
    22    19    20   ar
