@<TRIPOS>MOLECULE
2ohx_NAD_A_1.pdb
 44 48 0 0 0
SMALL
GASTEIGER

@<TRIPOS>ATOM
      1  PA        -1.1040   17.2400   18.2720 P.3   403  NAD403      0.2189
      2  O1A       -0.8320   18.3740   19.1550 O.3   403  NAD403     -0.4371
      3  O2A       -2.1390   16.2670   18.6290 O.2   403  NAD403     -0.5170
      4  O5B       -1.4800   17.7740   16.8040 O.3   403  NAD403     -0.3112
      5  C5B       -2.0510   16.9110   15.8510 C.3   403  NAD403      0.1813
      6  C4B       -2.8690   17.8770   15.0210 C.3   403  NAD403      0.1821
      7  O4B       -3.3630   17.1450   13.9080 O.3   403  NAD403     -0.3135
      8  C3B       -4.0760   18.4220   15.7640 C.3   403  NAD403      0.2184
      9  O3B       -4.1630   19.8460   15.6070 O.3   403  NAD403     -0.2174
     10  C2B       -5.2310   17.7050   15.1140 C.3   403  NAD403      0.2570
     11  O2B       -6.4140   18.5100   15.1070 O.3   403  NAD403     -0.2130
     12  C1B       -4.7280   17.5040   13.7140 C.3   403  NAD403      0.3186
     13  N9A       -5.4100   16.4630   12.9190 N.pl3 403  NAD403     -0.1439
     14  C8A       -5.8890   15.2880   13.3390 C.3   403  NAD403      0.3377
     15  N7A       -6.4680   14.6090   12.3330 N.2   403  NAD403     -0.2095
     16  C5A       -6.3380   15.4180   11.3080 C.2   403  NAD403      0.2526
     17  C6A       -6.8440   15.1290   10.0550 C.2   403  NAD403      0.4393
     18  N6A       -7.3410   13.9330    9.7820 N.pl3 403  NAD403      0.2180
     19  N1A       -6.6340   16.0730    9.1390 N.2   403  NAD403      0.0021
     20  C2A       -5.9910   17.1930    9.4250 C.3   403  NAD403      0.5254
     21  N3A       -5.5120   17.4800   10.6370 N.2   403  NAD403     -0.0055
     22  C4A       -5.6820   16.5810   11.6040 C.2   403  NAD403      0.3518
     23  O3         0.2800   16.4790   18.0000 O.3   403  NAD403     -0.2703
     24  PN         1.8300   16.8860   18.0510 P.3   403  NAD403      0.2189
     25  O1N        2.2930   16.7480   19.4390 O.3   403  NAD403     -0.4371
     26  O2N        2.0490   18.1440   17.3050 O.2   403  NAD403     -0.5170
     27  O5D        2.4820   15.6810   17.2200 O.3   403  NAD403     -0.3112
     28  C5D        2.1070   15.5020   15.8380 C.3   403  NAD403      0.1813
     29  C4D        2.5980   14.1590   15.3290 C.3   403  NAD403      0.1799
     30  O4D        4.0240   14.1760   15.2860 O.3   403  NAD403     -0.3327
     31  C3D        2.2290   13.0160   16.2550 C.3   403  NAD403      0.2158
     32  O3D        1.9950   11.8300   15.4960 O.3   403  NAD403     -0.2175
     33  C2D        3.4840   12.8180   17.0900 C.3   403  NAD403      0.2309
     34  O2D        3.5940   11.4620   17.5400 O.3   403  NAD403     -0.2158
     35  C1D        4.5560   13.1000   16.0610 C.3   403  NAD403      0.2263
     36  N1N        5.9120   13.4430   16.5410 N.pl3 403  NAD403     -0.2787
     37  C2N        6.9750   12.9570   15.7940 C.3   403  NAD403      0.1244
     38  C3N        8.2700   13.2920   16.1170 C.2   403  NAD403      0.0544
     39  C7N        9.4360   12.8050   15.2560 C.2   403  NAD403      0.2818
     40  O7N       10.5420   12.7800   15.7860 O.2   403  NAD403     -0.2670
     41  N7N        9.1810   12.4710   13.9850 N.am  403  NAD403     -0.0839
     42  C4N        8.5130   14.1120   17.2220 C.2   403  NAD403      0.0033
     43  C5N        7.4480   14.6680   17.9300 C.2   403  NAD403      0.0157
     44  C6N        6.1340   14.3380   17.5890 C.2   403  NAD403      0.0633
@<TRIPOS>BOND
     1    19    20    1
     2    19    17    2
     3    20    21    1
     4    18    17    1
     5    17    16    1
     6    21    22    2
     7    16    22    1
     8    16    15    2
     9    22    13    1
    10    15    14    1
    11    13    14    1
    12    13    12    1
    13    12     7    1
    14    12    10    1
    15     7     6    1
    16    41    39   am
    17     6     8    1
    18     6     5    1
    19    11    10    1
    20    10     8    1
    21    39    40    2
    22    39    38    1
    23    30    29    1
    24    30    35    1
    25    29    28    1
    26    29    31    1
    27    32    31    1
    28     9     8    1
    29    37    38    1
    30    37    36    1
    31    28    27    1
    32     5     4    1
    33    35    36    1
    34    35    33    1
    35    38    42    2
    36    31    33    1
    37    36    44    1
    38     4     1    1
    39    33    34    1
    40    27    24    1
    41    42    43    1
    42    26    24    2
    43    44    43    2
    44    23    24    1
    45    23     1    1
    46    24    25    1
    47     1     3    2
    48     1     2    1
