@<TRIPOS>MOLECULE
2oi0_283_A_1.pdb
 20 21 0 0 0
SMALL
GASTEIGER

@<TRIPOS>ATOM
      1  C         46.0850   28.4790    2.5260 C.ar    1  2831        0.0383
      2  C1        45.1140   28.8150    1.5370 C.ar    1  2831        0.0230
      3  C2        43.3680   28.5170    3.1750 C.ar    1  2831        0.0230
      4  C3        44.3110   28.1830    4.1440 C.ar    1  2831        0.0383
      5  C4        45.6660   28.1620    3.8390 C.ar    1  2831        0.1401
      6  O         46.4720   27.8170    4.9230 O.3     1  2831       -0.4612
      7  C5        47.9140   27.7740    4.7600 C.3     1  2831        0.2811
      8  C6        48.5850   23.9670    3.0390 C.3     1  2831        0.0901
      9  C7        48.4120   25.3010    3.6900 C.1     1  2831       -0.0864
     10  C8        48.2690   26.3640    4.1920 C.1     1  2831       -0.0439
     11  C9        43.7530   28.8330    1.8840 C.ar    1  2831        0.1224
     12  O1        42.9950   28.7670   -0.4940 O.2     1  2831       -0.1528
     13  O2        41.1530   28.7870    1.1990 O.2     1  2831       -0.1528
     14  S         42.4650   29.2650    0.7610 S.O2    1  2831        0.0633
     15  C10       40.8840   31.5860    0.4110 C.3     1  2831        0.0968
     16  N         42.2240   31.0160    0.7550 N.3     1  2831       -0.1546
     17  C11       42.4910   31.6260    2.0950 C.3     1  2831        0.1074
     18  C12       41.2000   31.4320    2.8880 C.3     1  2831        0.0771
     19  S1        41.1580   31.9760    4.5860 S.3     1  2831       -0.0815
     20  C13       40.2900   31.9010    1.7620 C.3     1  2831        0.0322
@<TRIPOS>BOND
     1    12    14    2
     2    15    16    1
     3    15    20    1
     4    16    14    1
     5    16    17    1
     6    14    13    2
     7    14    11    1
     8     2    11   ar
     9     2     1   ar
    10    20    18    1
    11    11     3   ar
    12    17    18    1
    13     1     5   ar
    14    18    19    1
    15     8     9    1
    16     3     4   ar
    17     9    10    3
    18     5     4   ar
    19     5     6    1
    20    10     7    1
    21     7     6    1
