@<TRIPOS>MOLECULE
2oi2_DP6_A_1.pdb
 18 17 0 0 0
SMALL
GASTEIGER

@<TRIPOS>ATOM
      1  C3A       23.8130   24.3380   48.1870 C.3   300  DP6300      0.0336
      2  O1A       28.9100   25.3620   44.8130 O.2   300  DP6300     -0.5169
      3  O2A       30.5640   24.6070   46.5870 O.3   300  DP6300     -0.4370
      4  O3A       24.0170   26.6940   48.6580 O.3   300  DP6300     -0.2250
      5  O1B       30.0680   23.1690   43.3480 O.2   300  DP6300     -0.2221
      6  O2B       28.4440   21.2480   43.8330 O.3   300  DP6300     -0.1143
      7  O3B       30.7460   21.2920   44.9820 O.3   300  DP6300     -0.1143
      8  PB        29.5870   22.2300   44.3830 P.3   300  DP6300      0.5373
      9  O6        28.9170   22.9730   45.6440 O.3   300  DP6300     -0.2261
     10  PA        29.2060   24.5170   45.9900 P.3   300  DP6300      0.2230
     11  O5        28.1140   24.7690   47.1410 O.3   300  DP6300     -0.3137
     12  C5        26.7190   24.8400   46.8300 C.3   300  DP6300      0.1517
     13  C4        25.9960   25.5110   48.0010 C.3   300  DP6300      0.0635
     14  C3        24.4870   25.6550   47.7970 C.3   300  DP6300      0.1399
     15  C2        24.1650   26.0030   46.3370 C.3   300  DP6300      0.1444
     16  C1        24.5670   27.4180   45.8990 C.2   300  DP6300      0.3674
     17  O1        25.0580   27.6210   44.7910 O.co2 300  DP6300     -0.2456
     18  O2        24.3840   28.3740   46.6430 O.co2 300  DP6300     -0.2456
@<TRIPOS>BOND
     1     5     8    2
     2     6     8    1
     3     8     7    1
     4     8     9    1
     5    17    16   ar
     6     2    10    2
     7     9    10    1
     8    16    15    1
     9    16    18   ar
    10    10     3    1
    11    10    11    1
    12    15    14    1
    13    12    11    1
    14    12    13    1
    15    14    13    1
    16    14     1    1
    17    14     4    1
