@<TRIPOS>MOLECULE
2oi4_JM1_X_1.pdb
 31 37 0 0 0
SMALL
GASTEIGER

@<TRIPOS>ATOM
      1  F29      -23.8850  -38.5400   -4.6370 F     1000  JM11000     0.0000
      2  C20      -23.5000  -37.4190   -3.8080 C.2   1000  JM11000     0.0000
      3  C21      -23.5730  -37.5810   -2.4180 C.2   1000  JM11000     0.0000
      4  C29      -23.2190  -36.4780   -1.6580 C.ar  1000  JM11000     0.0000
      5  C4       -23.2240  -36.4190   -0.2470 C.ar  1000  JM11000     0.0000
      6  C8       -23.5670  -37.4040    0.7020 C.1   1000  JM11000     0.0000
      7  O9       -24.0160  -38.5260    0.4540 O.2   1000  JM11000     0.0000
      8  N7       -23.4930  -36.8910    1.9780 N.2   1000  JM11000     0.0000
      9  C5       -23.1010  -35.5830    1.7960 C.1   1000  JM11000     0.0000
     10  O6       -22.9520  -34.8420    2.7060 O.2   1000  JM11000     0.0000
     11  C19      -23.1200  -36.2700   -4.4700 C.2   1000  JM11000     0.0000
     12  N18      -22.7940  -35.1930   -3.7290 N.pl3 1000  JM11000     0.0000
     13 RU12      -22.2710  -33.3290   -4.3910 Ru    1000  JM11000     0.0000
     14  C11      -20.3310  -33.6590   -4.6590 C.3   1000  JM11000     0.0000
     15  O10      -19.2980  -33.9490   -4.7780 O.3   1000  JM11000     0.0000
     16  C17      -23.8160  -31.8550   -4.6800 C.2   1000  JM11000     0.0000
     17  C16      -24.0970  -32.9680   -5.4720 C.2   1000  JM11000     0.0000
     18  C15      -23.0540  -33.1590   -6.3870 C.2   1000  JM11000     0.0000
     19  C14      -22.1310  -32.1580   -6.1620 C.2   1000  JM11000     0.0000
     20  C13      -22.5760  -31.3610   -5.1060 C.3   1000  JM11000     0.0000
     21  N22      -22.1410  -33.0960   -2.3380 N.pl3 1000  JM11000     0.0000
     22  C31      -22.5340  -34.2030   -1.6350 C.ar  1000  JM11000     0.0000
     23  C12      -22.8600  -35.3320   -2.3470 C.ar  1000  JM11000     0.0000
     24  C30      -22.4840  -34.0780   -0.2510 C.ar  1000  JM11000     0.0000
     25  C3       -22.8760  -35.2530    0.4490 C.ar  1000  JM11000     0.0000
     26  C24      -22.0810  -32.7480   -0.0180 C.2   1000  JM11000     0.0000
     27  C23      -21.8950  -32.1530   -1.2940 C.3   1000  JM11000     0.0000
     28  C28      -21.4680  -30.8380   -1.4190 C.2   1000  JM11000     0.0000
     29  C27      -21.2650  -30.1370   -0.2460 C.2   1000  JM11000     0.0000
     30  C26      -21.3940  -30.6820    1.0310 C.2   1000  JM11000     0.0000
     31  C25      -21.8350  -32.0050    1.1600 C.2   1000  JM11000     0.0000
@<TRIPOS>BOND
     1    18    19    2
     2    18    17    1
     3    19    20    1
     4    17    16    2
     5    20    16    1
     6    20    13    1
     7    15    14    1
     8    14    13    1
     9     1     2    1
    10    11     2    2
    11    11    12    1
    12    13    12    1
    13    13    21    1
    14     2     3    1
    15    12    23    1
    16     3     4    2
    17    23     4   ar
    18    23    22   ar
    19    21    22    1
    20    21    27    1
    21     4     5   ar
    22    22    24   ar
    23    28    27    1
    24    28    29    2
    25    27    26    1
    26    24    26    2
    27    24    25   ar
    28     5    25   ar
    29     5     6    1
    30    29    30    1
    31    26    31    1
    32    25     9    1
    33     7     6    2
    34     6     8    2
    35    30    31    2
    36     9     8    2
    37     9    10    2
