@<TRIPOS>MOLECULE
2oi5_UD1_A_1.pdb
 39 41 0 0 0
SMALL
GASTEIGER

@<TRIPOS>ATOM
      1  C1'      -13.9540   33.7860  127.9640 C.3   4000  UD14000     0.2633
      2  C2'      -14.6500   33.7430  126.5800 C.3   4000  UD14000     0.1845
      3  C3'      -13.9050   34.6850  125.6260 C.3   4000  UD14000     0.2094
      4  C4'      -13.9140   36.0770  126.2020 C.3   4000  UD14000     0.2136
      5  C5'      -13.2050   36.0370  127.6120 C.3   4000  UD14000     0.1834
      6  C6'      -13.2500   37.3980  128.3160 C.3   4000  UD14000     0.2142
      7  C7'      -15.5070   31.4400  126.4170 C.2   4000  UD14000     0.2420
      8  C8'      -15.2850   30.0930  125.7810 C.3   4000  UD14000     0.0964
      9  N2'      -14.6380   32.3790  126.0300 N.am  4000  UD14000    -0.1992
     10  O1'      -12.6180   33.2730  127.8440 O.3   4000  UD14000    -0.2864
     11  O3'      -14.6010   34.6430  124.3670 O.3   4000  UD14000    -0.2183
     12  O4'      -13.1820   36.9500  125.3310 O.3   4000  UD14000    -0.2176
     13  O5'      -13.9140   35.1090  128.4690 O.3   4000  UD14000    -0.3260
     14  O6'      -12.4690   37.2830  129.4830 O.3   4000  UD14000    -0.2176
     15  O7'      -16.4400   31.6070  127.2130 O.2   4000  UD14000    -0.2733
     16  N1       -15.5180   29.9360  134.5000 N.am  4000  UD14000    -0.1766
     17  C2       -16.2350   29.0810  135.3240 C.1   4000  UD14000     0.2845
     18  N3       -16.2330   27.7280  135.0220 N.2   4000  UD14000    -0.2452
     19  C4       -15.5760   27.1570  133.9770 C.1   4000  UD14000     0.2182
     20  C5       -14.8060   28.0560  133.0730 C.2   4000  UD14000     0.1242
     21  C6       -14.7830   29.3950  133.3330 C.2   4000  UD14000     0.0929
     22  O2       -16.8710   29.4570  136.2960 O.2   4000  UD14000    -0.1918
     23  O4       -15.6060   25.9420  133.7740 O.2   4000  UD14000    -0.2085
     24  C1B      -15.5210   31.3800  134.7870 C.3   4000  UD14000     0.2401
     25  C2B      -14.2050   31.9800  135.3260 C.3   4000  UD14000     0.2319
     26  O2'      -14.1590   31.7970  136.7510 O.3   4000  UD14000    -0.2157
     27  C3B      -14.2770   33.4620  134.8310 C.3   4000  UD14000     0.2158
     28  C4B      -15.1390   33.3420  133.5520 C.3   4000  UD14000     0.1799
     29  O4B      -15.8230   32.1010  133.6170 O.3   4000  UD14000    -0.3320
     30  O3B      -15.0100   34.2720  135.7780 O.3   4000  UD14000    -0.2175
     31  C5B      -14.3050   33.3010  132.2280 C.3   4000  UD14000     0.1813
     32  O5B      -13.3360   32.2340  132.1720 O.3   4000  UD14000    -0.3112
     33  PA       -11.8830   32.4280  131.6230 P.3   4000  UD14000     0.2189
     34  O1A      -11.2100   31.0430  131.7480 O.2   4000  UD14000    -0.5170
     35  O2A      -11.1980   33.4610  132.4100 O.3   4000  UD14000    -0.4371
     36  O3A      -12.0420   32.9010  130.2360 O.3   4000  UD14000    -0.2703
     37  PB       -12.1360   32.2000  128.8780 P.3   4000  UD14000     0.2208
     38  O1B      -13.0730   31.0630  128.9060 O.3   4000  UD14000    -0.4371
     39  O2B      -10.7400   31.8670  128.4500 O.2   4000  UD14000    -0.5170
@<TRIPOS>BOND
     1    11     3    1
     2    12     4    1
     3     3     4    1
     4     3     2    1
     5     8     7    1
     6     9     7   am
     7     9     2    1
     8     4     5    1
     9     7    15    2
    10     2     1    1
    11     5     6    1
    12     5    13    1
    13    10     1    1
    14    10    37    1
    15     1    13    1
    16     6    14    1
    17    39    37    2
    18    37    38    1
    19    37    36    1
    20    36    33    1
    21    33    34    2
    22    33    32    1
    23    33    35    1
    24    32    31    1
    25    31    28    1
    26    20    21    2
    27    20    19    1
    28    21    16    1
    29    28    29    1
    30    28    27    1
    31    29    24    1
    32    23    19    2
    33    19    18    2
    34    16    24    1
    35    16    17   am
    36    24    25    1
    37    27    25    1
    38    27    30    1
    39    18    17    2
    40    17    22    2
    41    25    26    1
