@<TRIPOS>MOLECULE
2oi6_GP1_A_1.pdb
 16 16 0 0 0
SMALL
GASTEIGER

@<TRIPOS>ATOM
      1  C1B       -5.4320   74.1980  179.3040 C.3   5000  GP15000     0.2651
      2  C2B       -5.7800   73.0830  180.3970 C.3   5000  GP15000     0.1812
      3  C3B       -6.9800   72.2100  179.8920 C.3   5000  GP15000     0.2071
      4  C4B       -8.1940   73.1780  179.6270 C.3   5000  GP15000     0.2133
      5  C5B       -7.8290   74.3050  178.5490 C.3   5000  GP15000     0.1834
      6  C6B       -8.9870   75.3240  178.2770 C.3   5000  GP15000     0.2142
      7  N2B       -4.6110   72.1930  180.6780 N.3   5000  GP15000    -0.1247
      8  O1B       -4.9910   73.6240  178.0160 O.3   5000  GP15000    -0.2428
      9  O3B       -7.2850   71.2060  180.9160 O.3   5000  GP15000    -0.2186
     10  O4B       -9.3170   72.3900  179.1560 O.3   5000  GP15000    -0.2176
     11  O5B       -8.4780   76.6200  177.7880 O.3   5000  GP15000    -0.2176
     12  O6B       -6.6380   75.0560  179.0360 O.3   5000  GP15000    -0.3261
     13  O7B       -3.1190   75.2100  178.3150 O.3   5000  GP15000    -0.1145
     14  P4B       -3.8320   74.3180  177.3600 P.3   5000  GP15000     0.5345
     15  O8B       -2.9730   73.2180  176.8380 O.3   5000  GP15000    -0.1145
     16  O9B       -4.3170   75.1260  176.2520 O.2   5000  GP15000    -0.2223
@<TRIPOS>BOND
     1    16    14    2
     2    15    14    1
     3    14     8    1
     4    14    13    1
     5    11     6    1
     6     8     1    1
     7     6     5    1
     8     5    12    1
     9     5     4    1
    10    12     1    1
    11    10     4    1
    12     1     2    1
    13     4     3    1
    14     3     2    1
    15     3     9    1
    16     2     7    1
