@<TRIPOS>MOLECULE
2oi6_UD1_A_1.pdb
 39 41 0 0 0
SMALL
GASTEIGER

@<TRIPOS>ATOM
      1  C1'      -14.0720   33.7730  128.0850 C.3   4000  UD14000     0.2633
      2  C2'      -14.7730   33.7070  126.7000 C.3   4000  UD14000     0.1845
      3  C3'      -14.0710   34.6740  125.7330 C.3   4000  UD14000     0.2094
      4  C4'      -14.1000   36.0650  126.2960 C.3   4000  UD14000     0.2136
      5  C5'      -13.3530   36.0490  127.6900 C.3   4000  UD14000     0.1834
      6  C6'      -13.3930   37.4270  128.3700 C.3   4000  UD14000     0.2142
      7  C7'      -15.6070   31.4280  126.5380 C.2   4000  UD14000     0.2420
      8  C8'      -15.5060   30.0890  125.8450 C.3   4000  UD14000     0.0964
      9  N2'      -14.7470   32.3300  126.1450 N.am  4000  UD14000    -0.1992
     10  O1'      -12.7320   33.3140  127.9650 O.3   4000  UD14000    -0.2864
     11  O3'      -14.7710   34.6130  124.4820 O.3   4000  UD14000    -0.2183
     12  O4'      -13.4290   36.9520  125.3920 O.3   4000  UD14000    -0.2176
     13  O5'      -14.0470   35.0950  128.5760 O.3   4000  UD14000    -0.3260
     14  O6'      -12.7230   37.3270  129.6090 O.3   4000  UD14000    -0.2176
     15  O7'      -16.4540   31.6200  127.4070 O.2   4000  UD14000    -0.2733
     16  N1       -15.5980   29.9860  134.5970 N.am  4000  UD14000    -0.1766
     17  C2       -16.3590   29.1060  135.3800 C.1   4000  UD14000     0.2845
     18  N3       -16.2980   27.7500  135.0660 N.2   4000  UD14000    -0.2452
     19  C4       -15.5890   27.2260  134.0300 C.1   4000  UD14000     0.2182
     20  C5       -14.7860   28.1470  133.1770 C.2   4000  UD14000     0.1242
     21  C6       -14.7920   29.4770  133.4490 C.2   4000  UD14000     0.0929
     22  O2       -17.0400   29.4660  136.3340 O.2   4000  UD14000    -0.1918
     23  O4       -15.5770   26.0200  133.8200 O.2   4000  UD14000    -0.2085
     24  C1B      -15.6400   31.4130  134.9110 C.3   4000  UD14000     0.2401
     25  C2B      -14.3230   32.0150  135.4720 C.3   4000  UD14000     0.2319
     26  O2'      -14.2620   31.8080  136.8920 O.3   4000  UD14000    -0.2157
     27  C3B      -14.4160   33.4820  135.0060 C.3   4000  UD14000     0.2158
     28  C4B      -15.2640   33.3440  133.7080 C.3   4000  UD14000     0.1799
     29  O4B      -15.9480   32.1160  133.7680 O.3   4000  UD14000    -0.3320
     30  O3B      -15.1950   34.2420  135.9400 O.3   4000  UD14000    -0.2175
     31  C5B      -14.4270   33.2480  132.4240 C.3   4000  UD14000     0.1813
     32  O5B      -13.3690   32.2620  132.4960 O.3   4000  UD14000    -0.3112
     33  PA       -11.9760   32.4630  131.8020 P.3   4000  UD14000     0.2189
     34  O1A      -11.2950   31.0900  131.8710 O.2   4000  UD14000    -0.5170
     35  O2A      -11.2260   33.5070  132.5260 O.3   4000  UD14000    -0.4371
     36  O3A      -12.2430   32.9460  130.4030 O.3   4000  UD14000    -0.2703
     37  PB       -12.2440   32.2590  129.0160 P.3   4000  UD14000     0.2208
     38  O1B      -13.1450   31.1190  128.9970 O.3   4000  UD14000    -0.4371
     39  O2B      -10.8290   31.9990  128.6130 O.2   4000  UD14000    -0.5170
@<TRIPOS>BOND
     1    11     3    1
     2    12     4    1
     3     3     4    1
     4     3     2    1
     5     8     7    1
     6     9     7   am
     7     9     2    1
     8     4     5    1
     9     7    15    2
    10     2     1    1
    11     5     6    1
    12     5    13    1
    13    10     1    1
    14    10    37    1
    15     1    13    1
    16     6    14    1
    17    39    37    2
    18    38    37    1
    19    37    36    1
    20    36    33    1
    21    33    34    2
    22    33    32    1
    23    33    35    1
    24    31    32    1
    25    31    28    1
    26    20    21    2
    27    20    19    1
    28    21    16    1
    29    28    29    1
    30    28    27    1
    31    29    24    1
    32    23    19    2
    33    19    18    2
    34    16    24    1
    35    16    17   am
    36    24    25    1
    37    27    25    1
    38    27    30    1
    39    18    17    2
    40    17    22    2
    41    25    26    1
