@<TRIPOS>MOLECULE
2oi6_COA_A_1.pdb
 48 50 0 0 0
SMALL
GASTEIGER

@<TRIPOS>ATOM
      1  N1A       -5.2900   66.6750  202.5460 N.2   2000  COA2000     0.0021
      2  C2A       -6.3470   67.5630  202.6860 C.3   2000  COA2000     0.5254
      3  N3A       -6.3230   68.8820  202.4780 N.2   2000  COA2000    -0.0055
      4  C4A       -5.0590   69.3200  202.0530 C.2   2000  COA2000     0.3518
      5  C5A       -3.8860   68.5690  201.8690 C.2   2000  COA2000     0.2526
      6  C6A       -4.0470   67.1320  202.1180 C.2   2000  COA2000     0.4393
      7  N6A       -3.0630   66.2580  201.9980 N.pl3 2000  COA2000     0.2180
      8  N7A       -2.8070   69.4200  201.4340 N.2   2000  COA2000    -0.2095
      9  C8A       -3.3320   70.6760  201.4000 C.3   2000  COA2000     0.3377
     10  N9A       -4.6580   70.6480  201.7650 N.pl3 2000  COA2000    -0.1439
     11  C1B       -5.6620   71.6830  201.8950 C.3   2000  COA2000     0.3185
     12  C2B       -5.2300   72.9020  202.7320 C.3   2000  COA2000     0.2543
     13  O2B       -5.2900   72.6580  204.2000 O.3   2000  COA2000    -0.2131
     14  C3B       -6.2380   73.9490  202.2670 C.3   2000  COA2000     0.1928
     15  O3B       -7.4320   74.0280  203.0600 O.3   2000  COA2000    -0.2673
     16  P3B       -8.1140   75.4840  203.3820 P.3   2000  COA2000     0.5327
     17  O7A       -8.3760   76.2250  202.0970 O.2   2000  COA2000    -0.2224
     18  O8A       -7.1850   76.2870  204.2400 O.3   2000  COA2000    -0.1145
     19  O9A       -9.4340   75.2510  204.1180 O.3   2000  COA2000    -0.1145
     20  C4B       -6.5630   73.5050  200.7990 C.3   2000  COA2000     0.1795
     21  O4B       -6.0640   72.1340  200.6450 O.3   2000  COA2000    -0.3136
     22  C5B       -6.0050   74.4060  199.6980 C.3   2000  COA2000     0.1812
     23  O5B       -4.5400   74.3990  199.6010 O.3   2000  COA2000    -0.3112
     24  P1A       -3.7800   75.6820  198.9000 P.3   2000  COA2000     0.2189
     25  O1A       -2.3400   75.7820  199.3600 O.3   2000  COA2000    -0.4371
     26  O2A       -4.5500   76.9230  199.3490 O.2   2000  COA2000    -0.5170
     27  O3A       -3.8700   75.4000  197.3270 O.3   2000  COA2000    -0.2703
     28  P2A       -4.9690   75.8650  196.2090 P.3   2000  COA2000     0.2188
     29  O4A       -4.5380   77.0750  195.5170 O.2   2000  COA2000    -0.5170
     30  O5A       -6.2410   76.1740  196.8910 O.3   2000  COA2000    -0.4371
     31  O6A       -4.9620   74.5790  195.2420 O.3   2000  COA2000    -0.3138
     32  CBP       -5.8310   72.3120  194.8210 C.3   2000  COA2000     0.0645
     33  CCP       -5.4980   73.3660  195.8830 C.3   2000  COA2000     0.1519
     34  CDP       -7.1000   72.7270  194.0330 C.3   2000  COA2000     0.0056
     35  CEP       -6.1590   70.9890  195.5140 C.3   2000  COA2000     0.0056
     36  CAP       -4.5800   72.2010  193.8700 C.3   2000  COA2000     0.2312
     37  OAP       -3.4050   71.8410  194.6210 O.3   2000  COA2000    -0.2131
     38  C9P       -4.8340   71.2160  192.6880 C.2   2000  COA2000     0.2719
     39  O9P       -4.7150   69.9920  192.8250 O.2   2000  COA2000    -0.2706
     40  N8P       -5.1950   71.8230  191.5440 N.am  2000  COA2000    -0.2028
     41  C7P       -5.5250   71.1510  190.2920 C.3   2000  COA2000     0.1248
     42  C6P       -4.6210   71.6170  189.1580 C.3   2000  COA2000     0.1102
     43  C5P       -4.8430   70.7440  187.8260 C.2   2000  COA2000     0.2432
     44  O5P       -4.4820   69.5750  187.7780 O.2   2000  COA2000    -0.2733
     45  N4P       -5.4420   71.4700  186.8080 N.am  2000  COA2000    -0.2044
     46  C3P       -5.8060   71.0520  185.3640 C.3   2000  COA2000     0.1276
     47  C2P       -5.0520   71.9660  184.3370 C.3   2000  COA2000     0.0920
     48  S1P       -3.4300   71.4250  183.5200 S.3   2000  COA2000    -0.0802
@<TRIPOS>BOND
     1    48    47    1
     2    47    46    1
     3    46    45    1
     4    45    43   am
     5    44    43    2
     6    43    42    1
     7    42    41    1
     8    41    40    1
     9    40    38   am
    10    38    39    2
    11    38    36    1
    12    36    37    1
    13    36    32    1
    14    34    32    1
    15    32    35    1
    16    32    33    1
    17    31    33    1
    18    31    28    1
    19    29    28    2
    20    28    30    1
    21    28    27    1
    22    27    24    1
    23    24    26    2
    24    24    25    1
    25    24    23    1
    26    23    22    1
    27    22    20    1
    28    21    20    1
    29    21    11    1
    30    20    14    1
    31     9     8    1
    32     9    10    1
    33     8     5    2
    34    10    11    1
    35    10     4    1
    36     5     4    1
    37     5     6    1
    38    11    12    1
    39     7     6    1
    40     4     3    2
    41    17    16    2
    42     6     1    2
    43    14    12    1
    44    14    15    1
    45     3     2    1
    46     1     2    1
    47    12    13    1
    48    15    16    1
    49    16    19    1
    50    16    18    1
