@<TRIPOS>MOLECULE
2oi7_GN1_A_1.pdb
 19 19 0 0 0
SMALL
GASTEIGER

@<TRIPOS>ATOM
      1  C1'       -5.2010   73.4960  179.6170 C.3   5000  GN15000     0.2675
      2  OP1       -5.2630   74.9760  176.6680 O.3   5000  GN15000    -0.1145
      3  P         -4.0360   74.2820  177.3270 P.3   5000  GN15000     0.5345
      4  OP2       -3.1180   75.2380  177.9850 O.3   5000  GN15000    -0.1145
      5  OP3       -3.3970   73.4870  176.2730 O.2   5000  GN15000    -0.2223
      6  C2'       -5.6730   72.1840  180.3340 C.3   5000  GN15000     0.1846
      7  C3'       -6.8550   71.4790  179.5450 C.3   5000  GN15000     0.2094
      8  C4'       -8.0200   72.4760  179.4520 C.3   5000  GN15000     0.2136
      9  C5'       -7.5190   73.8150  178.6630 C.3   5000  GN15000     0.1834
     10  C6'       -8.6150   74.8990  178.5100 C.3   5000  GN15000     0.2142
     11  C8'       -3.1080   69.5850  181.5210 C.3   5000  GN15000     0.0964
     12  O1'       -4.5290   73.1690  178.3630 O.3   5000  GN15000    -0.2425
     13  O3'       -7.2940   70.2300  180.2560 O.3   5000  GN15000    -0.2183
     14  O4'       -9.1170   71.8500  178.7530 O.3   5000  GN15000    -0.2176
     15  O5'       -6.3440   74.4200  179.3880 O.3   5000  GN15000    -0.3259
     16  N2'       -4.4830   71.2830  180.5040 N.am  5000  GN15000    -0.1992
     17  C7'       -4.3970   70.3970  181.4960 C.2   5000  GN15000     0.2420
     18  O6'       -8.0330   76.0250  177.8390 O.3   5000  GN15000    -0.2176
     19  O7'       -5.2970   70.2300  182.3710 O.2   5000  GN15000    -0.2733
@<TRIPOS>BOND
     1     5     3    2
     2     2     3    1
     3     3     4    1
     4     3    12    1
     5    18    10    1
     6    12     1    1
     7    10     9    1
     8     9    15    1
     9     9     8    1
    10    14     8    1
    11    15     1    1
    12     8     7    1
    13     7    13    1
    14     7     6    1
    15     1     6    1
    16     6    16    1
    17    16    17   am
    18    17    11    1
    19    17    19    2
