@<TRIPOS>MOLECULE
2oi7_UD1_A_1.pdb
 39 41 0 0 0
SMALL
GASTEIGER

@<TRIPOS>ATOM
      1  C1'      -14.2200   33.7740  127.9370 C.3   4000  UD14000     0.2633
      2  C2'      -14.9170   33.6900  126.5520 C.3   4000  UD14000     0.1845
      3  C3'      -14.1470   34.5950  125.5820 C.3   4000  UD14000     0.2094
      4  C4'      -14.1370   36.0240  126.1110 C.3   4000  UD14000     0.2136
      5  C5'      -13.4250   36.0440  127.5070 C.3   4000  UD14000     0.1834
      6  C6'      -13.4140   37.4470  128.1250 C.3   4000  UD14000     0.2142
      7  C7'      -15.7400   31.3910  126.5790 C.2   4000  UD14000     0.2420
      8  C8'      -15.4400   29.9920  126.1920 C.3   4000  UD14000     0.0964
      9  N2'      -14.9450   32.2950  126.0480 N.am  4000  UD14000    -0.1992
     10  O1'      -12.8970   33.2160  127.8290 O.3   4000  UD14000    -0.2864
     11  O3'      -14.8060   34.5120  124.3150 O.3   4000  UD14000    -0.2183
     12  O4'      -13.4160   36.8600  125.2190 O.3   4000  UD14000    -0.2176
     13  O5'      -14.1440   35.1490  128.3980 O.3   4000  UD14000    -0.3260
     14  O6'      -12.9620   37.3430  129.4740 O.3   4000  UD14000    -0.2176
     15  O7'      -16.6820   31.6430  127.3410 O.2   4000  UD14000    -0.2733
     16  N1       -15.6370   29.8960  134.6160 N.am  4000  UD14000    -0.1766
     17  C2       -16.4590   29.0310  135.3570 C.1   4000  UD14000     0.2845
     18  N3       -16.4510   27.7130  135.0170 N.2   4000  UD14000    -0.2452
     19  C4       -15.7330   27.1650  134.0260 C.1   4000  UD14000     0.2182
     20  C5       -14.8660   28.0480  133.2240 C.2   4000  UD14000     0.1242
     21  C6       -14.8230   29.3650  133.5110 C.2   4000  UD14000     0.0929
     22  O2       -17.1710   29.3550  136.2840 O.2   4000  UD14000    -0.1918
     23  O4       -15.7900   25.9590  133.7980 O.2   4000  UD14000    -0.2085
     24  C1B      -15.6000   31.3410  134.9360 C.3   4000  UD14000     0.2401
     25  C2B      -14.2620   31.9150  135.4650 C.3   4000  UD14000     0.2319
     26  O2'      -14.1300   31.6420  136.8720 O.3   4000  UD14000    -0.2157
     27  C3B      -14.3710   33.4080  135.0830 C.3   4000  UD14000     0.2158
     28  C4B      -15.2600   33.3670  133.8190 C.3   4000  UD14000     0.1799
     29  O4B      -15.9270   32.1210  133.8020 O.3   4000  UD14000    -0.3320
     30  O3B      -15.0780   34.0990  136.1190 O.3   4000  UD14000    -0.2175
     31  C5B      -14.4750   33.4350  132.4830 C.3   4000  UD14000     0.1813
     32  O5B      -13.7410   32.2510  132.1410 O.3   4000  UD14000    -0.3112
     33  PA       -12.2500   32.2740  131.6630 P.3   4000  UD14000     0.2189
     34  O1A      -11.7760   30.8390  131.7860 O.2   4000  UD14000    -0.5170
     35  O2A      -11.4840   33.1990  132.5420 O.3   4000  UD14000    -0.4371
     36  O3A      -12.2830   32.7970  130.2580 O.3   4000  UD14000    -0.2703
     37  PB       -12.4160   32.1240  128.8700 P.3   4000  UD14000     0.2208
     38  O1B      -13.3790   30.9900  128.9150 O.3   4000  UD14000    -0.4371
     39  O2B      -11.0510   31.7530  128.3780 O.2   4000  UD14000    -0.5170
@<TRIPOS>BOND
     1    11     3    1
     2    12     4    1
     3     3     4    1
     4     3     2    1
     5     9     2    1
     6     9     7   am
     7     4     5    1
     8     8     7    1
     9     2     1    1
    10     7    15    2
    11     5     6    1
    12     5    13    1
    13    10     1    1
    14    10    37    1
    15     1    13    1
    16     6    14    1
    17    39    37    2
    18    37    38    1
    19    37    36    1
    20    36    33    1
    21    33    34    2
    22    33    32    1
    23    33    35    1
    24    32    31    1
    25    31    28    1
    26    20    21    2
    27    20    19    1
    28    21    16    1
    29    23    19    2
    30    29    28    1
    31    29    24    1
    32    28    27    1
    33    19    18    2
    34    16    24    1
    35    16    17   am
    36    24    25    1
    37    18    17    2
    38    27    25    1
    39    27    30    1
    40    17    22    2
    41    25    26    1
