@<TRIPOS>MOLECULE
2oi7_DCA_A_1.pdb
 47 49 0 0 0
SMALL
GASTEIGER

@<TRIPOS>ATOM
      1  N1A       -4.4710   66.8680  202.3900 N.2   2000  DCA2000     0.0021
      2  C2A       -5.7420   67.4590  202.5920 C.3   2000  DCA2000     0.5254
      3  N3A       -6.1370   68.6670  202.1590 N.2   2000  DCA2000    -0.0055
      4  C4A       -5.0870   69.3630  201.4220 C.2   2000  DCA2000     0.3518
      5  C5A       -3.7650   68.9290  201.1120 C.2   2000  DCA2000     0.2526
      6  C6A       -3.4420   67.5810  201.6500 C.2   2000  DCA2000     0.4393
      7  N6A       -2.2350   67.0010  201.4690 N.pl3 2000  DCA2000     0.2180
      8  N7A       -3.0390   69.9710  200.3250 N.2   2000  DCA2000    -0.2095
      9  C8A       -3.9690   71.0180  200.1890 C.3   2000  DCA2000     0.3377
     10  N9A       -5.1850   70.6590  200.8300 N.pl3 2000  DCA2000    -0.1439
     11  C1B       -6.5090   71.3280  201.0120 C.3   2000  DCA2000     0.3185
     12  C2B       -6.6660   71.9970  202.4160 C.3   2000  DCA2000     0.2543
     13  O2B       -7.7590   71.4130  203.2580 O.3   2000  DCA2000    -0.2131
     14  C3B       -6.9370   73.4940  202.1150 C.3   2000  DCA2000     0.1928
     15  O3B       -8.3130   73.9250  202.4900 O.3   2000  DCA2000    -0.2673
     16  P3B       -8.5570   75.4560  203.0500 P.3   2000  DCA2000     0.5327
     17  O7A       -8.5760   76.4180  201.7920 O.2   2000  DCA2000    -0.2224
     18  O8A       -7.3120   75.7690  203.9840 O.3   2000  DCA2000    -0.1145
     19  O9A       -9.9350   75.5350  203.8750 O.3   2000  DCA2000    -0.1145
     20  C4B       -6.7350   73.6270  200.5590 C.3   2000  DCA2000     0.1795
     21  O4B       -6.7750   72.2780  199.9900 O.3   2000  DCA2000    -0.3136
     22  C5B       -5.4650   74.3720  200.0970 C.3   2000  DCA2000     0.1812
     23  O5B       -5.5290   74.8480  198.7260 O.3   2000  DCA2000    -0.3112
     24  P1A       -4.3630   75.9590  198.2260 P.3   2000  DCA2000     0.2189
     25  O1A       -4.1290   77.1030  199.2890 O.3   2000  DCA2000    -0.4371
     26  O2A       -2.9660   75.2270  197.9700 O.2   2000  DCA2000    -0.5170
     27  O3A       -5.1190   76.4700  196.8510 O.3   2000  DCA2000    -0.2703
     28  P2A       -4.7780   76.1460  195.1920 P.3   2000  DCA2000     0.2188
     29  O4A       -3.3030   75.5760  195.1040 O.3   2000  DCA2000    -0.4371
     30  O5A       -4.9230   77.4800  194.3270 O.2   2000  DCA2000    -0.5170
     31  O6A       -5.9770   74.9740  194.9320 O.3   2000  DCA2000    -0.3138
     32  CBP       -5.9390   72.3670  194.6470 C.3   2000  DCA2000     0.0645
     33  CCP       -5.6630   73.6160  195.5880 C.3   2000  DCA2000     0.1519
     34  CDP       -6.1380   71.0840  195.4880 C.3   2000  DCA2000     0.0056
     35  CEP       -7.2150   72.5570  193.7690 C.3   2000  DCA2000     0.0056
     36  CAP       -4.6760   72.2350  193.7410 C.3   2000  DCA2000     0.2312
     37  OAP       -3.5280   71.8650  194.5400 O.3   2000  DCA2000    -0.2131
     38  C9P       -4.8540   71.2500  192.5270 C.2   2000  DCA2000     0.2719
     39  O9P       -4.6750   70.0190  192.6340 O.2   2000  DCA2000    -0.2706
     40  N8P       -5.2000   71.8300  191.3680 N.am  2000  DCA2000    -0.2028
     41  C7P       -5.4010   71.0720  190.0870 C.3   2000  DCA2000     0.1248
     42  C6P       -4.1850   71.2080  189.1200 C.3   2000  DCA2000     0.1102
     43  C5P       -4.4030   70.5540  187.6740 C.2   2000  DCA2000     0.2432
     44  O5P       -4.8160   69.3570  187.4990 O.2   2000  DCA2000    -0.2733
     45  N4P       -4.1070   71.4370  186.6690 N.am  2000  DCA2000    -0.2054
     46  C3P       -4.2210   71.1550  185.1640 C.3   2000  DCA2000     0.1152
     47  C2P       -3.8810   72.3910  184.2940 C.3   2000  DCA2000     0.0252
@<TRIPOS>BOND
     1    47    46    1
     2    46    45    1
     3    45    43   am
     4    44    43    2
     5    43    42    1
     6    42    41    1
     7    41    40    1
     8    40    38   am
     9    38    39    2
    10    38    36    1
    11    36    37    1
    12    36    32    1
    13    35    32    1
    14    30    28    2
    15    32    34    1
    16    32    33    1
    17    31    28    1
    18    31    33    1
    19    29    28    1
    20    28    27    1
    21    27    24    1
    22    26    24    2
    23    24    23    1
    24    24    25    1
    25    23    22    1
    26    21    20    1
    27    21    11    1
    28    22    20    1
    29     9     8    1
    30     9    10    1
    31     8     5    2
    32    20    14    1
    33    10    11    1
    34    10     4    1
    35    11    12    1
    36     5     4    1
    37     5     6    1
    38     4     3    2
    39     7     6    1
    40     6     1    2
    41    17    16    2
    42    14    12    1
    43    14    15    1
    44     3     2    1
    45     1     2    1
    46    12    13    1
    47    15    16    1
    48    16    19    1
    49    16    18    1
