@<TRIPOS>MOLECULE
2oic_STU_A_1.pdb
 35 42 0 0 0
SMALL
GASTEIGER

@<TRIPOS>ATOM
      1  O4       -19.2060   12.5950   -3.9270 O.3     1  STU1       -0.3186
      2  C25      -19.4840   11.9690   -5.1960 C.3     1  STU1        0.2078
      3  C24      -20.1470   12.9620   -6.1700 C.3     1  STU1        0.0739
      4  C23      -21.2590   13.8520   -5.6080 C.3     1  STU1        0.1086
      5  C22      -21.4710   13.6810   -4.1070 C.3     1  STU1        0.1761
      6  C21      -20.2810   13.1910   -3.2150 C.3     1  STU1        0.1915
      7  C26      -19.6730   14.3440   -2.4030 C.3     1  STU1        0.0566
      8  N2       -20.8400   12.1340   -2.3120 N.ar    1  STU1       -0.3054
      9  C18      -21.1800   10.8270   -2.7250 C.ar    1  STU1        0.0774
     10  C19      -20.7420   10.1370   -3.8510 C.ar    1  STU1        0.0783
     11  C6       -21.0940    8.7990   -4.0080 C.ar    1  STU1        0.0293
     12  C7       -21.7930    8.1650   -2.9600 C.ar    1  STU1        0.0822
     13  C10      -22.1910    8.8270   -1.8130 C.ar    1  STU1        0.0154
     14  C11      -21.8690   10.1870   -1.6930 C.ar    1  STU1        0.0173
     15  C12      -22.0990   11.1460   -0.6940 C.ar    1  STU1        0.0171
     16  C17      -21.5590   12.3550   -1.1110 C.ar    1  STU1        0.0617
     17  C16      -21.5980   13.5060   -0.3060 C.ar    1  STU1        0.0172
     18  C15      -22.2670   13.4120    0.9180 C.ar    1  STU1        0.0015
     19  C14      -22.8220   12.1910    1.3150 C.ar    1  STU1        0.0001
     20  C13      -22.7480   11.0380    0.5250 C.ar    1  STU1        0.0015
     21  C9       -22.9390    7.9540   -0.9250 C.3     1  STU1        0.1650
     22  N1       -22.9640    6.6640   -1.6590 N.2     1  STU1       -0.1976
     23  C8       -22.2760    6.8460   -2.8310 C.1     1  STU1        0.1501
     24  O5       -22.1420    5.8780   -3.6870 O.2     1  STU1       -0.2222
     25  C5       -20.5860    8.3920   -5.2430 C.ar    1  STU1        0.0180
     26  C20      -19.9240    9.4750   -5.8230 C.ar    1  STU1        0.0618
     27  C1       -19.3620    9.3660   -7.0940 C.ar    1  STU1        0.0172
     28  C2       -19.4010    8.1140   -7.7280 C.ar    1  STU1        0.0015
     29  C3       -20.0380    7.0210   -7.1060 C.ar    1  STU1        0.0001
     30  C4       -20.6500    7.1500   -5.8570 C.ar    1  STU1        0.0015
     31  N3       -20.1420   10.6360   -5.0380 N.ar    1  STU1       -0.3039
     32  O6       -22.5610   12.7400   -4.1920 O.3     1  STU1       -0.3478
     33  C27      -23.7780   13.1960   -3.6340 C.3     1  STU1        0.1743
     34  N4       -21.2350   15.2490   -6.0430 N.3     1  STU1       -0.2152
     35  C28      -22.0060   16.3020   -5.3550 C.3     1  STU1        0.1075
@<TRIPOS>BOND
     1    28    29   ar
     2    28    27   ar
     3    29    30   ar
     4    27    26   ar
     5     3     4    1
     6     3     2    1
     7    34     4    1
     8    34    35    1
     9    30    25   ar
    10    26    25   ar
    11    26    31   ar
    12     4     5    1
    13    25    11   ar
    14     2    31    1
    15     2     1    1
    16    31    10   ar
    17    32     5    1
    18    32    33    1
    19     5     6    1
    20    11    10   ar
    21    11    12   ar
    22     1     6    1
    23    10     9   ar
    24    24    23    2
    25     6     7    1
    26     6     8    1
    27    12    23    1
    28    12    13   ar
    29    23    22    2
    30     9     8   ar
    31     9    14   ar
    32     8    16   ar
    33    13    14   ar
    34    13    21    1
    35    14    15   ar
    36    22    21    1
    37    16    15   ar
    38    16    17   ar
    39    15    20   ar
    40    17    18   ar
    41    20    19   ar
    42    18    19   ar
