@<TRIPOS>MOLECULE
2oid_ANP_A_1.pdb
 31 33 0 0 0
SMALL
GASTEIGER

@<TRIPOS>ATOM
      1  PG        20.5680    3.7850    1.5420 P.3     1  ANP1        0.4884
      2  O1G       21.6420    2.7770    1.2030 O.3     1  ANP1       -0.1240
      3  O2G       19.4260    3.7570    0.5380 O.2     1  ANP1       -0.2331
      4  O3G       21.1170    5.1620    1.8880 O.3     1  ANP1       -0.1240
      5  PB        19.6690    1.4940    3.1900 P.3     1  ANP1        0.4669
      6  O1B       18.8350    1.1550    4.4160 O.3     1  ANP1       -0.1253
      7  O2B       21.0450    0.8810    3.0490 O.2     1  ANP1       -0.2351
      8  N3B       19.8820    3.2220    3.0590 N.3     1  ANP1       -0.0163
      9  PA        18.9830   -0.1740    0.9130 P.3     1  ANP1        0.2220
     10  O1A       20.4410   -0.4660    0.6880 O.3     1  ANP1       -0.4370
     11  O2A       18.0690    0.0620   -0.2690 O.2     1  ANP1       -0.5170
     12  O3A       18.7890    1.1100    1.8780 O.3     1  ANP1       -0.2360
     13  O5'       18.3690   -1.3880    1.7690 O.3     1  ANP1       -0.3111
     14  C5'       16.9520   -1.5120    1.8760 C.3     1  ANP1        0.1813
     15  C4'       16.5890   -2.5890    2.8930 C.3     1  ANP1        0.1821
     16  O4'       16.8410   -3.8870    2.3600 O.3     1  ANP1       -0.3135
     17  C3'       17.3610   -2.4980    4.1970 C.3     1  ANP1        0.2184
     18  O3'       16.3840   -2.5850    5.2450 O.3     1  ANP1       -0.2174
     19  C2'       18.2720   -3.7070    4.2390 C.3     1  ANP1        0.2570
     20  O2'       18.2810   -4.2600    5.5660 O.3     1  ANP1       -0.2130
     21  C1'       17.6400   -4.6880    3.2430 C.3     1  ANP1        0.3186
     22  N9        18.5910   -5.4410    2.3710 N.pl3   1  ANP1       -0.1439
     23  C8        19.2660   -4.9160    1.3160 C.3     1  ANP1        0.3377
     24  N7        20.0160   -5.8690    0.6930 N.2     1  ANP1       -0.2095
     25  C5        19.8260   -7.0340    1.3490 C.2     1  ANP1        0.2526
     26  C6        20.3210   -8.3190    1.2180 C.2     1  ANP1        0.4393
     27  N6        21.2040   -8.5960    0.2340 N.pl3   1  ANP1        0.2180
     28  N1        19.9220   -9.2760    2.0880 N.2     1  ANP1        0.0021
     29  C2        19.0560   -9.0030    3.0820 C.3     1  ANP1        0.5254
     30  N3        18.5380   -7.7720    3.2700 N.2     1  ANP1       -0.0055
     31  C4        18.8850   -6.7520    2.4470 C.2     1  ANP1        0.3518
@<TRIPOS>BOND
     1    11     9    2
     2    27    26    1
     3     3     1    2
     4    10     9    1
     5    24    23    1
     6    24    25    2
     7     9    13    1
     8     9    12    1
     9     2     1    1
    10    26    25    1
    11    26    28    2
    12    23    22    1
    13    25    31    1
    14     1     4    1
    15     1     8    1
    16    13    14    1
    17    14    15    1
    18    12     5    1
    19    28    29    1
    20    16    15    1
    21    16    21    1
    22    22    31    1
    23    22    21    1
    24    31    30    2
    25    15    17    1
    26     7     5    2
    27     8     5    1
    28    29    30    1
    29     5     6    1
    30    21    19    1
    31    17    19    1
    32    17    18    1
    33    19    20    1
