@<TRIPOS>MOLECULE
2oif_HEM_A_1.pdb
 43 50 0 0 0
SMALL
GASTEIGER

@<TRIPOS>ATOM
      1 FE         40.0780   31.3970   -6.6700 Fe    163  HEM163      0.0000
      2  CHA       38.7860   29.8320   -9.3810 C.2   163  HEM163      0.0000
      3  CHB       40.6320   28.3800   -5.1870 C.2   163  HEM163      0.0000
      4  CHC       41.5690   32.9650   -4.1160 C.2   163  HEM163      0.0000
      5  CHD       39.2870   34.4350   -8.0530 C.2   163  HEM163      0.0000
      6  NA        39.7350   29.5040   -7.1460 N.2   163  HEM163      0.0000
      7  C1A       39.2150   29.0240   -8.3330 C.2   163  HEM163      0.0000
      8  C2A       39.1520   27.5800   -8.3360 C.2   163  HEM163      0.0000
      9  C3A       39.6060   27.1700   -7.1180 C.2   163  HEM163      0.0000
     10  C4A       39.9930   28.3640   -6.3980 C.2   163  HEM163      0.0000
     11  CMA       39.6340   25.7290   -6.6120 C.3   163  HEM163      0.0000
     12  CAA       38.6270   26.6930   -9.4880 C.3   163  HEM163      0.0000
     13  CBA       37.1200   26.4120   -9.3320 C.3   163  HEM163      0.0000
     14  CGA       36.5050   25.5620  -10.4440 C.2   163  HEM163      0.0000
     15  O1A       35.7450   26.1110  -11.2860 O.co2 163  HEM163      0.0000
     16  O2A       36.7840   24.3370  -10.4730 O.co2 163  HEM163      0.0000
     17  NB        40.9590   30.7740   -5.0210 N.ar  163  HEM163      0.0000
     18  C1B       41.1050   29.5020   -4.5380 C.ar  163  HEM163      0.0000
     19  C2B       41.8230   29.4990   -3.2520 C.ar  163  HEM163      0.0000
     20  C3B       42.0890   30.7950   -2.9670 C.ar  163  HEM163      0.0000
     21  C4B       41.5540   31.5750   -4.0700 C.ar  163  HEM163      0.0000
     22  CMB       42.1870   28.2180   -2.4650 C.3   163  HEM163      0.0000
     23  CAB       42.7390   31.3910   -1.8630 C.3   163  HEM163      0.0000
     24  CBB       43.6140   30.7670   -0.9400 C.3   163  HEM163      0.0000
     25  NC        40.2890   33.2810   -6.1770 N.2   163  HEM163      0.0000
     26  C1C       40.9360   33.7540   -5.0550 C.2   163  HEM163      0.0000
     27  C2C       40.8910   35.1990   -4.9950 C.2   163  HEM163      0.0000
     28  C3C       40.1580   35.6220   -6.0590 C.2   163  HEM163      0.0000
     29  C4C       39.8360   34.4280   -6.7900 C.2   163  HEM163      0.0000
     30  CMC       41.4940   36.0690   -3.9200 C.3   163  HEM163      0.0000
     31  CAC       39.8170   36.9880   -6.3520 C.3   163  HEM163      0.0000
     32  CBC       39.1000   37.6990   -5.2720 C.3   163  HEM163      0.0000
     33  ND        39.2730   32.0090   -8.3840 N.ar  163  HEM163      0.0000
     34  C1D       39.0470   33.2950   -8.7990 C.ar  163  HEM163      0.0000
     35  C2D       38.4670   33.3380  -10.1220 C.ar  163  HEM163      0.0000
     36  C3D       38.3240   32.0460  -10.4920 C.ar  163  HEM163      0.0000
     37  C4D       38.8200   31.2260   -9.4060 C.ar  163  HEM163      0.0000
     38  CMD       38.0090   34.5860  -10.8860 C.3   163  HEM163      0.0000
     39  CAD       37.7600   31.5690  -11.8090 C.3   163  HEM163      0.0000
     40  CBD       36.3140   31.2160  -11.5460 C.3   163  HEM163      0.0000
     41  CGD       35.7930   30.0210  -12.2830 C.2   163  HEM163      0.0000
     42  O1D       34.8620   30.1990  -13.1380 O.co2 163  HEM163      0.0000
     43  O2D       36.3180   28.9140  -12.0150 O.co2 163  HEM163      0.0000
@<TRIPOS>BOND
     1    42    41   ar
     2    41    43   ar
     3    41    40    1
     4    39    40    1
     5    39    36    1
     6    15    14   ar
     7    38    35    1
     8    36    35   ar
     9    36    37   ar
    10    16    14   ar
    11    14    13    1
    12    35    34   ar
    13    12    13    1
    14    12     8    1
    15    37     2    2
    16    37    33   ar
    17     2     7    1
    18    34    33   ar
    19    34     5    2
    20    33     1    1
    21     8     7    1
    22     8     9    2
    23     7     6    2
    24     5    29    1
    25     6     1    1
    26     6    10    1
    27     9    11    1
    28     9    10    1
    29    29    25    2
    30    29    28    1
    31     1    25    1
    32     1    17    1
    33    10     3    2
    34    31    28    1
    35    31    32    1
    36    25    26    1
    37    28    27    2
    38     3    18    1
    39    26    27    1
    40    26     4    2
    41    17    18   ar
    42    17    21   ar
    43    27    30    1
    44    18    19   ar
    45     4    21    1
    46    21    20   ar
    47    19    20   ar
    48    19    22    1
    49    20    23    1
    50    23    24    1
