@<TRIPOS>MOLECULE
2oig_523_B_1.pdb
 29 30 0 0 0
SMALL
GASTEIGER

@<TRIPOS>ATOM
      1  N1        58.7360  126.7240   57.5840 N.am  1888  5231888    -0.1806
      2  C2        57.8970  125.9550   58.4050 C.1   1888  5231888     0.2755
      3  N3        57.9010  124.6210   58.3180 N.2   1888  5231888    -0.3027
      4  C4        58.6610  123.9670   57.4390 C.2   1888  5231888     0.2305
      5  C5        59.5230  124.6870   56.5680 C.2   1888  5231888     0.0417
      6  C5A       60.3660  123.9730   55.5840 C.3   1888  5231888     0.0366
      7  C6        59.5440  126.0550   56.6460 C.2   1888  5231888     0.0791
      8  O2        57.1660  126.4620   59.2350 O.2   1888  5231888    -0.1925
      9  N4        58.6200  122.5980   57.3860 N.pl3 1888  5231888    -0.0924
     10  C1'       58.7920  128.2380   57.6410 C.3   1888  5231888     0.2089
     11  C2'       58.4750  128.7590   59.0510 C.3   1888  5231888     0.0874
     12  C3'       59.7700  129.4660   59.5240 C.3   1888  5231888     0.1857
     13  C4'       60.5300  129.7870   58.1740 C.3   1888  5231888     0.1773
     14  O4'       60.1210  128.6650   57.3230 O.3   1888  5231888    -0.3339
     15  O3'       59.4080  130.6980   60.1970 O.3   1888  5231888    -0.2203
     16  C5'       62.0820  129.6480   58.1840 C.3   1888  5231888     0.1812
     17  O5'       62.4980  130.9270   57.6490 O.3   1888  5231888    -0.3112
     18  PA        64.1160  131.1450   57.4120 P.3   1888  5231888     0.2189
     19  O1A       64.7100  129.9490   56.7920 O.3   1888  5231888    -0.4371
     20  O2A       64.4540  132.4650   56.5430 O.2   1888  5231888    -0.5170
     21  O3A       64.7180  131.3600   58.8660 O.3   1888  5231888    -0.2700
     22  PB        66.3450  131.1950   59.0030 P.3   1888  5231888     0.2277
     23  O1B       66.9540  131.0210   60.3490 O.3   1888  5231888    -0.4368
     24  O2B       66.8000  129.9410   58.1660 O.2   1888  5231888    -0.5168
     25  O3B       66.9070  132.4300   58.1720 O.3   1888  5231888    -0.2258
     26  PG        68.1450  132.0200   57.2360 P.3   1888  5231888     0.5373
     27  O1G       67.9320  132.4590   55.8010 O.2   1888  5231888    -0.2221
     28  O2G       69.4350  132.7110   57.9350 O.3   1888  5231888    -0.1143
     29  O3G       68.3240  130.4440   57.2790 O.3   1888  5231888    -0.1143
@<TRIPOS>BOND
     1     6     5    1
     2    27    26    2
     3    20    18    2
     4     5     7    2
     5     5     4    1
     6     7     1    1
     7    19    18    1
     8    26    29    1
     9    26    28    1
    10    26    25    1
    11    14    10    1
    12    14    13    1
    13     9     4    1
    14    18    17    1
    15    18    21    1
    16     4     3    2
    17     1    10    1
    18     1     2   am
    19    10    11    1
    20    17    16    1
    21    24    22    2
    22    25    22    1
    23    13    16    1
    24    13    12    1
    25     3     2    2
    26     2     8    2
    27    21    22    1
    28    22    23    1
    29    11    12    1
    30    12    15    1
