@<TRIPOS>MOLECULE
2oil_GDP_A_1.pdb
 28 30 0 0 0
SMALL
GASTEIGER

@<TRIPOS>ATOM
      1  PB        25.3900   35.9360   13.5480 P.3   201  GDP201      0.5373
      2  O1B       25.0430   37.0590   12.5970 O.2   201  GDP201     -0.2221
      3  O2B       25.1840   34.6100   12.8420 O.3   201  GDP201     -0.1143
      4  O3B       24.5360   36.0350   14.7850 O.3   201  GDP201     -0.1143
      5  O3A       26.9510   36.1180   13.8430 O.3   201  GDP201     -0.2261
      6  PA        27.8130   35.6320   15.1120 P.3   201  GDP201      0.2231
      7  O1A       27.3250   34.2670   15.5810 O.2   201  GDP201     -0.5169
      8  O2A       27.8070   36.6920   16.1670 O.3   201  GDP201     -0.4370
      9  O5'       29.2550   35.5730   14.3890 O.3   201  GDP201     -0.3111
     10  C5'       29.5850   34.5100   13.5000 C.3   201  GDP201      0.1813
     11  C4'       31.0840   34.2330   13.5020 C.3   201  GDP201      0.1799
     12  O4'       31.7660   35.4490   13.1990 O.3   201  GDP201     -0.3326
     13  C3'       31.6580   33.7750   14.8450 C.3   201  GDP201      0.2158
     14  O3'       32.8960   33.1080   14.5500 O.3   201  GDP201     -0.2175
     15  C2'       32.0140   35.0810   15.4850 C.3   201  GDP201      0.2310
     16  O2'       33.0100   34.9440   16.4760 O.3   201  GDP201     -0.2158
     17  C1'       32.5980   35.8140   14.3040 C.3   201  GDP201      0.2293
     18  N9        32.5710   37.2750   14.4670 N.pl3 201  GDP201     -0.2354
     19  C8        31.5060   38.0190   14.8550 C.3   201  GDP201      0.2246
     20  N7        31.8180   39.3460   14.8760 N.2   201  GDP201     -0.2322
     21  C5        33.0960   39.4450   14.4980 C.2   201  GDP201      0.2182
     22  C6        34.0180   40.5440   14.3100 C.1   201  GDP201      0.2372
     23  O6        33.6690   41.7370   14.5190 O.2   201  GDP201     -0.2069
     24  N1        35.2600   40.2310   13.9070 N.2   201  GDP201     -0.2485
     25  C2        35.6790   38.9730   13.6540 C.1   201  GDP201      0.2531
     26  N2        36.9650   38.8050   13.2570 N.pl3 201  GDP201     -0.0226
     27  N3        34.8780   37.8940   13.8130 N.2   201  GDP201     -0.3074
     28  C4        33.5920   38.0840   14.2280 C.2   201  GDP201      0.2300
@<TRIPOS>BOND
     1     2     1    2
     2     3     1    1
     3    12    11    1
     4    12    17    1
     5    26    25    1
     6    10    11    1
     7    10     9    1
     8    11    13    1
     9     1     5    1
    10     1     4    1
    11    25    27    2
    12    25    24    2
    13    27    28    2
    14     5     6    1
    15    24    22    2
    16    28    18    1
    17    28    21    1
    18    17    18    1
    19    17    15    1
    20    22    21    1
    21    22    23    2
    22     9     6    1
    23    18    19    1
    24    21    20    2
    25    14    13    1
    26    13    15    1
    27    19    20    1
    28     6     7    2
    29     6     8    1
    30    15    16    1
