@<TRIPOS>MOLECULE
2oip_UMP_A_1.pdb
 20 21 0 0 0
SMALL
GASTEIGER

@<TRIPOS>ATOM
      1  N1       -85.9070  115.2610  127.4290 N.am  603  UMP603     -0.1790
      2  C2       -86.7320  114.2020  127.0250 C.1   603  UMP603      0.2844
      3  N3       -87.3530  114.1970  125.7860 N.2   603  UMP603     -0.2452
      4  C4       -87.2620  115.2980  124.9240 C.1   603  UMP603      0.2182
      5  C5       -86.4870  116.5520  125.3060 C.2   603  UMP603      0.1242
      6  C6       -85.7060  116.4780  126.6190 C.2   603  UMP603      0.0928
      7  O2       -86.8500  113.2280  127.7640 O.2   603  UMP603     -0.1918
      8  O4       -87.8350  115.2710  123.8330 O.2   603  UMP603     -0.2085
      9  C1'      -85.2070  115.1860  128.7200 C.3   603  UMP603      0.2090
     10  C2'      -84.2470  114.0010  128.8350 C.3   603  UMP603      0.0874
     11  C3'      -83.3770  114.5020  129.9860 C.3   603  UMP603      0.1857
     12  C4'      -83.2100  115.9730  129.5950 C.3   603  UMP603      0.1774
     13  O3'      -84.0820  114.4280  131.2280 O.3   603  UMP603     -0.2203
     14  O4'      -84.3730  116.3490  128.8420 O.3   603  UMP603     -0.3339
     15  C5'      -82.0120  116.1170  128.6600 C.3   603  UMP603      0.1858
     16  O5'      -80.8430  116.2290  129.4690 O.3   603  UMP603     -0.2675
     17  P        -79.3990  116.1560  128.7830 P.3   603  UMP603      0.5327
     18  OP1      -79.0270  117.3900  128.0430 O.3   603  UMP603     -0.1145
     19  OP2      -78.3760  115.8220  129.9740 O.3   603  UMP603     -0.1145
     20  OP3      -79.4320  114.8720  127.8210 O.2   603  UMP603     -0.2224
@<TRIPOS>BOND
     1     8     4    2
     2     4     5    1
     3     4     3    2
     4     5     6    2
     5     3     2    2
     6     6     1    1
     7     2     1   am
     8     2     7    2
     9     1     9    1
    10    20    17    2
    11    18    17    1
    12    15    16    1
    13    15    12    1
    14     9    10    1
    15     9    14    1
    16    17    16    1
    17    17    19    1
    18    10    11    1
    19    14    12    1
    20    12    11    1
    21    11    13    1
