@<TRIPOS>MOLECULE
2oip_MTX_A_1.pdb
 33 35 0 0 0
SMALL
GASTEIGER

@<TRIPOS>ATOM
      1  N1      -121.1810   91.9150  122.7530 N.2   605  MTX605     -0.2684
      2  C2      -120.4500   91.1720  123.5900 C.1   605  MTX605      0.2519
      3  NA2     -119.1100   91.2470  123.5550 N.pl3 605  MTX605     -0.0226
      4  N3      -121.0350   90.3550  124.4690 N.2   605  MTX605     -0.3033
      5  C4      -122.3660   90.2510  124.5310 C.2   605  MTX605      0.2728
      6  NA4     -122.9510   89.4260  125.4160 N.pl3 605  MTX605     -0.0887
      7  C4A     -123.1360   91.0000  123.6830 C.2   605  MTX605      0.2518
      8  N5      -124.4690   90.9070  123.7290 N.2   605  MTX605     -0.3917
      9  C6      -125.2010   91.6480  122.8920 C.2   605  MTX605      0.1330
     10  C7      -124.5820   92.4860  121.9900 C.3   605  MTX605      0.1930
     11  N8      -123.2570   92.5740  121.9480 N.2   605  MTX605     -0.1998
     12  C8A     -122.5190   91.8400  122.7860 C.1   605  MTX605      0.1314
     13  C9      -126.6960   91.5540  122.9340 C.3   605  MTX605      0.1481
     14  N10     -127.0310   90.2270  122.4840 N.pl3 605  MTX605     -0.2999
     15  CM      -127.5400   89.2370  123.4040 C.3   605  MTX605      0.1125
     16  C11     -126.3820   89.0760  118.5880 C.ar  605  MTX605      0.0551
     17  C12     -126.3260   88.1540  119.6050 C.ar  605  MTX605      0.0058
     18  C13     -126.5490   88.5540  120.8990 C.ar  605  MTX605      0.0147
     19  C14     -126.8230   89.8720  121.1660 C.ar  605  MTX605      0.0482
     20  C15     -126.8720   90.8080  120.1540 C.ar  605  MTX605      0.0147
     21  C16     -126.6480   90.4050  118.8520 C.ar  605  MTX605      0.0058
     22  C       -126.1090   88.5710  117.2200 C.2   605  MTX605      0.2652
     23  O       -126.6840   89.0950  116.1550 O.2   605  MTX605     -0.2684
     24  N       -125.2870   87.6320  117.1520 N.am  605  MTX605     -0.1918
     25  CA      -124.8660   86.9760  115.9400 C.3   605  MTX605      0.1986
     26  CT      -124.0430   85.7790  116.2780 C.2   605  MTX605      0.3842
     27  O1      -123.5840   85.0950  115.3560 O.co2 605  MTX605     -0.2437
     28  O2      -123.8540   85.5030  117.4740 O.co2 605  MTX605     -0.2437
     29  CB      -123.9990   87.9990  115.2440 C.3   605  MTX605      0.0451
     30  CG      -123.2780   87.3550  114.0810 C.3   605  MTX605      0.1164
     31  CD      -122.5020   88.4180  113.3620 C.2   605  MTX605      0.3649
     32  OE1     -122.9190   89.5840  113.4200 O.co2 605  MTX605     -0.2457
     33  OE2     -121.4790   88.0920  112.7360 O.co2 605  MTX605     -0.2457
@<TRIPOS>BOND
     1    33    31   ar
     2    31    32   ar
     3    31    30    1
     4    30    29    1
     5    29    25    1
     6    27    26   ar
     7    25    26    1
     8    25    24    1
     9    23    22    2
    10    26    28   ar
    11    24    22   am
    12    22    16    1
    13    16    21   ar
    14    16    17   ar
    15    21    20   ar
    16    17    18   ar
    17    20    19   ar
    18    18    19   ar
    19    19    14    1
    20    11    10    1
    21    11    12    2
    22    10     9    1
    23    14    13    1
    24    14    15    1
    25     1    12    2
    26     1     2    2
    27    12     7    1
    28     9    13    1
    29     9     8    2
    30     3     2    1
    31     2     4    2
    32     7     8    2
    33     7     5    1
    34     4     5    2
    35     5     6    1
