@<TRIPOS>MOLECULE
2oip_NDP_A_1.pdb
 48 52 0 0 0
SMALL
GASTEIGER

@<TRIPOS>ATOM
      1  PA      -132.4400   91.2970  130.9350 P.3   606  NDP606      0.2189
      2  O1A     -131.4710   91.0260  132.0260 O.3   606  NDP606     -0.4371
      3  O2A     -132.0560   91.1000  129.5120 O.2   606  NDP606     -0.5170
      4  O5B     -133.7480   90.4290  131.1890 O.3   606  NDP606     -0.3112
      5  C5B     -134.5940   90.6350  132.3120 C.3   606  NDP606      0.1813
      6  C4B     -135.7000   89.5910  132.2900 C.3   606  NDP606      0.1820
      7  O4B     -135.1660   88.3040  132.5620 O.3   606  NDP606     -0.3136
      8  C3B     -136.7760   89.7930  133.3330 C.3   606  NDP606      0.2157
      9  O3B     -137.8180   90.6390  132.8570 O.3   606  NDP606     -0.2175
     10  C2B     -137.3080   88.3940  133.5280 C.3   606  NDP606      0.2314
     11  O2B     -138.2140   88.0960  132.4820 O.3   606  NDP606     -0.2630
     12  C1B     -136.0700   87.5380  133.3490 C.3   606  NDP606      0.3158
     13  N9A     -135.5290   87.4120  134.7100 N.pl3 606  NDP606     -0.1439
     14  C8A     -134.6100   88.1960  135.2630 C.3   606  NDP606      0.3377
     15  N7A     -134.3970   87.7940  136.5250 N.2   606  NDP606     -0.2095
     16  C5A     -135.2010   86.7510  136.7510 C.2   606  NDP606      0.2526
     17  C6A     -135.4130   85.9460  137.8430 C.2   606  NDP606      0.4393
     18  N6A     -134.7190   86.1550  138.9770 N.pl3 606  NDP606      0.2180
     19  N1A     -136.3080   84.9550  137.7620 N.2   606  NDP606      0.0021
     20  C2A     -136.9880   84.7510  136.6370 C.3   606  NDP606      0.5254
     21  N3A     -136.8010   85.5140  135.5680 N.2   606  NDP606     -0.0055
     22  C4A     -135.9120   86.5180  135.6060 C.2   606  NDP606      0.3518
     23  O3      -132.9610   92.7870  131.1110 O.3   606  NDP606     -0.2703
     24  PN      -131.9910   93.9990  131.4680 P.3   606  NDP606      0.2189
     25  O1N     -131.3210   93.7150  132.7630 O.3   606  NDP606     -0.4371
     26  O2N     -132.7120   95.2920  131.3200 O.2   606  NDP606     -0.5170
     27  O5D     -130.9390   93.9250  130.2860 O.3   606  NDP606     -0.3112
     28  C5D     -131.3400   94.2260  128.9610 C.3   606  NDP606      0.1813
     29  C4D     -130.5340   95.3850  128.3990 C.3   606  NDP606      0.1799
     30  O4D     -129.1580   95.0430  128.3730 O.3   606  NDP606     -0.3327
     31  C3D     -130.9290   95.6890  126.9660 C.3   606  NDP606      0.2158
     32  O3D     -130.9080   97.0990  126.7760 O.3   606  NDP606     -0.2175
     33  C2D     -129.8100   95.1360  126.1310 C.3   606  NDP606      0.2309
     34  O2D     -129.6420   95.9920  125.0090 O.3   606  NDP606     -0.2158
     35  C1D     -128.6270   95.2280  127.0680 C.3   606  NDP606      0.2263
     36  N1N     -127.6570   94.1810  126.7950 N.pl3 606  NDP606     -0.2787
     37  C2N     -126.3910   94.5130  126.5760 C.3   606  NDP606      0.1244
     38  C3N     -125.4460   93.5490  126.3060 C.2   606  NDP606      0.0544
     39  C7N     -124.0240   93.9250  126.0600 C.2   606  NDP606      0.2818
     40  O7N     -123.1950   93.0530  126.0300 O.2   606  NDP606     -0.2670
     41  N7N     -123.6990   95.1900  125.8850 N.am  606  NDP606     -0.0839
     42  C4N     -125.8320   92.2280  126.2750 C.2   606  NDP606      0.0033
     43  C5N     -127.1500   91.9100  126.5130 C.2   606  NDP606      0.0157
     44  C6N     -128.0510   92.9170  126.7720 C.2   606  NDP606      0.0633
     45  P2B     -139.7820   88.0220  132.7260 P.3   606  NDP606      0.5328
     46  O1X     -139.9070   87.4860  134.1070 O.3   606  NDP606     -0.1145
     47  O2X     -140.2090   89.4410  132.5850 O.3   606  NDP606     -0.1145
     48  O3X     -140.2520   87.0870  131.6620 O.2   606  NDP606     -0.2224
@<TRIPOS>BOND
     1    34    33    1
     2    41    39   am
     3    40    39    2
     4    39    38    1
     5    33    31    1
     6    33    35    1
     7    42    38    2
     8    42    43    1
     9    38    37    1
    10    43    44    2
    11    37    36    1
    12    44    36    1
    13    32    31    1
    14    36    35    1
    15    31    29    1
    16    35    30    1
    17    30    29    1
    18    29    28    1
    19    28    27    1
    20     3     1    2
    21    27    24    1
    22     1    23    1
    23     1     4    1
    24     1     2    1
    25    23    24    1
    26     4     5    1
    27    26    24    2
    28    24    25    1
    29    48    45    2
    30     6     5    1
    31     6     7    1
    32     6     8    1
    33    11    45    1
    34    11    10    1
    35     7    12    1
    36    47    45    1
    37    45    46    1
    38     9     8    1
    39     8    10    1
    40    12    10    1
    41    12    13    1
    42    13    14    1
    43    13    22    1
    44    14    15    1
    45    21    22    2
    46    21    20    1
    47    22    16    1
    48    15    16    2
    49    20    19    1
    50    16    17    1
    51    19    17    2
    52    17    18    1
