@<TRIPOS>MOLECULE
2oiq_STI_A_1.pdb
 37 41 0 0 0
SMALL
GASTEIGER

@<TRIPOS>ATOM
      1  C1       -11.1220  -38.3790    4.6200 C.ar  1001  STI1001     0.0208
      2  C6        -9.7790  -38.3860    5.1300 C.ar  1001  STI1001     0.0057
      3  C5        -9.2980  -37.3120    5.9840 C.ar  1001  STI1001     0.0497
      4  C4       -10.2170  -36.2370    6.3060 C.ar  1001  STI1001     0.1014
      5  N3       -11.5040  -36.2560    5.8020 N.ar  1001  STI1001    -0.2422
      6  C2       -11.9780  -37.2840    4.9760 C.ar  1001  STI1001     0.0989
      7  C7        -7.9150  -37.2720    6.5440 C.2   1001  STI1001     0.1472
      8  C12       -6.8940  -38.2340    6.2310 C.2   1001  STI1001     0.0546
      9  C11       -5.6290  -38.0610    6.8560 C.2   1001  STI1001     0.1144
     10  N10       -5.4180  -37.0020    7.7260 N.2   1001  STI1001    -0.1683
     11  C9        -6.4260  -36.0960    8.0030 C.1   1001  STI1001     0.1696
     12  N8        -7.6360  -36.2430    7.4180 N.2   1001  STI1001    -0.3361
     13  N13       -6.2570  -35.0200    8.8790 N.pl3 1001  STI1001    -0.1360
     14  C14       -5.0470  -34.7870    9.5530 C.ar  1001  STI1001     0.0799
     15  C19       -4.7380  -35.4710   10.8230 C.ar  1001  STI1001    -0.0057
     16  C18       -3.4860  -35.1870   11.4650 C.ar  1001  STI1001    -0.0016
     17  C17       -2.5540  -34.2550   10.8850 C.ar  1001  STI1001     0.0164
     18  C16       -2.8490  -33.5860    9.6540 C.ar  1001  STI1001     0.0750
     19  C15       -4.1170  -33.8700    8.9950 C.ar  1001  STI1001     0.0336
     20  N21       -1.8690  -32.6710    9.1410 N.am  1001  STI1001    -0.1754
     21  C22       -1.9080  -31.9060    7.9800 C.2   1001  STI1001     0.2690
     22  C23       -0.8600  -30.8410    7.8060 C.ar  1001  STI1001     0.0554
     23  C25       -1.0090  -29.7530    6.8310 C.ar  1001  STI1001     0.0043
     24  C26        0.0370  -28.7610    6.6940 C.ar  1001  STI1001    -0.0028
     25  C27        1.2290  -28.8560    7.5320 C.ar  1001  STI1001    -0.0061
     26  C28        1.3410  -29.9390    8.4860 C.ar  1001  STI1001    -0.0028
     27  C29        0.3270  -30.9070    8.6230 C.ar  1001  STI1001     0.0043
     28  C46        2.3970  -27.8610    7.4480 C.3   1001  STI1001     0.0992
     29  N48        3.7840  -28.4040    7.2950 N.3   1001  STI1001    -0.2665
     30  C53        3.8780  -29.3120    6.1010 C.3   1001  STI1001     0.0899
     31  C52        5.3100  -29.8900    5.9360 C.3   1001  STI1001     0.0897
     32  N51        6.3280  -28.7710    5.8300 N.3   1001  STI1001    -0.2691
     33  C54        7.7060  -29.2570    5.6640 C.3   1001  STI1001     0.0897
     34  C50        6.2650  -27.8480    7.0440 C.3   1001  STI1001     0.0897
     35  C49        4.8180  -27.2860    7.1930 C.3   1001  STI1001     0.0899
     36  O29       -2.7290  -32.0460    7.0730 O.2   1001  STI1001    -0.2680
     37  C20       -5.6940  -36.4790   11.5050 C.3   1001  STI1001     0.0324
@<TRIPOS>BOND
     1     1     6   ar
     2     1     2   ar
     3     6     5   ar
     4     2     3   ar
     5    33    32    1
     6     5     4   ar
     7    32    31    1
     8    32    34    1
     9    31    30    1
    10     3     4   ar
    11     3     7    1
    12    30    29    1
    13     8     7    1
    14     8     9    2
    15     7    12    2
    16    24    23   ar
    17    24    25   ar
    18    23    22   ar
    19     9    10    1
    20    34    35    1
    21    36    21    2
    22    35    29    1
    23    29    28    1
    24    12    11    2
    25    28    25    1
    26    25    26   ar
    27    10    11    2
    28    22    21    1
    29    22    27   ar
    30    21    20   am
    31    11    13    1
    32    26    27   ar
    33    13    14    1
    34    19    14   ar
    35    19    18   ar
    36    20    18    1
    37    14    15   ar
    38    18    17   ar
    39    15    16   ar
    40    15    37    1
    41    17    16   ar
