@<TRIPOS>MOLECULE
2oiz_TSR_D_1.pdb
 13 14 0 0 0
SMALL
GASTEIGER

@<TRIPOS>ATOM
      1  O1         3.5960    3.8080    5.8990 O.2   1702  TSR1702    -0.2713
      2  CA         2.4360    3.6020    6.2660 C.2   1702  TSR1702     0.2652
      3  N          1.5920    3.6240    5.2730 N.am  1702  TSR1702    -0.0875
      4  CB         2.1310    3.5890    7.7840 C.3   1702  TSR1702     0.1164
      5  CG         0.6860    3.5590    8.2220 C.2   1702  TSR1702     0.0073
      6  CD1       -0.2460    4.5450    7.9820 C.2   1702  TSR1702     0.0950
      7  NE1       -1.4580    4.1350    8.4320 N.2   1702  TSR1702    -0.2442
      8  CE2       -1.3260    2.9020    8.9740 C.2   1702  TSR1702     0.0804
      9  CD2        0.0100    2.5300    8.8560 C.2   1702  TSR1702     0.0117
     10  CZ2       -2.2330    2.0340    9.5660 C.2   1702  TSR1702     0.0148
     11  CH2       -1.7970    0.8010   10.0440 C.2   1702  TSR1702    -0.0199
     12  CZ3       -0.4490    0.4440    9.9310 C.3   1702  TSR1702     0.0521
     13  CE3        0.4680    1.3030    9.3250 C.2   1702  TSR1702    -0.0202
@<TRIPOS>BOND
     1     3     2   am
     2     1     2    2
     3     2     4    1
     4     4     5    1
     5     6     5    2
     6     6     7    1
     7     5     9    1
     8     7     8    2
     9     9     8    1
    10     9    13    2
    11     8    10    1
    12    13    12    1
    13    10    11    2
    14    12    11    1
