@<TRIPOS>MOLECULE
2oj9_BMI_A_1.pdb
 30 34 0 0 0
SMALL
GASTEIGER

@<TRIPOS>ATOM
      1  C          3.1460   -4.5250   18.4410 C.1   301  BMI301      0.1674
      2  O          2.7560   -5.6360   17.8830 O.2   301  BMI301     -0.2211
      3  N          4.9310   -3.2670   21.6820 N.pl3 301  BMI301     -0.2296
      4  N1         2.8980   -3.3310   17.9320 N.2   301  BMI301     -0.1740
      5  C1         4.2240   -3.3630   20.4270 C.2   301  BMI301      0.0897
      6  C2         3.9510   -2.1660   19.7420 C.2   301  BMI301      0.0391
      7  C3         3.2890   -2.2380   18.5760 C.2   301  BMI301      0.1125
      8  C4         6.1460   -2.3190   21.8520 C.3   301  BMI301      0.1576
      9  C5         8.4580   -4.0300   24.2910 C.ar  301  BMI301      0.0029
     10  C6         7.5420   -3.1670   23.7480 C.ar  301  BMI301      0.0165
     11  C7         9.0360   -4.9650   23.4230 C.ar  301  BMI301      0.0207
     12  C8         7.2110   -3.2340   22.4120 C.ar  301  BMI301      0.0808
     13  N2         7.7620   -4.1500   21.5760 N.ar  301  BMI301     -0.2464
     14  C9         8.6570   -5.0060   22.0630 C.ar  301  BMI301      0.0985
     15  C10        3.8190   -4.5490   19.7500 C.2   301  BMI301      0.1828
     16  C11        5.9250  -12.1070   22.5390 C.ar  301  BMI301      0.1020
     17  C12        5.5650   -9.8540   21.5280 C.2   301  BMI301      0.0462
     18  C13        5.0230   -9.2590   20.4490 C.3   301  BMI301      0.1060
     19  N3         5.9050  -11.2140   21.5020 N.ar  301  BMI301     -0.2901
     20  C14        6.3110  -11.8600   20.4050 C.ar  301  BMI301      0.1826
     21  N4         6.6000  -13.1510   20.6500 N.ar  301  BMI301     -0.2220
     22  C15        6.3520  -13.3410   21.9890 C.ar  301  BMI301      0.1196
     23  C16        4.7380   -7.8890   20.5150 C.2   301  BMI301      0.1537
     24  N5         4.6790   -5.9430   21.4200 N.2   301  BMI301     -0.3411
     25  C17        4.1620   -5.8220   20.3210 C.1   301  BMI301      0.1501
     26  N6         4.2050   -6.9530   19.6740 N.2   301  BMI301     -0.3410
     27  C18        5.0030   -7.2570   21.5870 C.2   301  BMI301      0.1515
     28  C19        5.5310   -7.8880   22.6180 C.3   301  BMI301      0.0787
     29  C20        5.7990   -9.1700   22.6200 C.2   301  BMI301     -0.0058
     30  C21        5.7950   -7.0590   23.8340 C.3   301  BMI301      0.0123
@<TRIPOS>BOND
     1     2     1    2
     2     4     1    2
     3     4     7    1
     4     1    15    1
     5     7     6    2
     6    26    25    2
     7    26    23    2
     8     6     5    1
     9    15    25    1
    10    15     5    2
    11    25    24    2
    12    20    21   ar
    13    20    19   ar
    14     5     3    1
    15    18    23    1
    16    18    17    1
    17    23    27    1
    18    21    22   ar
    19    24    27    2
    20    19    17    1
    21    19    16   ar
    22    17    29    2
    23    13    14   ar
    24    13    12   ar
    25    27    28    1
    26     3     8    1
    27     8    12    1
    28    22    16   ar
    29    14    11   ar
    30    12    10   ar
    31    28    29    1
    32    28    30    1
    33    11     9   ar
    34    10     9   ar
