@<TRIPOS>MOLECULE
2ojf_4PY_E_1.pdb
 29 33 0 0 0
SMALL
GASTEIGER

@<TRIPOS>ATOM
      1  C4        13.3740   13.0890    1.3650 C.2   1000  4PY1000    -0.0202
      2  C5        15.5740   10.1310    1.2720 C.2   1000  4PY1000     0.0946
      3  C6        14.3980   10.7900    3.5360 C.3   1000  4PY1000     0.0508
      4  C8        14.5050   12.5900   -1.1970 C.2   1000  4PY1000     0.0148
      5  C10       13.4150    9.5980    3.8410 C.3   1000  4PY1000     0.1397
      6  C15       10.8350    9.9870    1.1300 C.ar  1000  4PY1000     0.1578
      7  C17       10.9420   10.1600   -0.2710 C.ar  1000  4PY1000     0.1356
      8  C20        6.9620   10.0700    1.4110 C.2   1000  4PY1000     0.0781
      9  C21        8.5940   10.2670   -0.5150 C.ar  1000  4PY1000     0.1005
     10  C22        6.6430   10.1660    2.7970 C.2   1000  4PY1000     0.0216
     11  C24        5.3090   10.1230    3.2080 C.2   1000  4PY1000     0.0397
     12  C26        4.2500    9.9800    2.2190 C.2   1000  4PY1000     0.1066
     13  C1        14.2380   11.9930    1.1710 C.2   1000  4PY1000     0.0113
     14  C2        14.7290   10.9640    2.0510 C.2   1000  4PY1000    -0.0003
     15  C3        14.8100   11.7400   -0.1280 C.2   1000  4PY1000     0.0804
     16  N7        15.6170   10.5960   -0.0110 N.2   1000  4PY1000    -0.2442
     17  C9        13.0650   13.9550    0.2750 C.3   1000  4PY1000     0.0521
     18  C11       13.6330   13.7020   -1.0080 C.2   1000  4PY1000    -0.0199
     19  C12       11.9520    9.6930    3.3180 C.3   1000  4PY1000     0.2246
     20  N13       14.0050    8.3540    3.3330 N.3   1000  4PY1000    -0.1286
     21  O14       12.0090    9.8580    1.8940 O.3   1000  4PY1000    -0.4723
     22  C16        9.5220    9.9560    1.6960 C.ar  1000  4PY1000     0.0415
     23  C18        8.3660   10.0990    0.8690 C.ar  1000  4PY1000     0.0394
     24  N19        9.8470   10.2970   -1.0690 N.ar  1000  4PY1000    -0.2391
     25  N23        5.8920    9.9360    0.5030 N.2   1000  4PY1000    -0.2638
     26  C25        4.5810    9.8910    0.8800 C.3   1000  4PY1000     0.1727
     27  C27        4.6750   10.1940    4.5240 C.2   1000  4PY1000     0.1234
     28  N28        3.1040    9.9740    2.9800 N.2   1000  4PY1000    -0.1503
     29  N29        3.3670   10.0980    4.2980 N.2   1000  4PY1000    -0.1466
@<TRIPOS>BOND
     1     4    18    2
     2     4    15    1
     3    24     9   ar
     4    24     7   ar
     5    18    17    1
     6     9    23   ar
     7     7     6   ar
     8    15    16    2
     9    15    13    1
    10    16     2    1
    11    17     1    1
    12    25    26    1
    13    25     8    2
    14    23     8    1
    15    23    22   ar
    16    26    12    1
    17     6    22   ar
    18     6    21    1
    19    13     1    2
    20    13    14    1
    21     2    14    2
    22     8    10    1
    23    21    19    1
    24    14     3    1
    25    12    28    2
    26    12    11    1
    27    10    11    2
    28    28    29    1
    29    11    27    1
    30    19     5    1
    31    20     5    1
    32     3     5    1
    33    29    27    2
