@<TRIPOS>MOLECULE
2ojg_19A_A_1.pdb
 21 23 0 0 0
SMALL
GASTEIGER

@<TRIPOS>ATOM
      1  C1        -9.1600   13.4150   41.2390 C.3   360  19A360      0.1153
      2  N2       -10.6260   13.2630   41.1770 N.am  360  19A360     -0.2716
      3  C3       -11.4360   14.2250   41.9340 C.3   360  19A360      0.1153
      4  C4       -11.1760   12.2240   40.4120 C.2   360  19A360      0.2631
      5  O5       -10.4080   11.4850   39.8100 O.2   360  19A360     -0.2686
      6  C6       -12.6640   11.9330   40.2690 C.2   360  19A360      0.1167
      7  C7       -13.7000   12.3210   41.0960 C.3   360  19A360      0.0796
      8  C8       -14.9110   11.8230   40.5940 C.2   360  19A360      0.0190
      9  C9       -14.5920   11.1230   39.4520 C.2   360  19A360      0.0960
     10  N10      -13.2440   11.1880   39.2590 N.2   360  19A360     -0.2435
     11  C12      -16.2930   12.0050   41.1940 C.2   360  19A360      0.0878
     12  N13      -17.2510   11.0900   41.1270 N.2   360  19A360     -0.1522
     13  N14      -18.3840   11.5640   41.7800 N.2   360  19A360     -0.1507
     14  C16      -18.1310   12.7850   42.2610 C.2   360  19A360      0.1057
     15  C17      -16.8370   13.1240   41.9330 C.3   360  19A360      0.1071
     16  C18      -16.1830   14.4280   42.3110 C.ar  360  19A360     -0.0112
     17  C19      -15.4870   15.2460   41.3680 C.ar  360  19A360     -0.0035
     18  C20      -14.8960   16.4610   41.7790 C.ar  360  19A360     -0.0003
     19  C21      -15.0050   16.8690   43.1270 C.ar  360  19A360     -0.0000
     20  C22      -15.6960   16.0630   44.0740 C.ar  360  19A360     -0.0003
     21  C23      -16.2800   14.8590   43.6720 C.ar  360  19A360     -0.0035
@<TRIPOS>BOND
     1    10     9    1
     2    10     6    2
     3     9     8    2
     4     5     4    2
     5     6     4    1
     6     6     7    1
     7     4     2   am
     8     8     7    1
     9     8    11    1
    10    12    11    2
    11    12    13    1
    12     2     1    1
    13     2     3    1
    14    11    15    1
    15    17    18   ar
    16    17    16   ar
    17    18    19   ar
    18    13    14    2
    19    15    14    1
    20    15    16    1
    21    16    21   ar
    22    19    20   ar
    23    21    20   ar
