@<TRIPOS>MOLECULE
2oji_33A_A_1.pdb
 27 30 0 0 0
SMALL
GASTEIGER

@<TRIPOS>ATOM
      1  C2       -15.0190   16.5280   41.7210 C.ar  360  33A360      0.0574
      2  C3       -15.1330   16.9420   43.0660 C.ar  360  33A360      0.0114
      3  C4       -15.8810   16.1680   43.9790 C.ar  360  33A360      0.0006
      4  C5       -16.5060   14.9910   43.5450 C.ar  360  33A360     -0.0035
      5  C6       -16.3990   14.5670   42.1920 C.ar  360  33A360     -0.0103
      6  C7       -15.6460   15.3510   41.2780 C.ar  360  33A360      0.0079
      7  C8       -17.1040   13.3000   41.7970 C.3   360  33A360      0.1071
      8 CL1       -14.0950   17.4800   40.6190 Cl    360  33A360     -0.0823
      9  C9       -18.3780   13.0100   42.1990 C.2   360  33A360      0.1057
     10  N10      -18.7230   11.8160   41.7000 N.2   360  33A360     -0.1507
     11  N12      -17.6560   11.3130   40.9530 N.2   360  33A360     -0.1522
     12  C13      -16.6530   12.1800   40.9800 C.2   360  33A360      0.0878
     13  C14      -15.3240   11.9530   40.2680 C.2   360  33A360      0.0190
     14  C15      -15.1460   11.2170   39.1160 C.2   360  33A360      0.0960
     15  N16      -13.8340   11.2270   38.7860 N.2   360  33A360     -0.2435
     16  C18      -13.1400   11.9770   39.7230 C.2   360  33A360      0.1182
     17  C19      -14.0460   12.4250   40.6380 C.3   360  33A360      0.0797
     18  C20      -11.6870   12.2440   39.7410 C.2   360  33A360      0.2790
     19  O21      -10.9670   11.6280   38.9740 O.2   360  33A360     -0.2670
     20  N22      -11.1610   13.1890   40.6010 N.am  360  33A360     -0.1958
     21  C23       -9.7020   13.5030   40.6460 C.3   360  33A360      0.1418
     22  C24       -9.3670   14.6840   39.7390 C.ar  360  33A360     -0.0006
     23  C25       -8.0520   14.8510   39.2360 C.ar  360  33A360     -0.0026
     24  C26       -7.7490   15.9470   38.3900 C.ar  360  33A360     -0.0003
     25  C27       -8.7530   16.8810   38.0400 C.ar  360  33A360     -0.0000
     26  C28      -10.0600   16.7300   38.5320 C.ar  360  33A360     -0.0003
     27  C29      -10.3690   15.6310   39.3840 C.ar  360  33A360     -0.0026
@<TRIPOS>BOND
     1    25    24   ar
     2    25    26   ar
     3    24    23   ar
     4    26    27   ar
     5    15    14    1
     6    15    16    2
     7    19    18    2
     8    14    13    2
     9    23    22   ar
    10    27    22   ar
    11    16    18    1
    12    16    17    1
    13    22    21    1
    14    18    20   am
    15    13    17    1
    16    13    12    1
    17    20    21    1
    18     8     1    1
    19    11    12    2
    20    11    10    1
    21    12     7    1
    22     6     1   ar
    23     6     5   ar
    24    10     9    2
    25     1     2   ar
    26     7     5    1
    27     7     9    1
    28     5     4   ar
    29     2     3   ar
    30     4     3   ar
