@<TRIPOS>MOLECULE
2ojj_82A_A_1.pdb
 31 34 0 0 0
SMALL
GASTEIGER

@<TRIPOS>ATOM
      1  C11      -15.3650   10.7910   38.9080 C.2   360  82A360      0.0960
      2  C14      -17.0040   11.9200   40.5070 C.2   360  82A360      0.0878
      3  N16      -19.1210   11.5370   41.0460 N.2   360  82A360     -0.1507
      4  C18      -18.8210   12.7250   41.5930 C.2   360  82A360      0.1057
      5  C19      -17.5190   13.0330   41.3010 C.3   360  82A360      0.1071
      6  C20      -16.8320   14.3010   41.7590 C.ar  360  82A360     -0.0103
      7  C21      -16.8760   14.6680   43.1410 C.ar  360  82A360     -0.0035
      8  C22      -16.2430   15.8460   43.5840 C.ar  360  82A360      0.0006
      9  C23      -15.5620   16.6710   42.6650 C.ar  360  82A360      0.0114
     10  C24      -15.5100   16.3220   41.2980 C.ar  360  82A360      0.0574
     11  C26      -16.1420   15.1490   40.8420 C.ar  360  82A360      0.0079
     12  C27      -10.1420   14.9500   39.0730 C.ar  360  82A360      0.0010
     13  C29      -11.0190   17.1410   38.3980 C.ar  360  82A360      0.0302
     14  C30      -10.0620   17.2120   37.3650 C.ar  360  82A360      0.1506
     15  O1       -10.7570   14.0480   42.3490 O.3   360  82A360     -0.2181
     16  C2        -9.6880   14.0930   41.3990 C.3   360  82A360      0.2081
     17  C3       -10.2010   13.7330   39.9910 C.3   360  82A360      0.1507
     18  N5       -11.6050   13.2710   40.0360 N.am  360  82A360     -0.1952
     19  C6       -12.0370   12.1940   39.3230 C.2   360  82A360      0.2790
     20  O7       -11.2670   11.5630   38.6150 O.2   360  82A360     -0.2670
     21  C8       -13.4560   11.8120   39.3730 C.2   360  82A360      0.1182
     22  C9       -14.4120   12.3460   40.1910 C.3   360  82A360      0.0797
     23  C10      -15.6370   11.6980   39.8960 C.2   360  82A360      0.0190
     24  N12      -14.0580   10.8570   38.5930 N.2   360  82A360     -0.2435
     25  N15      -17.9950   11.0550   40.3820 N.2   360  82A360     -0.1522
     26 CL25      -14.6630   17.3360   40.1770 Cl    360  82A360     -0.0823
     27  C28      -11.0620   16.0180   39.2470 C.ar  360  82A360     -0.0002
     28  F31      -10.0380   18.2980   36.5590 F     360  82A360     -0.2033
     29  C32       -9.1350   16.1460   37.1820 C.ar  360  82A360      0.0848
     30 CL33       -7.9440   16.2140   35.9090 Cl    360  82A360     -0.0799
     31  C34       -9.1810   15.0170   38.0390 C.ar  360  82A360      0.0111
@<TRIPOS>BOND
     1    30    29    1
     2    28    14    1
     3    29    14   ar
     4    29    31   ar
     5    14    13   ar
     6    31    12   ar
     7    13    27   ar
     8    24     1    1
     9    24    21    2
    10    20    19    2
    11     1    23    2
    12    12    27   ar
    13    12    17    1
    14    19    21    1
    15    19    18   am
    16    21    22    1
    17    23    22    1
    18    23     2    1
    19    17    18    1
    20    17    16    1
    21    26    10    1
    22    25     2    2
    23    25     3    1
    24     2     5    1
    25    11    10   ar
    26    11     6   ar
    27     3     4    2
    28    10     9   ar
    29     5     4    1
    30     5     6    1
    31    16    15    1
    32     6     7   ar
    33     9     8   ar
    34     7     8   ar
