@<TRIPOS>MOLECULE
2ojt_UBA_A_1.pdb
 24 25 0 0 0
SMALL
GASTEIGER

@<TRIPOS>ATOM
      1  OXT      -10.3190   -4.1650   13.7030 O.co2 501  UBA501     -0.2440
      2  C         -9.5400   -4.7370   14.4890 C.2   501  UBA501      0.3838
      3  O         -9.9320   -5.6240   15.2670 O.co2 501  UBA501     -0.2440
      4  CA        -8.1000   -4.3390   14.4950 C.3   501  UBA501      0.2168
      5  N         -7.8760   -3.3300   13.4590 N.3   501  UBA501     -0.1187
      6  CB        -7.6740   -3.8700   15.9020 C.3   501  UBA501      0.1411
      7  N4        -6.3150   -3.3630   15.7860 N.ar  501  UBA501     -0.2779
      8  C5        -5.2690   -4.3150   15.6610 C.ar  501  UBA501      0.3341
      9  O8        -5.5440   -5.5390   15.6890 O.2   501  UBA501     -0.2462
     10  N6        -3.9510   -3.8600   15.5180 N.ar  501  UBA501     -0.2447
     11  C1        -3.6890   -2.4920   15.5060 C.ar  501  UBA501      0.2619
     12  O7        -2.5320   -2.0810   15.3590 O.2   501  UBA501     -0.2671
     13  C2        -4.7980   -1.5310   15.6410 C.ar  501  UBA501      0.0517
     14  C6        -4.4630   -0.0570   15.6170 C.3   501  UBA501      0.0376
     15  C3        -6.0820   -2.0350   15.7800 C.ar  501  UBA501      0.0802
     16  C17       -2.7910   -4.7200   15.3310 C.3   501  UBA501      0.1410
     17  C18       -2.4400   -5.4940   16.5420 C.ar  501  UBA501      0.0136
     18  C23       -2.7110   -5.1670   17.8810 C.ar  501  UBA501      0.0053
     19  C22       -2.2460   -6.0860   18.8330 C.ar  501  UBA501      0.0354
     20  S20       -1.4520   -7.3900   17.9850 S.2   501  UBA501     -0.0802
     21  C19       -1.7020   -6.7620   16.4180 C.ar  501  UBA501      0.1071
     22  C10       -1.2340   -7.4630   15.1990 C.2   501  UBA501      0.3934
     23  O2        -0.9800   -6.8050   14.1590 O.co2 501  UBA501     -0.2400
     24  O1        -1.1220   -8.7010   15.2680 O.co2 501  UBA501     -0.2400
@<TRIPOS>BOND
     1     5     4    1
     2     1     2   ar
     3    23    22   ar
     4     2     4    1
     5     2     3   ar
     6     4     6    1
     7    22    24   ar
     8    22    21    1
     9    16    10    1
    10    16    17    1
    11    12    11    2
    12    11    10   ar
    13    11    13   ar
    14    10     8   ar
    15    14    13    1
    16    13    15   ar
    17     8     9    2
    18     8     7   ar
    19    15     7   ar
    20     7     6    1
    21    21    17   ar
    22    21    20   ar
    23    17    18   ar
    24    18    19   ar
    25    20    19   ar
