@<TRIPOS>MOLECULE
2ojv_HEM_A_1.pdb
 43 50 0 0 0
SMALL
GASTEIGER

@<TRIPOS>ATOM
      1  CHA        8.6330   -0.0840   28.7070 C.2   2853  HEM2853     0.0000
      2  CHB        8.9600    4.7400   28.6370 C.2   2853  HEM2853     0.0000
      3  CHC       10.9670    4.4010   24.2430 C.2   2853  HEM2853     0.0000
      4  CHD       10.6740   -0.3610   24.2940 C.2   2853  HEM2853     0.0000
      5  C1A        8.5580    1.2330   29.0790 C.2   2853  HEM2853     0.0000
      6  C2A        8.0130    1.7010   30.3290 C.2   2853  HEM2853     0.0000
      7  C3A        8.0810    3.0400   30.3270 C.2   2853  HEM2853     0.0000
      8  C4A        8.6870    3.4530   29.0660 C.2   2853  HEM2853     0.0000
      9  CMA        7.6540    3.9450   31.5040 C.3   2853  HEM2853     0.0000
     10  CAA        7.4780    0.7820   31.4700 C.3   2853  HEM2853     0.0000
     11  CBA        8.5970    0.4540   32.4490 C.3   2853  HEM2853     0.0000
     12  CGA        8.2430   -0.5770   33.4980 C.2   2853  HEM2853     0.0000
     13  O1A        7.3730   -0.2910   34.3790 O.co2 2853  HEM2853     0.0000
     14  O2A        8.8430   -1.7050   33.4930 O.co2 2853  HEM2853     0.0000
     15  C1B        9.4900    5.0780   27.4160 C.ar  2853  HEM2853     0.0000
     16  C2B        9.6460    6.4170   26.8700 C.ar  2853  HEM2853     0.0000
     17  C3B       10.2040    6.3120   25.6540 C.ar  2853  HEM2853     0.0000
     18  C4B       10.4290    4.8980   25.3950 C.ar  2853  HEM2853     0.0000
     19  CMB        9.1980    7.7220   27.5690 C.3   2853  HEM2853     0.0000
     20  CAB       10.5510    7.4390   24.6510 C.2   2853  HEM2853     0.0000
     21  CBB       10.9360    8.6700   25.0600 C.2   2853  HEM2853     0.0000
     22  C1C       11.0710    3.1040   23.8790 C.2   2853  HEM2853     0.0000
     23  C2C       11.7580    2.6030   22.6930 C.2   2853  HEM2853     0.0000
     24  C3C       11.5910    1.2830   22.6780 C.2   2853  HEM2853     0.0000
     25  C4C       10.9350    0.9170   23.9000 C.2   2853  HEM2853     0.0000
     26  CMC       12.3080    3.4910   21.5540 C.3   2853  HEM2853     0.0000
     27  CAC       12.0730    0.2250   21.6450 C.2   2853  HEM2853     0.0000
     28  CBC       12.8560    0.5160   20.6120 C.2   2853  HEM2853     0.0000
     29  C1D       10.0300   -0.7180   25.4630 C.ar  2853  HEM2853     0.0000
     30  C2D        9.5660   -2.0550   25.7360 C.ar  2853  HEM2853     0.0000
     31  C3D        8.8920   -1.9880   27.0900 C.ar  2853  HEM2853     0.0000
     32  C4D        9.0550   -0.5940   27.5000 C.ar  2853  HEM2853     0.0000
     33  CMD        9.6990   -3.2720   24.8120 C.3   2853  HEM2853     0.0000
     34  CAD        8.2210   -3.1570   27.8630 C.3   2853  HEM2853     0.0000
     35  CBD        6.7120   -3.1130   27.6100 C.3   2853  HEM2853     0.0000
     36  CGD        5.9940   -4.3240   28.1620 C.2   2853  HEM2853     0.0000
     37  O1D        6.1580   -5.4470   27.6060 O.co2 2853  HEM2853     0.0000
     38  O2D        5.2590   -4.1760   29.1760 O.co2 2853  HEM2853     0.0000
     39  NA         8.9670    2.3150   28.3320 N.2   2853  HEM2853     0.0000
     40  NB         9.9940    4.1760   26.5030 N.ar  2853  HEM2853     0.0000
     41  NC        10.6160    2.0340   24.6190 N.2   2853  HEM2853     0.0000
     42  ND         9.7390    0.1140   26.5240 N.ar  2853  HEM2853     0.0000
     43 FE         10.0150    2.1370   26.6020 Fe    2853  HEM2853     0.0000
@<TRIPOS>BOND
     1    28    27    2
     2    26    23    1
     3    27    24    1
     4    24    23    2
     5    24    25    1
     6    23    22    1
     7    22     3    2
     8    22    41    1
     9    25     4    1
    10    25    41    2
    11     3    18    1
    12     4    29    2
    13    41    43    1
    14    20    21    2
    15    20    17    1
    16    33    30    1
    17    18    17   ar
    18    18    40   ar
    19    29    30   ar
    20    29    42   ar
    21    17    16   ar
    22    30    31   ar
    23    40    43    1
    24    40    15   ar
    25    42    43    1
    26    42    32   ar
    27    43    39    1
    28    16    15   ar
    29    16    19    1
    30    31    32   ar
    31    31    34    1
    32    15     2    1
    33    32     1    2
    34    37    36   ar
    35    35    34    1
    36    35    36    1
    37    36    38   ar
    38    39     8    1
    39    39     5    2
    40     2     8    2
    41     1     5    1
    42     8     7    1
    43     5     6    1
    44     7     6    2
    45     7     9    1
    46     6    10    1
    47    10    11    1
    48    11    12    1
    49    14    12   ar
    50    12    13   ar
