@<TRIPOS>MOLECULE
2ojw_ADP_A_1.pdb
 27 29 0 0 0
SMALL
GASTEIGER

@<TRIPOS>ATOM
      1  PB        18.3880  -13.8550  -32.2130 P.3   501  ADP501      0.5373
      2  O1B       17.5670  -13.1860  -31.0790 O.3   501  ADP501     -0.1143
      3  O2B       17.9810  -15.1600  -32.7050 O.2   501  ADP501     -0.2221
      4  O3B       19.8710  -13.6660  -32.0660 O.3   501  ADP501     -0.1143
      5  PA        17.1070  -11.6600  -33.7390 P.3   501  ADP501      0.2231
      6  O1A       15.7670  -12.0120  -34.3510 O.2   501  ADP501     -0.5169
      7  O2A       17.0530  -10.7970  -32.4950 O.3   501  ADP501     -0.4370
      8  O3A       17.9790  -12.9830  -33.5320 O.3   501  ADP501     -0.2261
      9  O5'       18.0170  -10.8110  -34.7940 O.3   501  ADP501     -0.3111
     10  C5'       18.5060  -11.3970  -36.0160 C.3   501  ADP501      0.1813
     11  C4'       19.0270  -10.2600  -36.9040 C.3   501  ADP501      0.1821
     12  O4'       19.6300  -10.8630  -38.0350 O.3   501  ADP501     -0.3135
     13  C3'       17.9350   -9.3190  -37.4360 C.3   501  ADP501      0.2184
     14  O3'       18.3030   -7.9400  -37.4710 O.3   501  ADP501     -0.2174
     15  C2'       17.7750   -9.7170  -38.8800 C.3   501  ADP501      0.2570
     16  O2'       17.2740   -8.5930  -39.5670 O.3   501  ADP501     -0.2130
     17  C1'       19.2190  -10.0950  -39.1800 C.3   501  ADP501      0.3186
     18  N9        19.4400  -10.9050  -40.4160 N.pl3 501  ADP501     -0.1439
     19  C8        18.6360  -11.8140  -41.0100 C.3   501  ADP501      0.3377
     20  N7        19.2170  -12.3360  -42.1080 N.2   501  ADP501     -0.2095
     21  C5        20.4230  -11.7310  -42.2290 C.2   501  ADP501      0.2526
     22  C6        21.5530  -11.8050  -43.1700 C.2   501  ADP501      0.4393
     23  N6        21.4500  -12.6710  -44.2060 N.pl3 501  ADP501      0.2180
     24  N1        22.6050  -11.0020  -42.9590 N.2   501  ADP501      0.0021
     25  C2        22.6890  -10.1500  -41.9150 C.3   501  ADP501      0.5254
     26  N3        21.6880  -10.0430  -41.0010 N.2   501  ADP501     -0.0055
     27  C4        20.5790  -10.8010  -41.1160 C.2   501  ADP501      0.3518
@<TRIPOS>BOND
     1    23    22    1
     2    22    24    2
     3    22    21    1
     4    24    25    1
     5    21    20    2
     6    21    27    1
     7    20    19    1
     8    25    26    1
     9    27    26    2
    10    27    18    1
    11    19    18    1
    12    18    17    1
    13    16    15    1
    14    17    15    1
    15    17    12    1
    16    15    13    1
    17    12    11    1
    18    14    13    1
    19    13    11    1
    20    11    10    1
    21    10     9    1
    22     9     5    1
    23     6     5    2
    24     5     8    1
    25     5     7    1
    26     8     1    1
    27     3     1    2
    28     1     4    1
    29     1     2    1
