@<TRIPOS>MOLECULE
2ojx_III_E_1.pdb
 50 50 0 0 0
SMALL
GASTEIGER

@<TRIPOS>ATOM
      1  N          9.3760   18.9740    4.9820 N.3     1  LEU1       -0.1231
      2  CA        10.6540   18.7490    5.7090 C.3     1  LEU1        0.1693
      3  C         11.1320   17.2980    5.7450 C.2     1  LEU1        0.2592
      4  O         10.3370   16.3510    5.6830 O.2     1  LEU1       -0.2718
      5  CB        10.5650   19.2360    7.1760 C.3     1  LEU1        0.0284
      6  CG        11.4820   18.5450    8.1950 C.3     1  LEU1        0.0019
      7  CD1       12.6500   19.4530    8.5600 C.3     1  LEU1        0.0001
      8  CD2       10.7050   18.1620    9.4500 C.3     1  LEU1        0.0001
      9  N         12.4560   17.1690    5.8540 N.am    2  LEU2       -0.1966
     10  CA        13.1790   15.9130    6.0390 C.3     2  LEU2        0.1728
     11  C         13.3970   14.7590    5.0370 C.2     2  LEU2        0.2616
     12  O         12.6230   14.4870    4.1180 O.2     2  LEU2       -0.2715
     13  CB        12.7280   15.3360    7.4090 C.3     2  LEU2        0.0311
     14  CG        13.2310   16.1840    8.5880 C.3     2  LEU2        0.0022
     15  CD1       13.0980   15.5190    9.9360 C.3     2  LEU2        0.0001
     16  CD2       14.6840   16.5170    8.2910 C.3     2  LEU2        0.0001
     17  N         14.5290   14.1020    5.3000 N.am    3  CYS3       -0.1954
     18  CA        15.0930   12.9430    4.6110 C.3     3  CYS3        0.1843
     19  C         16.2040   12.4260    5.5980 C.2     3  CYS3        0.2626
     20  O         16.6220   13.1540    6.5020 O.2     3  CYS3       -0.2714
     21  CB        15.6820   13.3490    3.2520 C.3     3  CYS3        0.0997
     22  SG        17.2100   14.3420    3.2180 S.3     3  CYS3       -0.0797
     23  N         16.6550   11.1850    5.3980 N.am    4  SER4       -0.1936
     24  CA        17.6150   10.4250    6.2220 C.3     4  SER4        0.2055
     25  C         18.8810   10.9160    6.9330 C.2     4  SER4        0.2644
     26  O         19.3380   10.2380    7.8570 O.2     4  SER4       -0.2714
     27  CB        18.0090    9.1550    5.4520 C.3     4  SER4        0.2130
     28  OG        18.5150    9.5020    4.1800 O.3     4  SER4       -0.2179
     29  N         19.4810   12.0250    6.5050 N.am    5  THR5       -0.1937
     30  CA        20.7080   12.5160    7.1390 C.3     5  THR5        0.2013
     31  C         21.9710   12.0390    6.4220 C.2     5  THR5        0.2484
     32  O         23.0700   12.5490    6.6740 O.2     5  THR5       -0.2729
     33  CB        20.8480   12.0080    8.6350 C.3     5  THR5        0.1807
     34  OG1       20.0690   12.8190    9.5260 O.3     5  THR5       -0.2208
     35  CG2       22.3140   11.9690    9.0830 C.3     5  THR5        0.0379
     36  N         21.8490   11.0650    5.5210 N.am    6  PRO6       -0.2715
     37  CA        23.1840   10.7760    5.0070 C.3     6  PRO6        0.1536
     38  C         24.0700   11.7600    4.2070 C.2     6  PRO6        0.2598
     39  O         23.6590   12.5030    3.3090 O.2     6  PRO6       -0.2715
     40  CB        22.9820    9.4060    4.3700 C.3     6  PRO6        0.0310
     41  CG        22.1090    8.7540    5.4660 C.3     6  PRO6        0.0237
     42  CD        21.0560    9.8260    5.5920 C.3     6  PRO6        0.0939
     43  N         25.3210   11.7130    4.6640 N.am    7  ASN7       -0.1973
     44  CA        26.5260   12.4480    4.2730 C.3     7  ASN7        0.1688
     45  C         26.7460   13.5310    5.2830 C.2     7  ASN7        0.2292
     46  O         25.7700   13.8910    5.9710 O.2     7  ASN7       -0.2864
     47  CB        26.4880   13.1270    2.9110 C.3     7  ASN7        0.1181
     48  CG        27.8750   13.1470    2.2560 C.2     7  ASN7        0.2629
     49  OD1       28.8890   13.0850    2.9560 O.2     7  ASN7       -0.2716
     50  ND2       27.9280   13.2220    0.9350 N.am    7  ASN7       -0.0877
@<TRIPOS>BOND
     1    50    48   am
     2    48    47    1
     3    48    49    2
     4    47    44    1
     5    22    21    1
     6    21    18    1
     7    39    38    2
     8    12    11    2
     9    28    27    1
    10    38    43   am
    11    38    37    1
    12    44    43    1
    13    44    45    1
    14    40    37    1
    15    40    41    1
    16    18    17    1
    17    18    19    1
    18     1     2    1
    19    37    36    1
    20    11    17   am
    21    11    10    1
    22    45    46    2
    23    23    19   am
    24    23    24    1
    25    27    24    1
    26    41    42    1
    27    36    42    1
    28    36    31   am
    29    19    20    2
    30     4     3    2
    31     2     3    1
    32     2     5    1
    33     3     9   am
    34     9    10    1
    35    10    13    1
    36    24    25    1
    37    31    32    2
    38    31    30    1
    39    29    25   am
    40    29    30    1
    41    25    26    2
    42    30    33    1
    43     5     6    1
    44    13    14    1
    45     6     7    1
    46     6     8    1
    47    16    14    1
    48    14    15    1
    49    33    35    1
    50    33    34    1
