@<TRIPOS>MOLECULE
2ojy_TSR_D_1.pdb
 13 14 0 0 0
SMALL
GASTEIGER

@<TRIPOS>ATOM
      1  O1         3.5990    3.7290    5.9540 O.2   292  TSR292     -0.2713
      2  CA         2.4630    3.7740    6.3650 C.2   292  TSR292      0.2652
      3  N          1.5550    3.6610    5.4350 N.am  292  TSR292     -0.0875
      4  CB         2.1070    3.9570    7.8360 C.3   292  TSR292      0.1164
      5  CG         0.6910    3.7570    8.3070 C.2   292  TSR292      0.0073
      6  CD1       -0.2250    4.7990    8.2400 C.2   292  TSR292      0.0950
      7  NE1       -1.4200    4.3850    8.7140 N.2   292  TSR292     -0.2442
      8  CE2       -1.3030    3.0870    9.0910 C.2   292  TSR292      0.0804
      9  CD2        0.0040    2.6710    8.8490 C.2   292  TSR292      0.0117
     10  CZ2       -2.2340    2.2020    9.6380 C.2   292  TSR292      0.0148
     11  CH2       -1.8490    0.9010    9.9400 C.2   292  TSR292     -0.0199
     12  CZ3       -0.5320    0.4910    9.6920 C.3   292  TSR292      0.0521
     13  CE3        0.4010    1.3730    9.1450 C.2   292  TSR292     -0.0202
@<TRIPOS>BOND
     1     3     2   am
     2     1     2    2
     3     2     4    1
     4     4     5    1
     5     6     5    2
     6     6     7    1
     7     5     9    1
     8     7     8    2
     9     9     8    1
    10     9    13    2
    11     8    10    1
    12    13    12    1
    13    10    11    2
    14    12    11    1
