@<TRIPOS>MOLECULE
2ok0_NUC_D_1.pdb
 35 38 0 0 0
SMALL
GASTEIGER

@<TRIPOS>ATOM
      1  O5'       52.3200   59.6230   36.0460 O.3     1  DT1        -0.2176
      2  C5'       52.1150   58.2280   35.7400 C.3     1  DT1         0.2140
      3  C4'       50.7340   57.8450   36.1920 C.3     1  DT1         0.1774
      4  O4'       50.6150   57.9820   37.5970 O.3     1  DT1        -0.3339
      5  C3'       49.6020   58.6990   35.6650 C.3     1  DT1         0.1557
      6  O3'       48.5050   57.8110   35.4690 O.3     1  DT1        -0.3139
      7  C2'       49.3240   59.7680   36.6820 C.3     1  DT1         0.0845
      8  C1'       49.5280   58.8440   37.8790 C.3     1  DT1         0.2089
      9  N1        49.9230   59.5070   39.1260 N.am    1  DT1        -0.1794
     10  C2        48.9890   59.5700   40.1350 C.1     1  DT1         0.2844
     11  O2        47.8760   59.1010   40.0370 O.2     1  DT1        -0.1918
     12  N3        49.4520   60.1390   41.2850 N.2     1  DT1        -0.2455
     13  C4        50.6780   60.7040   41.5180 C.1     1  DT1         0.2134
     14  O4        50.9520   61.2310   42.6100 O.2     1  DT1        -0.2088
     15  C5        51.6050   60.6110   40.3990 C.2     1  DT1         0.0891
     16  C7        52.9580   61.2430   40.4690 C.3     1  DT1         0.0462
     17  C6        51.1920   60.0260   39.2880 C.2     1  DT1         0.0877
     18  P         47.8780   57.6700   34.0410 P.3     2  DC2         0.2141
     19  OP1       46.8180   56.6910   34.1640 O.3     2  DC2        -0.4373
     20  OP2       49.0020   57.4770   33.0770 O.2     2  DC2        -0.5172
     21  O5'       47.3040   59.0960   33.7930 O.3     2  DC2        -0.3115
     22  C5'       45.9910   59.3670   34.2240 C.3     2  DC2         0.1785
     23  C4'       45.7110   60.8560   34.1030 C.3     2  DC2         0.1472
     24  O4'       46.8260   61.6440   34.5430 O.3     2  DC2        -0.3366
     25  C3'       45.4960   61.3390   32.7140 C.3     2  DC2         0.0366
     26  C2'       46.8110   61.9190   32.2880 C.3     2  DC2         0.0545
     27  C1'       47.2170   62.6070   33.5560 C.3     2  DC2         0.2063
     28  N1        48.6690   62.7790   33.7740 N.am    2  DC2        -0.1803
     29  C2        49.2260   63.9030   34.3290 C.1     2  DC2         0.2756
     30  O2        48.5090   64.8620   34.5640 O.2     2  DC2        -0.1925
     31  N3        50.5560   63.9370   34.5570 N.2     2  DC2        -0.3024
     32  C4        51.2670   62.8480   34.2860 C.2     2  DC2         0.2346
     33  N4        52.5920   62.8380   34.5530 N.pl3   2  DC2        -0.0921
     34  C5        50.6980   61.6840   33.7750 C.2     2  DC2         0.0687
     35  C6        49.4200   61.6730   33.5280 C.2     2  DC2         0.0835
@<TRIPOS>BOND
     1    26    25    1
     2    26    27    1
     3    25    23    1
     4    20    18    2
     5    35    28    1
     6    35    34    2
     7    27    28    1
     8    27    24    1
     9    28    29   am
    10    34    32    1
    11    21    18    1
    12    21    22    1
    13    18    19    1
    14    18     6    1
    15    23    22    1
    16    23    24    1
    17    32    33    1
    18    32    31    2
    19    29    31    2
    20    29    30    2
    21     6     5    1
    22     5     3    1
    23     5     7    1
    24     2     1    1
    25     2     3    1
    26     3     4    1
    27     7     8    1
    28     4     8    1
    29     8     9    1
    30     9    17    1
    31     9    10   am
    32    17    15    2
    33    11    10    2
    34    10    12    2
    35    15    16    1
    36    15    13    1
    37    12    13    2
    38    13    14    2
