@<TRIPOS>MOLECULE
2ok1_33A_A_1.pdb
 27 30 0 0 0
SMALL
GASTEIGER

@<TRIPOS>ATOM
      1  C2        -3.4060   10.2520   21.9310 C.ar    1  33A1        0.0574
      2  C3        -3.6070   11.6320   22.1580 C.ar    1  33A1        0.0114
      3  C4        -4.9090   12.1740   22.1280 C.ar    1  33A1        0.0006
      4  C5        -6.0190   11.3500   21.8610 C.ar    1  33A1       -0.0035
      5  C6        -5.8430    9.9530   21.6340 C.ar    1  33A1       -0.0103
      6  C7        -4.5110    9.4160   21.6670 C.ar    1  33A1        0.0079
      7  C8        -7.0010    9.0210   21.3370 C.3     1  33A1        0.1071
      8 CL1        -1.7920    9.5870   21.9640 Cl      1  33A1       -0.0823
      9  C9        -6.8530    7.8560   20.6300 C.2     1  33A1        0.1057
     10  N10       -8.0420    7.2500   20.5290 N.2     1  33A1       -0.1507
     11  N12       -8.9940    8.0230   21.1790 N.2     1  33A1       -0.1522
     12  C13       -8.4240    9.0970   21.6820 C.2     1  33A1        0.0878
     13  C14       -9.2210   10.1220   22.4430 C.2     1  33A1        0.0190
     14  C15       -8.8550   10.8910   23.5220 C.2     1  33A1        0.0960
     15  N16       -9.9060   11.6660   23.8790 N.2     1  33A1       -0.2435
     16  C18      -10.9640   11.4000   23.0350 C.2     1  33A1        0.1182
     17  C19      -10.5550   10.4520   22.1450 C.3     1  33A1        0.0797
     18  C20      -12.3010   12.0180   23.0730 C.2     1  33A1        0.2790
     19  O21      -12.5460   12.8870   23.8990 O.2     1  33A1       -0.2670
     20  N22      -13.2480   11.6100   22.1770 N.am    1  33A1       -0.1958
     21  C23      -14.6020   12.1830   22.1460 C.3     1  33A1        0.1418
     22  C24      -14.7690   12.9390   20.8550 C.ar    1  33A1       -0.0006
     23  C25      -14.5430   14.3340   20.8220 C.ar    1  33A1       -0.0026
     24  C26      -14.6960   15.0440   19.6100 C.ar    1  33A1       -0.0003
     25  C27      -15.0660   14.3630   18.4320 C.ar    1  33A1       -0.0000
     26  C28      -15.2920   12.9700   18.4660 C.ar    1  33A1       -0.0003
     27  C29      -15.1390   12.2560   19.6770 C.ar    1  33A1       -0.0026
@<TRIPOS>BOND
     1    25    26   ar
     2    25    24   ar
     3    26    27   ar
     4    24    23   ar
     5    27    22   ar
     6    10     9    2
     7    10    11    1
     8     9     7    1
     9    23    22   ar
    10    22    21    1
    11    11    12    2
    12     7     5    1
    13     7    12    1
    14     5     6   ar
    15     5     4   ar
    16     6     1   ar
    17    12    13    1
    18     4     3   ar
    19     1     8    1
    20     1     2   ar
    21     3     2   ar
    22    17    13    1
    23    17    16    1
    24    21    20    1
    25    20    18   am
    26    13    14    2
    27    16    18    1
    28    16    15    2
    29    18    19    2
    30    14    15    1
