@<TRIPOS>MOLECULE
2ok2_MAL_A_1.pdb
 23 24 0 0 0
SMALL
GASTEIGER

@<TRIPOS>ATOM
      1  C1        62.2760    4.7020   11.9220 C.3   4001  MAL4001     0.2695
      2  C2        62.2580    4.6680   10.3840 C.3   4001  MAL4001     0.2406
      3  C3        63.3870    5.5450    9.8660 C.3   4001  MAL4001     0.2198
      4  C4        63.1760    6.9500   10.4010 C.3   4001  MAL4001     0.2144
      5  C5        63.1100    6.9330   11.9190 C.3   4001  MAL4001     0.1835
      6  C6        62.7300    8.3330   12.4350 C.3   4001  MAL4001     0.2142
      7  O1        63.4800    4.1610   12.4340 O.3   4001  MAL4001    -0.3257
      8  O2        62.4420    3.3170   10.0160 O.3   4001  MAL4001    -0.2149
      9  O3        63.3500    5.5220    8.4660 O.3   4001  MAL4001    -0.2174
     10  O4        64.1700    7.8400    9.9720 O.3   4001  MAL4001    -0.2176
     11  O5        62.1120    6.0280   12.3560 O.3   4001  MAL4001    -0.3256
     12  O6        62.9560    8.4260   13.8530 O.3   4001  MAL4001    -0.2176
     13  C1'       64.5880    1.3380   15.2450 C.3   4001  MAL4001     0.3023
     14  C2'       63.6730    0.8620   14.0980 C.3   4001  MAL4001     0.2433
     15  C3'       63.6630    1.8850   12.9930 C.3   4001  MAL4001     0.2168
     16  C4'       63.4460    3.2990   13.5440 C.3   4001  MAL4001     0.1804
     17  C5'       64.5890    3.6490   14.4700 C.3   4001  MAL4001     0.1804
     18  C6'       64.5290    5.0740   15.0310 C.3   4001  MAL4001     0.2141
     19  O1'       65.8960    1.0130   14.9170 O.3   4001  MAL4001    -0.1869
     20  O2'       64.1950   -0.3560   13.5750 O.3   4001  MAL4001    -0.2148
     21  O3'       62.6400    1.5240   12.1040 O.3   4001  MAL4001    -0.2175
     22  O5'       64.5230    2.7270   15.5570 O.3   4001  MAL4001    -0.3237
     23  O6'       65.6280    5.2910   15.8970 O.3   4001  MAL4001    -0.2176
@<TRIPOS>BOND
     1     9     3    1
     2     3     2    1
     3     3     4    1
     4    10     4    1
     5     8     2    1
     6     2     1    1
     7     4     5    1
     8     5    11    1
     9     5     6    1
    10     1    11    1
    11     1     7    1
    12    21    15    1
    13     7    16    1
    14     6    12    1
    15    15    16    1
    16    15    14    1
    17    16    17    1
    18    20    14    1
    19    14    13    1
    20    17    18    1
    21    17    22    1
    22    19    13    1
    23    18    23    1
    24    13    22    1
