@<TRIPOS>MOLECULE
2ok5_MAN_A_1.pdb
 11 11 0 0 0
SMALL
GASTEIGER

@<TRIPOS>ATOM
      1  C1       -53.9930   14.9510   21.6380 C.3   1101  MAN1101     0.1777
      2  C2       -53.7380   16.4420   21.3740 C.3   1101  MAN1101     0.2141
      3  C3       -54.4140   17.3210   22.4230 C.3   1101  MAN1101     0.2173
      4  C4       -55.8450   16.8970   22.7470 C.3   1101  MAN1101     0.2142
      5  C5       -56.0520   15.3820   22.8030 C.3   1101  MAN1101     0.1810
      6  C6       -57.5390   15.0570   22.7280 C.3   1101  MAN1101     0.2141
      7  O2       -54.2070   16.8080   20.0970 O.3   1101  MAN1101    -0.2176
      8  O3       -54.4500   18.6580   21.9830 O.3   1101  MAN1101    -0.2175
      9  O4       -56.1620   17.4410   24.0060 O.3   1101  MAN1101    -0.2176
     10  O5       -55.3840   14.7010   21.7450 O.3   1101  MAN1101    -0.3481
     11  O6       -57.9110   14.2740   23.8430 O.3   1101  MAN1101    -0.2176
@<TRIPOS>BOND
     1     7     2    1
     2     2     1    1
     3     2     3    1
     4     1    10    1
     5    10     5    1
     6     8     3    1
     7     3     4    1
     8     6     5    1
     9     6    11    1
    10     4     5    1
    11     4     9    1
