@<TRIPOS>MOLECULE
2ok7_A2P_A_1.pdb
 27 29 0 0 0
SMALL
GASTEIGER

@<TRIPOS>ATOM
      1  P1        64.3400  -31.5480    8.9140 P.3   416  A2P416      0.5328
      2  O1P       64.6010  -30.1960    8.2930 O.2   416  A2P416     -0.2224
      3  O2P       63.0830  -32.2460    8.4400 O.3   416  A2P416     -0.1145
      4  O3P       64.4960  -31.6170   10.4190 O.3   416  A2P416     -0.1145
      5  P2        63.0180  -37.6250    8.5790 P.3   416  A2P416      0.5327
      6  O4P       63.2440  -39.1130    8.4320 O.3   416  A2P416     -0.1145
      7  O5P       62.0760  -37.0260    7.5650 O.2   416  A2P416     -0.2224
      8  O6P       62.8190  -37.1510    9.9900 O.3   416  A2P416     -0.1145
      9  O5'       64.4120  -36.9610    8.1510 O.3   416  A2P416     -0.2675
     10  C5'       65.5910  -37.1040    8.9320 C.3   416  A2P416      0.1860
     11  C4'       66.4800  -35.9070    8.6280 C.3   416  A2P416      0.1822
     12  O4'       66.5000  -35.6780    7.2220 O.3   416  A2P416     -0.3136
     13  C3'       65.9180  -34.6510    9.2820 C.3   416  A2P416      0.2157
     14  O3'       66.9590  -33.9360    9.9470 O.3   416  A2P416     -0.2175
     15  C2'       65.4140  -33.8190    8.1300 C.3   416  A2P416      0.2314
     16  O2'       65.5670  -32.4250    8.3490 O.3   416  A2P416     -0.2630
     17  C1'       66.3020  -34.2850    7.0030 C.3   416  A2P416      0.3158
     18  N9        65.7480  -33.8620    5.6880 N.pl3 416  A2P416     -0.1439
     19  C8        64.5410  -33.3020    5.4700 C.3   416  A2P416      0.3377
     20  N7        64.3840  -32.9950    4.1670 N.2   416  A2P416     -0.2095
     21  C5        65.5090  -33.3370    3.5270 C.2   416  A2P416      0.2526
     22  C6        66.0010  -33.2780    2.1280 C.2   416  A2P416      0.4393
     23  N6        65.2160  -32.7670    1.1610 N.pl3 416  A2P416      0.2180
     24  N1        67.2420  -33.7420    1.8630 N.2   416  A2P416      0.0021
     25  C2        67.9990  -34.2530    2.8550 C.3   416  A2P416      0.5254
     26  N3        67.6270  -34.3270    4.1450 N.2   416  A2P416     -0.0055
     27  C4        66.4050  -33.9060    4.5340 C.2   416  A2P416      0.3518
@<TRIPOS>BOND
     1    23    22    1
     2    24    22    2
     3    24    25    1
     4    22    21    1
     5    25    26    1
     6    21    20    2
     7    21    27    1
     8    26    27    2
     9    20    19    1
    10    27    18    1
    11    19    18    1
    12    18    17    1
    13    17    12    1
    14    17    15    1
    15    12    11    1
    16     7     5    2
    17    15    16    1
    18    15    13    1
    19     9     5    1
    20     9    10    1
    21     2     1    2
    22    16     1    1
    23     6     5    1
    24     3     1    1
    25     5     8    1
    26    11    10    1
    27    11    13    1
    28     1     4    1
    29    13    14    1
