@<TRIPOS>MOLECULE
2ok9_PBP_A_1.pdb
 10 10 0 0 0
SMALL
GASTEIGER

@<TRIPOS>ATOM
      1  CH        21.8320   37.0600   31.4540 C.3   248  PBP248      0.0773
      2  CG        23.3210   36.9560   33.5600 C.ar  248  PBP248      0.0347
      3  CD1       24.6060   36.8980   34.1520 C.ar  248  PBP248      0.0033
      4  CE1       24.7310   36.8570   35.5320 C.ar  248  PBP248      0.0068
      5  CD2       22.1790   36.9700   34.3990 C.ar  248  PBP248      0.0033
      6  CE2       22.3070   36.9270   35.7860 C.ar  248  PBP248      0.0068
      7  CZ        23.5860   36.8720   36.3600 C.ar  248  PBP248      0.0346
      8 BR         23.7810   36.8230   38.2120 Br    248  PBP248     -0.0490
      9  CR        23.1690   37.0000   32.1840 C.2   248  PBP248      0.1735
     10  O         24.1780   36.9810   31.4790 O.2   248  PBP248     -0.2913
@<TRIPOS>BOND
     1     1     9    1
     2    10     9    2
     3     9     2    1
     4     2     3   ar
     5     2     5   ar
     6     3     4   ar
     7     5     6   ar
     8     4     7   ar
     9     6     7   ar
    10     7     8    1
