@<TRIPOS>MOLECULE
2okc_SAM_A_1.pdb
 27 29 0 0 0
SMALL
GASTEIGER

@<TRIPOS>ATOM
      1  N         88.6290   53.4980  109.3240 N.3   500  SAM500     -0.1208
      2  CA        87.2610   53.0680  109.5250 C.3   500  SAM500      0.1952
      3  C         86.4780   52.7290  108.2480 C.2   500  SAM500      0.3819
      4  O         86.9840   52.1730  107.2790 O.co2 500  SAM500     -0.2441
      5  OXT       85.2860   52.9950  108.1920 O.co2 500  SAM500     -0.2441
      6  CB        86.5290   54.1540  110.2730 C.3   500  SAM500      0.0414
      7  CG        86.9670   54.1910  111.7230 C.3   500  SAM500      0.0503
      8  SD        85.8920   55.3250  112.6100 S.3   500  SAM500     -0.1761
      9  CE        86.6190   56.9500  112.1950 C.3   500  SAM500      0.0590
     10  C5'       86.3690   55.1820  114.3640 C.3   500  SAM500      0.0806
     11  C4'       85.6400   54.0200  115.0490 C.3   500  SAM500      0.1622
     12  O4'       86.1090   53.8120  116.3820 O.3   500  SAM500     -0.3153
     13  C3'       84.1170   54.1910  115.1280 C.3   500  SAM500      0.2168
     14  O3'       83.5210   53.2350  114.2670 O.3   500  SAM500     -0.2175
     15  C2'       83.7480   54.0190  116.6070 C.3   500  SAM500      0.2569
     16  O2'       82.5630   53.2650  116.8910 O.3   500  SAM500     -0.2130
     17  C1'       85.0060   53.3240  117.1400 C.3   500  SAM500      0.3185
     18  N9        85.2690   53.5040  118.5810 N.pl3 500  SAM500     -0.1439
     19  C8        85.0180   54.6040  119.3760 C.3   500  SAM500      0.3377
     20  N7        85.4650   54.3140  120.6250 N.2   500  SAM500     -0.2095
     21  C5        85.9900   53.0570  120.6140 C.2   500  SAM500      0.2526
     22  C6        86.5630   52.2690  121.6100 C.2   500  SAM500      0.4393
     23  N6        86.6740   52.7380  122.8530 N.pl3 500  SAM500      0.2180
     24  N1        87.0230   51.0060  121.2920 N.2   500  SAM500      0.0021
     25  C2        86.8920   50.5150  120.0030 C.3   500  SAM500      0.5254
     26  N3        86.3280   51.2810  119.0100 N.2   500  SAM500     -0.0055
     27  C4        85.8830   52.5380  119.3310 C.2   500  SAM500      0.3518
@<TRIPOS>BOND
     1     4     3   ar
     2     5     3   ar
     3     3     2    1
     4     1     2    1
     5     2     6    1
     6     6     7    1
     7     7     8    1
     8     9     8    1
     9     8    10    1
    10    14    13    1
    11    10    11    1
    12    11    13    1
    13    11    12    1
    14    13    15    1
    15    12    17    1
    16    15    16    1
    17    15    17    1
    18    17    18    1
    19    18    27    1
    20    18    19    1
    21    26    27    2
    22    26    25    1
    23    27    21    1
    24    19    20    1
    25    25    24    1
    26    21    20    2
    27    21    22    1
    28    24    22    2
    29    22    23    1
