@<TRIPOS>MOLECULE
2oke_DUP_A_1.pdb
 28 29 0 0 0
SMALL
GASTEIGER

@<TRIPOS>ATOM
      1  O4         0.5920  -32.9790    0.6530 O.2   200  DUP200     -0.2085
      2  C4         1.8060  -33.2730    0.6440 C.1   200  DUP200      0.2182
      3  C5         2.2640  -34.2670   -0.2090 C.2   200  DUP200      0.1242
      4  C6         3.6180  -34.5820   -0.2120 C.2   200  DUP200      0.0928
      5  N3         2.6790  -32.6300    1.4570 N.2   200  DUP200     -0.2452
      6  C2         4.0010  -32.9310    1.4630 C.1   200  DUP200      0.2844
      7  O2         4.7640  -32.3080    2.2380 O.2   200  DUP200     -0.1918
      8  N1         4.4880  -33.9430    0.5940 N.am  200  DUP200     -0.1790
      9  C1'        5.9150  -34.3090    0.5740 C.3   200  DUP200      0.2090
     10  C2'        6.0660  -35.8070    0.8110 C.3   200  DUP200      0.0874
     11  C3'        6.5780  -36.3870   -0.4940 C.3   200  DUP200      0.1857
     12  O3'        7.7020  -37.2220   -0.2200 O.3   200  DUP200     -0.2203
     13  O4'        6.5150  -34.0130   -0.6920 O.3   200  DUP200     -0.3339
     14  C4'        6.9580  -35.1950   -1.3660 C.3   200  DUP200      0.1774
     15  C5'        6.2900  -35.2680   -2.7350 C.3   200  DUP200      0.1848
     16  O5'        7.2420  -35.5650   -3.7580 O.3   200  DUP200     -0.2775
     17  PA         7.8800  -34.4320   -4.7190 P.3   200  DUP200      0.4623
     18  O1A        7.9840  -33.1560   -3.9100 O.3   200  DUP200     -0.1255
     19  O2A        9.1550  -35.0200   -5.2820 O.2   200  DUP200     -0.2354
     20  N3A        6.8630  -34.1500   -6.0160 N.3   200  DUP200     -0.0179
     21  PB         6.8450  -35.2110   -7.3090 P.3   200  DUP200      0.4700
     22  O1B        5.6480  -34.8830   -8.1730 O.2   200  DUP200     -0.2350
     23  O2B        8.2090  -35.2180   -7.9650 O.3   200  DUP200     -0.1252
     24  O3B        6.6330  -36.6830   -6.6890 O.3   200  DUP200     -0.1901
     25  PG         5.2430  -37.0970   -5.9860 P.3   200  DUP200      0.5397
     26  O2G        5.6360  -37.9120   -4.7770 O.3   200  DUP200     -0.1143
     27  O1G        4.5690  -35.7980   -5.6200 O.3   200  DUP200     -0.1143
     28  O3G        4.5580  -37.8780   -7.0830 O.2   200  DUP200     -0.2220
@<TRIPOS>BOND
     1    22    21    2
     2    23    21    1
     3    21    24    1
     4    21    20    1
     5    28    25    2
     6    24    25    1
     7    20    17    1
     8    25    27    1
     9    25    26    1
    10    19    17    2
    11    17    18    1
    12    17    16    1
    13    16    15    1
    14    15    14    1
    15    14    13    1
    16    14    11    1
    17    13     9    1
    18    11    12    1
    19    11    10    1
    20     4     3    2
    21     4     8    1
    22     3     2    1
    23     9     8    1
    24     9    10    1
    25     8     6   am
    26     2     1    2
    27     2     5    2
    28     5     6    2
    29     6     7    2
