@<TRIPOS>MOLECULE
2okg_G3H_B_1.pdb
 10 9 0 0 0
SMALL
GASTEIGER

@<TRIPOS>ATOM
      1  O1        41.7030  128.2240   15.5730 O.3   501  G3H501     -0.2175
      2  C1        42.4070  126.9820   15.3390 C.3   501  G3H501      0.2174
      3  C2        41.7330  126.1780   14.2160 C.3   501  G3H501      0.2147
      4  O2        40.9590  127.0290   13.3720 O.3   501  G3H501     -0.2176
      5  C3        42.7240  125.4260   13.3300 C.3   501  G3H501      0.1892
      6  O1P       42.1380  124.9520   12.0860 O.3   501  G3H501     -0.2674
      7  O2P       43.9540  123.3260   11.7720 O.3   501  G3H501     -0.1145
      8  O3P       41.6960  122.5620   12.5680 O.3   501  G3H501     -0.1145
      9  O4P       41.9750  123.4130   10.1980 O.2   501  G3H501     -0.2224
     10  P         42.4710  123.4380   11.6060 P.3   501  G3H501      0.5327
@<TRIPOS>BOND
     1     9    10    2
     2    10     7    1
     3    10     6    1
     4    10     8    1
     5     6     5    1
     6     5     3    1
     7     4     3    1
     8     3     2    1
     9     2     1    1
