@<TRIPOS>MOLECULE
2okj_PLZ_B_1.pdb
 22 22 0 0 0
SMALL
GASTEIGER

@<TRIPOS>ATOM
      1  N1       -10.9740   -5.7230  -30.4200 N.ar  2001  PLZ2001    -0.2452
      2  C2A       -8.5970   -5.6740  -31.1270 C.3   2001  PLZ2001     0.0555
      3  O3        -8.0750   -4.6330  -28.4120 O.3   2001  PLZ2001    -0.2856
      4  C4A      -10.2480   -4.2040  -26.4350 C.3   2001  PLZ2001     0.1180
      5  C5        -9.0120   -4.9530  -23.2390 C.3   2001  PLZ2001     0.0306
      6  C6        -9.4810   -3.5080  -23.0530 C.3   2001  PLZ2001     0.1155
      7  P        -14.0920   -3.1830  -25.6720 P.3   2001  PLZ2001     0.5329
      8  N9        -9.2530   -4.9820  -25.7210 N.3   2001  PLZ2001    -0.2132
      9  C8        -9.6250   -5.6180  -24.4710 C.3   2001  PLZ2001     0.0897
     10  C1        -8.3210   -2.6340  -22.6250 C.2   2001  PLZ2001     0.3649
     11  O2        -8.5280   -1.4060  -22.4530 O.co2 2001  PLZ2001    -0.2457
     12  O4        -7.2000   -3.1700  -22.4560 O.co2 2001  PLZ2001    -0.2457
     13  C19      -10.4850   -4.7220  -27.8030 C.ar  2001  PLZ2001     0.0353
     14  C13       -9.3590   -4.9220  -28.7570 C.ar  2001  PLZ2001     0.2062
     15  C12       -9.6840   -5.4480  -30.1070 C.ar  2001  PLZ2001     0.0978
     16  C16      -12.0100   -5.5520  -29.5750 C.ar  2001  PLZ2001     0.0965
     17  C15      -11.8560   -5.0600  -28.2800 C.ar  2001  PLZ2001     0.0275
     18  C5M      -13.0780   -4.9120  -27.3990 C.3   2001  PLZ2001     0.1816
     19  O4P      -13.3140   -3.5540  -27.0380 O.3   2001  PLZ2001    -0.2653
     20  O2P      -14.4590   -1.7350  -25.8890 O.2   2001  PLZ2001    -0.2224
     21  O1P      -15.2810   -4.1140  -25.6230 O.3   2001  PLZ2001    -0.1145
     22  O3P      -13.0860   -3.4550  -24.5830 O.3   2001  PLZ2001    -0.1145
@<TRIPOS>BOND
     1     2    15    1
     2     1    15   ar
     3     1    16   ar
     4    15    14   ar
     5    16    17   ar
     6    14     3    1
     7    14    13   ar
     8    17    13   ar
     9    17    18    1
    10    13     4    1
    11    18    19    1
    12    19     7    1
    13     4     8    1
    14    20     7    2
    15     8     9    1
    16     7    21    1
    17     7    22    1
    18     9     5    1
    19     5     6    1
    20     6    10    1
    21    10    12   ar
    22    10    11   ar
