@<TRIPOS>MOLECULE
2okl_BB2_A_1.pdb
 27 27 0 0 0
SMALL
GASTEIGER

@<TRIPOS>ATOM
      1  C5        18.8780    3.5160 -219.0360 C.3   401  BB2401      0.0995
      2  C3        19.5610    3.4700 -217.6580 C.2   401  BB2401      0.2842
      3  O4        20.8090    3.4480 -217.6470 O.2   401  BB2401     -0.2698
      4  N1        18.8340    3.4330 -216.5610 N.am  401  BB2401      0.0385
      5  O2        19.2960    3.3940 -215.4270 O.2   401  BB2401     -0.1531
      6  C6        18.8930    2.0570 -219.6340 C.3   401  BB2401      0.0874
      7  C12       18.6720    1.9380 -221.1570 C.2   401  BB2401      0.2418
      8  O13       17.7700    2.5100 -221.7480 O.2   401  BB2401     -0.2733
      9  C7        17.7520    1.2680 -218.8830 C.3   401  BB2401      0.0096
     10  C8        17.7210   -0.1870 -219.3880 C.3   401  BB2401      0.0005
     11  C9        16.6740   -1.0330 -218.7110 C.3   401  BB2401      0.0000
     12  C10       17.0050   -2.5200 -218.8290 C.3   401  BB2401      0.0000
     13  C11       16.6950   -3.0950 -220.1710 C.3   401  BB2401      0.0000
     14  N14       19.5530    1.1620 -221.7750 N.am  401  BB2401     -0.1978
     15  C15       19.5200    0.7650 -223.1850 C.3   401  BB2401      0.1712
     16  C16       20.7560    1.2740 -223.9860 C.3   401  BB2401      0.0289
     17  C18       21.1110    2.7060 -223.6390 C.3   401  BB2401      0.0023
     18  C17       20.4510    1.1710 -225.4840 C.3   401  BB2401      0.0023
     19  C19       19.4190   -0.7810 -223.1840 C.2   401  BB2401      0.2458
     20  O20       20.2230   -1.4320 -222.5230 O.2   401  BB2401     -0.2730
     21  N21       18.4500   -1.3710 -223.9040 N.am  401  BB2401     -0.2727
     22  C22       18.2830   -2.8300 -223.9510 C.3   401  BB2401      0.1402
     23  C23       17.4250   -0.6580 -224.7310 C.3   401  BB2401      0.0939
     24  C24       16.6010   -1.7740 -225.3130 C.3   401  BB2401      0.0237
     25  C25       16.8420   -2.9760 -224.4460 C.3   401  BB2401      0.0296
     26  C26       19.2560   -3.5580 -224.8920 C.2   401  BB2401      0.2269
     27  O27       19.2830   -4.8310 -224.8310 O.2   401  BB2401     -0.2865
@<TRIPOS>BOND
     1    18    16    1
     2    24    23    1
     3    24    25    1
     4    26    27    2
     5    26    22    1
     6    23    21    1
     7    25    22    1
     8    16    17    1
     9    16    15    1
    10    22    21    1
    11    21    19   am
    12    15    19    1
    13    15    14    1
    14    19    20    2
    15    14     7   am
    16     8     7    2
    17     7     6    1
    18    13    12    1
    19     6     1    1
    20     6     9    1
    21    10     9    1
    22    10    11    1
    23     1     2    1
    24    12    11    1
    25     2     3    2
    26     2     4    1
    27     4     5    2
