@<TRIPOS>MOLECULE
2ol0_DUD_B_1.pdb
 24 25 0 0 0
SMALL
GASTEIGER

@<TRIPOS>ATOM
      1  N1       -36.9720  -22.3800   10.7090 N.am  1202  DUD1202    -0.1790
      2  C2       -38.0610  -22.2170    9.8180 C.1   1202  DUD1202     0.2844
      3  N3       -37.8380  -22.0070    8.5130 N.2   1202  DUD1202    -0.2452
      4  C4       -36.5960  -21.9410    8.0220 C.1   1202  DUD1202     0.2182
      5  C5       -35.4980  -22.1020    8.8630 C.2   1202  DUD1202     0.1242
      6  C6       -35.7100  -22.3230   10.2250 C.2   1202  DUD1202     0.0928
      7  O2       -39.2400  -22.2720   10.2350 O.2   1202  DUD1202    -0.1918
      8  O4       -36.4360  -21.7410    6.8010 O.2   1202  DUD1202    -0.2085
      9  C1'      -37.2450  -22.6350   12.1410 C.3   1202  DUD1202     0.2090
     10  C2'      -37.0920  -24.1340   12.3860 C.3   1202  DUD1202     0.0874
     11  C3'      -35.8070  -24.2400   13.1770 C.3   1202  DUD1202     0.1857
     12  C4'      -35.6880  -22.9000   13.8840 C.3   1202  DUD1202     0.1773
     13  O4'      -36.3570  -21.9530   13.0440 O.3   1202  DUD1202    -0.3339
     14  O3'      -35.8490  -25.3260   14.1010 O.3   1202  DUD1202    -0.2203
     15  C5'      -34.2290  -22.5210   14.0780 C.3   1202  DUD1202     0.1812
     16  O5'      -34.1230  -21.1650   14.5070 O.3   1202  DUD1202    -0.3111
     17  PA       -32.8910  -20.6760   15.4310 P.3   1202  DUD1202     0.2231
     18  O1A      -33.4460  -19.6500   16.3860 O.3   1202  DUD1202    -0.4370
     19  O2A      -32.2000  -21.9040   15.9830 O.2   1202  DUD1202    -0.5169
     20  O3A      -31.9330  -19.9010   14.3840 O.3   1202  DUD1202    -0.2261
     21  PB       -30.4020  -20.3200   14.0640 P.3   1202  DUD1202     0.5373
     22  O1B      -29.7930  -20.6220   15.4100 O.3   1202  DUD1202    -0.1143
     23  O2B      -29.8290  -19.0820   13.4070 O.3   1202  DUD1202    -0.1143
     24  O3B      -30.5360  -21.5360   13.1660 O.2   1202  DUD1202    -0.2221
@<TRIPOS>BOND
     1     8     4    2
     2     4     3    2
     3     4     5    1
     4     3     2    2
     5     5     6    2
     6     2     7    2
     7     2     1   am
     8     6     1    1
     9     1     9    1
    10     9    10    1
    11     9    13    1
    12    10    11    1
    13    13    12    1
    14    24    21    2
    15    11    12    1
    16    11    14    1
    17    23    21    1
    18    12    15    1
    19    21    20    1
    20    21    22    1
    21    15    16    1
    22    20    17    1
    23    16    17    1
    24    17    19    2
    25    17    18    1
