@<TRIPOS>MOLECULE
2ol1_UMP_C_1.pdb
 20 21 0 0 0
SMALL
GASTEIGER

@<TRIPOS>ATOM
      1  N1        18.4270   28.9880   -0.6890 N.am  1201  UMP1201    -0.1790
      2  C2        17.5810   28.4190   -1.6300 C.1   1201  UMP1201     0.2844
      3  N3        16.2260   28.7180   -1.6070 N.2   1201  UMP1201    -0.2452
      4  C4        15.7050   29.5600   -0.6470 C.1   1201  UMP1201     0.2182
      5  C5        16.5480   30.1250    0.3070 C.2   1201  UMP1201     0.1242
      6  C6        17.9110   29.8220    0.2730 C.2   1201  UMP1201     0.0928
      7  O2        18.0100   27.6660   -2.5040 O.2   1201  UMP1201    -0.1918
      8  O4        14.4960   29.8080   -0.6420 O.2   1201  UMP1201    -0.2085
      9  C1'       19.8770   28.6680   -0.7040 C.3   1201  UMP1201     0.2090
     10  C2'       20.7660   29.9120   -0.6210 C.3   1201  UMP1201     0.0874
     11  C3'       21.4890   29.7870    0.7080 C.3   1201  UMP1201     0.1857
     12  C4'       21.2630   28.3510    1.1500 C.3   1201  UMP1201     0.1774
     13  O3'       22.8720   30.0510    0.5910 O.3   1201  UMP1201    -0.2203
     14  O4'       20.1610   27.8540    0.4150 O.3   1201  UMP1201    -0.3339
     15  C5'       20.9990   28.2370    2.6470 C.3   1201  UMP1201     0.1858
     16  O5'       19.9250   29.0780    3.0070 O.3   1201  UMP1201    -0.2675
     17  P         19.8050   29.6680    4.4960 P.3   1201  UMP1201     0.5327
     18  OP1       21.1460   30.1750    4.9680 O.3   1201  UMP1201    -0.1145
     19  OP2       19.3500   28.5650    5.4210 O.3   1201  UMP1201    -0.1145
     20  OP3       18.8200   30.7720    4.4730 O.2   1201  UMP1201    -0.2224
@<TRIPOS>BOND
     1     7     2    2
     2     2     3    2
     3     2     1   am
     4     3     4    2
     5     9     1    1
     6     9    10    1
     7     9    14    1
     8     1     6    1
     9     4     8    2
    10     4     5    1
    11    10    11    1
    12     6     5    2
    13    14    12    1
    14    13    11    1
    15    11    12    1
    16    12    15    1
    17    15    16    1
    18    16    17    1
    19    20    17    2
    20    17    18    1
    21    17    19    1
