@<TRIPOS>MOLECULE
2ol4_JPN_A_1.pdb
 25 27 0 0 0
SMALL
GASTEIGER

@<TRIPOS>ATOM
      1 CL24       51.0380   89.0820   36.0230 Cl    700  JPN700     -0.0790
      2  C18       51.8430   89.8740   34.6280 C.ar  700  JPN700      0.0929
      3  C19       52.9070   89.2620   33.9820 C.ar  700  JPN700      0.0259
      4  C17       51.3850   91.2030   34.1580 C.ar  700  JPN700      0.1559
      5  C22       52.0120   91.7860   33.0630 C.ar  700  JPN700      0.0392
      6  C21       53.0810   91.1340   32.4540 C.ar  700  JPN700      0.0146
      7  C20       53.5190   89.8910   32.9020 C.ar  700  JPN700      0.0587
      8 CL25       54.8950   89.0770   32.0860 Cl    700  JPN700     -0.0822
      9  O16       50.3260   91.8030   34.7890 O.3   700  JPN700     -0.4494
     10  C13       50.0120   93.1280   34.6100 C.ar  700  JPN700      0.1839
     11  C14       50.6380   94.1550   35.3060 C.ar  700  JPN700      0.0405
     12  C15       50.2510   95.4750   35.0750 C.ar  700  JPN700     -0.0009
     13  C10       49.2260   95.7970   34.1860 C.ar  700  JPN700     -0.0188
     14  C11       48.5680   94.7990   33.4800 C.ar  700  JPN700      0.0410
     15  C12       48.9210   93.4720   33.6720 C.ar  700  JPN700      0.2295
     16  O23       48.2880   92.4810   32.9970 O.3   700  JPN700     -0.2833
     17  C9        48.8080   97.2330   33.9490 C.3   700  JPN700      0.0268
     18  C8        50.0130   98.1580   33.8330 C.3   700  JPN700      0.0094
     19  C7        51.0570   97.5700   32.8920 C.3   700  JPN700      0.0267
     20  C3        51.7130   98.6510   32.0700 C.ar  700  JPN700     -0.0222
     21  C4        52.9040   98.3740   31.4120 C.ar  700  JPN700     -0.0043
     22  C5        53.5150   99.3550   30.6420 C.ar  700  JPN700     -0.0003
     23  C6        52.9440  100.6180   30.5380 C.ar  700  JPN700     -0.0000
     24  C1        51.7510  100.8920   31.1990 C.ar  700  JPN700     -0.0003
     25  C2        51.1330   99.9080   31.9630 C.ar  700  JPN700     -0.0043
@<TRIPOS>BOND
     1    23    22   ar
     2    23    24   ar
     3    22    21   ar
     4    24    25   ar
     5    21    20   ar
     6    25    20   ar
     7    20    19    1
     8     8     7    1
     9     6     7   ar
    10     6     5   ar
    11    19    18    1
    12     7     3   ar
    13    16    15    1
    14     5     4   ar
    15    14    15   ar
    16    14    13   ar
    17    15    10   ar
    18    18    17    1
    19    17    13    1
    20     3     2   ar
    21     4     2   ar
    22     4     9    1
    23    13    12   ar
    24    10     9    1
    25    10    11   ar
    26     2     1    1
    27    12    11   ar
