@<TRIPOS>MOLECULE
2olb_III_B_1.pdb
 28 27 0 0 0
SMALL
GASTEIGER

@<TRIPOS>ATOM
      1  N          6.9400   16.7800   15.2420 N.3     1  LYS1       -0.1231
      2  CA         6.5110   18.1000   14.6390 C.3     1  LYS1        0.1693
      3  C          5.3150   18.6000   15.4640 C.2     1  LYS1        0.2592
      4  O          4.5190   17.8340   16.0260 O.2     1  LYS1       -0.2718
      5  CB         6.1690   18.0650   13.1680 C.3     1  LYS1        0.0285
      6  CG         5.2840   16.9110   12.7450 C.3     1  LYS1        0.0035
      7  CD         5.2350   16.7790   11.2090 C.3     1  LYS1        0.0206
      8  CE         6.4850   16.0800   10.6940 C.3     1  LYS1        0.1093
      9  NZ         6.4490   14.6190   11.0410 N.3     1  LYS1       -0.1314
     10  N          5.2380   19.9040   15.5650 N.am    2  LYS2       -0.1966
     11  CA         4.1810   20.5480   16.3260 C.3     2  LYS2        0.1728
     12  C          2.8690   20.5120   15.5430 C.2     2  LYS2        0.2617
     13  O          2.8130   20.7590   14.3570 O.2     2  LYS2       -0.2715
     14  CB         4.5720   22.0490   16.5940 C.3     2  LYS2        0.0311
     15  CG         5.5030   22.0830   17.8720 C.3     2  LYS2        0.0038
     16  CD         5.7550   23.4500   18.3690 C.3     2  LYS2        0.0206
     17  CE         6.4210   23.5250   19.7390 C.3     2  LYS2        0.1093
     18  NZ         7.2180   22.3310   20.1020 N.3     2  LYS2       -0.1314
     19  N          1.8010   20.2070   16.3100 N.am    3  LYS3       -0.1942
     20  CA         0.4570   20.1860   15.7510 C.3     3  LYS3        0.1978
     21  C         -0.5260   20.7670   16.8180 C.2     3  LYS3        0.3842
     22  O         -1.7000   20.3460   16.8040 O.co2   3  LYS3       -0.2437
     23  CB         0.0050   18.8020   15.3110 C.3     3  LYS3        0.0333
     24  CG        -1.0890   18.9880   14.2210 C.3     3  LYS3        0.0039
     25  CD        -1.6830   17.6400   13.8820 C.3     3  LYS3        0.0206
     26  CE        -2.6230   17.6560   12.6830 C.3     3  LYS3        0.1093
     27  NZ        -3.7330   18.6580   12.8350 N.3     3  LYS3       -0.1314
     28  OXT       -0.1580   21.6290   17.6390 O.co2   3  LYS3       -0.2437
@<TRIPOS>BOND
     1     8     9    1
     2     8     7    1
     3     7     6    1
     4    26    27    1
     5    26    25    1
     6     6     5    1
     7     5     2    1
     8    25    24    1
     9    24    23    1
    10    13    12    2
    11     2     1    1
    12     2     3    1
    13    23    20    1
    14     3    10   am
    15     3     4    2
    16    12    19   am
    17    12    11    1
    18    10    11    1
    19    20    19    1
    20    20    21    1
    21    11    14    1
    22    14    15    1
    23    22    21   ar
    24    21    28   ar
    25    15    16    1
    26    16    17    1
    27    17    18    1
