@<TRIPOS>MOLECULE
2olc_ADP_A_1.pdb
 27 29 0 0 0
SMALL
GASTEIGER

@<TRIPOS>ATOM
      1  PB        71.1480   29.2410   14.6240 P.3   999  ADP999      0.5373
      2  O1B       70.1730   29.8890   13.6680 O.2   999  ADP999     -0.2221
      3  O2B       70.9780   27.7720   14.5870 O.3   999  ADP999     -0.1143
      4  O3B       72.5280   29.8180   14.5000 O.3   999  ADP999     -0.1143
      5  PA        71.4450   29.6420   17.4470 P.3   999  ADP999      0.2231
      6  O1A       70.8430   28.6340   18.4170 O.3   999  ADP999     -0.4370
      7  O2A       72.9250   29.6380   17.2280 O.2   999  ADP999     -0.5169
      8  O3A       70.6220   29.6250   16.0830 O.3   999  ADP999     -0.2261
      9  O5'       71.0820   31.0790   18.0610 O.3   999  ADP999     -0.3111
     10  C5'       71.1490   32.2820   17.2890 C.3   999  ADP999      0.1813
     11  C4'       71.5410   33.4600   18.1760 C.3   999  ADP999      0.1821
     12  O4'       70.4500   33.7610   19.0500 O.3   999  ADP999     -0.3135
     13  C3'       72.7230   33.1950   19.0990 C.3   999  ADP999      0.2184
     14  O3'       73.9840   33.5220   18.5040 O.3   999  ADP999     -0.2174
     15  C2'       72.4020   34.0570   20.3070 C.3   999  ADP999      0.2570
     16  O2'       72.8450   35.4110   20.1190 O.3   999  ADP999     -0.2130
     17  C1'       70.8770   34.0210   20.3850 C.3   999  ADP999      0.3186
     18  N9        70.4180   32.9260   21.2950 N.pl3 999  ADP999     -0.1439
     19  C8        70.1920   31.6280   20.9830 C.3   999  ADP999      0.3377
     20  N7        69.8010   30.9470   22.0950 N.2   999  ADP999     -0.2095
     21  C5        69.7780   31.8200   23.1180 C.2   999  ADP999      0.2526
     22  C6        69.4640   31.7150   24.4640 C.2   999  ADP999      0.4393
     23  N6        69.0780   30.5460   25.0350 N.pl3 999  ADP999      0.2180
     24  N1        69.5470   32.8240   25.2250 N.2   999  ADP999      0.0021
     25  C2        69.9290   34.0100   24.7120 C.3   999  ADP999      0.5254
     26  N3        70.2350   34.1470   23.4160 N.2   999  ADP999     -0.0055
     27  C4        70.1670   33.0650   22.6060 C.2   999  ADP999      0.3518
@<TRIPOS>BOND
     1     2     1    2
     2     4     1    1
     3     3     1    1
     4     1     8    1
     5     8     5    1
     6     7     5    2
     7    10     9    1
     8    10    11    1
     9     5     9    1
    10     5     6    1
    11    11    12    1
    12    11    13    1
    13    14    13    1
    14    12    17    1
    15    13    15    1
    16    16    15    1
    17    15    17    1
    18    17    18    1
    19    19    18    1
    20    19    20    1
    21    18    27    1
    22    20    21    2
    23    27    21    1
    24    27    26    2
    25    21    22    1
    26    26    25    1
    27    22    23    1
    28    22    24    2
    29    25    24    1
