@<TRIPOS>MOLECULE
2ole_KR2_A_1.pdb
 30 32 0 0 0
SMALL
GASTEIGER

@<TRIPOS>ATOM
      1  CAY       -5.4750    1.1060   -6.2450 C.ar  1001  KR21001    -0.0004
      2  CBC       -5.9740    0.5210   -5.0840 C.ar  1001  KR21001    -0.0002
      3  CBB       -5.3750    0.7910   -3.8550 C.ar  1001  KR21001    -0.0000
      4  CBA       -4.2710    1.6380   -3.7920 C.ar  1001  KR21001    -0.0002
      5  CAZ       -3.7700    2.2190   -4.9540 C.ar  1001  KR21001    -0.0004
      6  CAX       -4.3790    1.9630   -6.1800 C.ar  1001  KR21001     0.0248
      7  CAW       -4.0080    2.8210   -7.3950 C.3   1001  KR21001     0.2511
      8  OAA       -2.5800    2.8910   -7.4840 O.3   1001  KR21001    -0.1983
      9  NAR       -4.5980    4.1320   -7.0760 N.3   1001  KR21001    -0.1717
     10  CAV       -5.3410    4.6290   -8.2460 C.3   1001  KR21001     0.0951
     11  CDD       -5.0780    6.0960   -8.5930 C.3   1001  KR21001     0.0192
     12  CNN       -3.6960    6.3320   -9.2070 C.3   1001  KR21001     0.0033
     13  CAT       -2.5940    6.5150   -8.1580 C.3   1001  KR21001     0.0232
     14  CAS       -2.3730    5.2730   -7.2870 C.3   1001  KR21001     0.1116
     15  NAQ       -3.6160    4.9300   -6.5750 N.am  1001  KR21001    -0.2190
     16  CAO       -3.9800    5.6090   -5.4930 C.2   1001  KR21001     0.2403
     17  OAP       -5.2630    5.6880   -5.0560 O.2   1001  KR21001    -0.2735
     18  CAN       -2.9320    6.4220   -4.7380 C.3   1001  KR21001     0.1059
     19  CAL       -3.3090    6.5330   -3.2610 C.3   1001  KR21001     0.1054
     20  NAM       -2.5420    7.6660   -2.7260 N.3   1001  KR21001    -0.1320
     21  CAK       -2.8660    5.3930   -2.3450 C.3   1001  KR21001     0.0482
     22  CAG       -3.4910    5.1700   -1.1220 C.ar  1001  KR21001     0.0091
     23  CAH       -4.5280    5.9890   -0.7030 C.ar  1001  KR21001     0.0300
     24  CAC       -5.0210    5.9430    0.5990 C.ar  1001  KR21001     0.1672
     25  FAB       -6.1310    6.6440    0.8930 F     1001  KR21001    -0.2018
     26  CAD       -4.4370    5.0680    1.5100 C.ar  1001  KR21001     0.1696
     27  FAI       -4.6000    5.2210    2.8390 F     1001  KR21001    -0.2017
     28  CAE       -3.4590    4.1870    1.0700 C.ar  1001  KR21001     0.0612
     29  CAF       -2.9900    4.2170   -0.2390 C.ar  1001  KR21001     0.1386
     30  FAJ       -1.9950    3.3780   -0.5720 F     1001  KR21001    -0.2044
@<TRIPOS>BOND
     1    12    11    1
     2    12    13    1
     3    11    10    1
     4    10     9    1
     5    13    14    1
     6     8     7    1
     7     7     9    1
     8     7     6    1
     9    14    15    1
    10     9    15    1
    11    15    16   am
    12     1     6   ar
    13     1     2   ar
    14     6     5   ar
    15    16    17    2
    16    16    18    1
    17     2     3   ar
    18     5     4   ar
    19    18    19    1
    20     3     4   ar
    21    19    20    1
    22    19    21    1
    23    21    22    1
    24    22    23   ar
    25    22    29   ar
    26    23    24   ar
    27    30    29    1
    28    29    28   ar
    29    24    25    1
    30    24    26   ar
    31    28    26   ar
    32    26    27    1
