@<TRIPOS>MOLECULE
2olh_CBI_A_1.pdb
 23 24 0 0 0
SMALL
GASTEIGER

@<TRIPOS>ATOM
      1  C1        -9.0550    2.8230  -14.8530 C.3   840  CBI840      0.2695
      2  C2       -10.0550    3.0800  -15.9460 C.3   840  CBI840      0.2406
      3  C3       -10.0500    4.5360  -16.4880 C.3   840  CBI840      0.2198
      4  C4       -10.4150    5.4770  -15.3740 C.3   840  CBI840      0.2144
      5  C5        -9.4590    5.3750  -14.1610 C.3   840  CBI840      0.1835
      6  C6        -9.7760    6.2420  -12.8690 C.3   840  CBI840      0.2142
      7  O2        -9.7350    2.1630  -17.0750 O.3   840  CBI840     -0.2149
      8  O3       -11.0110    4.6700  -17.5310 O.3   840  CBI840     -0.2174
      9  O4       -10.4690    6.8280  -15.8190 O.3   840  CBI840     -0.2176
     10  O5        -9.4210    3.8710  -13.7590 O.3   840  CBI840     -0.3256
     11  O6       -11.0180    7.0720  -12.9670 O.3   840  CBI840     -0.2176
     12  C1'       -6.1200   -0.8130  -12.5990 C.3   840  CBI840      0.3023
     13  C2'       -5.0950    0.1710  -13.3020 C.3   840  CBI840      0.2433
     14  C3'       -5.9260    1.4320  -13.7550 C.3   840  CBI840      0.2168
     15  C4'       -7.1220    1.1030  -14.7320 C.3   840  CBI840      0.1804
     16  C5'       -8.0770    0.0410  -13.9530 C.3   840  CBI840      0.1804
     17  C6'       -9.3070   -0.4610  -14.8120 C.3   840  CBI840      0.2141
     18  O1'       -5.4420   -2.0020  -12.2180 O.3   840  CBI840     -0.1869
     19  O2'       -3.9640    0.4570  -12.4090 O.3   840  CBI840     -0.2148
     20  O3'       -5.0080    2.3730  -14.4120 O.3   840  CBI840     -0.2175
     21  O4'       -7.6430    2.5030  -14.7390 O.3   840  CBI840     -0.3257
     22  O5'       -7.2910   -1.1110  -13.4650 O.3   840  CBI840     -0.3237
     23  O6'      -10.5950    0.0700  -14.3540 O.3   840  CBI840     -0.2176
@<TRIPOS>BOND
     1     8     3    1
     2     7     2    1
     3     3     2    1
     4     3     4    1
     5     2     1    1
     6     9     4    1
     7     4     5    1
     8     1    21    1
     9     1    10    1
    10    17    23    1
    11    17    16    1
    12    21    15    1
    13    15    16    1
    14    15    14    1
    15    20    14    1
    16     5    10    1
    17     5     6    1
    18    16    22    1
    19    14    13    1
    20    22    12    1
    21    13    12    1
    22    13    19    1
    23    11     6    1
    24    12    18    1
