@<TRIPOS>MOLECULE
2oli_IOP_A_1.pdb
 14 15 0 0 0
SMALL
GASTEIGER

@<TRIPOS>ATOM
      1  C1'      -22.1410    7.2360   -9.9930 C.3   1001  IOP1001     0.4263
      2  O1       -23.4530    7.8050  -10.2120 O.2   1001  IOP1001    -0.2671
      3  O2       -21.3210    7.4450  -11.1440 O.2   1001  IOP1001    -0.2671
      4  C2'      -22.2790    5.7390   -9.7050 C.3   1001  IOP1001     0.1042
      5  C3'      -20.9640    4.9680   -9.4450 C.3   1001  IOP1001     0.0324
      6  N1       -18.9070    5.4480   -6.3220 N.2   1001  IOP1001    -0.2482
      7  C2       -19.0820    5.3170   -7.6750 C.2   1001  IOP1001     0.0906
      8  C3       -20.4300    5.1440   -8.0160 C.2   1001  IOP1001    -0.0156
      9  C3A      -21.1710    5.1700   -6.7070 C.3   1001  IOP1001     0.0819
     10  C4       -22.5370    5.0560   -6.2890 C.2   1001  IOP1001    -0.0164
     11  C5       -22.8500    5.1350   -4.9060 C.2   1001  IOP1001    -0.0038
     12  C6       -21.8170    5.3280   -3.9350 C.2   1001  IOP1001     0.0009
     13  C7       -20.4410    5.4480   -4.3030 C.2   1001  IOP1001     0.0153
     14  C7A      -20.0810    5.3740   -5.6720 C.2   1001  IOP1001     0.0665
@<TRIPOS>BOND
     1     3     1    1
     2     2     1    1
     3     1     4    1
     4     4     5    1
     5     5     8    1
     6     8     7    2
     7     8     9    1
     8     7     6    1
     9     9    10    1
    10     9    14    1
    11     6    14    2
    12    10    11    2
    13    14    13    1
    14    11    12    1
    15    13    12    2
