@<TRIPOS>MOLECULE
2olj_ADP_A_1.pdb
 27 29 0 0 0
SMALL
GASTEIGER

@<TRIPOS>ATOM
      1  PB        13.6870   24.9130    7.2660 P.3   401  ADP401      0.5373
      2  O1B       13.3250   25.3760    8.6230 O.3   401  ADP401     -0.1143
      3  O2B       13.5870   26.0940    6.1870 O.2   401  ADP401     -0.2221
      4  O3B       12.6980   23.7640    6.7460 O.3   401  ADP401     -0.1143
      5  PA        15.6610   23.1310    6.2470 P.3   401  ADP401      0.2231
      6  O1A       15.3680   21.8180    6.8700 O.3   401  ADP401     -0.4370
      7  O2A       14.9490   23.2950    4.8120 O.2   401  ADP401     -0.5169
      8  O3A       15.1960   24.3580    7.1790 O.3   401  ADP401     -0.2261
      9  O5'       17.2340   23.3780    5.9910 O.3   401  ADP401     -0.3111
     10  C5'       18.0820   23.6180    7.1180 C.3   401  ADP401      0.1813
     11  C4'       19.4990   24.0020    6.6830 C.3   401  ADP401      0.1821
     12  O4'       20.0470   22.9140    5.9140 O.3   401  ADP401     -0.3135
     13  C3'       19.4420   25.2060    5.7380 C.3   401  ADP401      0.2184
     14  O3'       20.6750   25.9260    5.8060 O.3   401  ADP401     -0.2174
     15  C2'       19.3350   24.5010    4.3860 C.3   401  ADP401      0.2570
     16  O2'       19.7700   25.3900    3.3550 O.3   401  ADP401     -0.2130
     17  C1'       20.4200   23.4560    4.6370 C.3   401  ADP401      0.3186
     18  N9        20.4130   22.3880    3.6120 N.pl3 401  ADP401     -0.1439
     19  C8        19.3900   21.5900    3.3250 C.3   401  ADP401      0.3377
     20  N7        19.7620   20.7000    2.4060 N.2   401  ADP401     -0.2095
     21  C5        21.0340   20.9370    2.1030 C.2   401  ADP401      0.2526
     22  C6        21.9490   20.3510    1.2380 C.2   401  ADP401      0.4393
     23  N6        21.6000   19.2930    0.5060 N.pl3 401  ADP401      0.2180
     24  N1        23.1880   20.8490    1.1700 N.2   401  ADP401      0.0021
     25  C2        23.5510   21.8840    1.9120 C.3   401  ADP401      0.5254
     26  N3        22.7090   22.4640    2.7490 N.2   401  ADP401     -0.0055
     27  C4        21.4530   22.0190    2.8670 C.2   401  ADP401      0.3518
@<TRIPOS>BOND
     1    23    22    1
     2    24    22    2
     3    24    25    1
     4    22    21    1
     5    25    26    1
     6    21    20    2
     7    21    27    1
     8    20    19    1
     9    26    27    2
    10    27    18    1
    11    19    18    1
    12    16    15    1
    13    18    17    1
    14    15    17    1
    15    15    13    1
    16    17    12    1
    17     7     5    2
    18    13    14    1
    19    13    11    1
    20    12    11    1
    21     9     5    1
    22     9    10    1
    23     3     1    2
    24     5     6    1
    25     5     8    1
    26    11    10    1
    27     4     1    1
    28     8     1    1
    29     1     2    1
