@<TRIPOS>MOLECULE
2olk_AT4_A_1.pdb
 27 29 0 0 0
SMALL
GASTEIGER

@<TRIPOS>ATOM
      1  O5'       29.1790  -17.0620   -9.6860 O.3   601  AT4601     -0.3111
      2  C5'       28.1550  -17.9970  -10.0390 C.3   601  AT4601      0.1813
      3  C4'       28.1590  -18.3270  -11.5340 C.3   601  AT4601      0.1821
      4  O4'       27.9430  -17.0900  -12.2400 O.3   601  AT4601     -0.3135
      5  C3'       29.5250  -18.8500  -11.9840 C.3   601  AT4601      0.2184
      6  O3'       29.4000  -19.6980  -13.1270 O.3   601  AT4601     -0.2174
      7  C2'       30.2270  -17.5540  -12.3790 C.3   601  AT4601      0.2570
      8  C1'       29.0660  -16.8890  -13.1160 C.3   601  AT4601      0.3186
      9  N1        29.1490  -13.0910  -16.6000 N.2   601  AT4601      0.0021
     10  C2        28.9100  -14.3780  -16.7830 C.3   601  AT4601      0.5254
     11  N3        28.9370  -15.2400  -15.7830 N.2   601  AT4601     -0.0055
     12  C4        29.2120  -14.8290  -14.5380 C.2   601  AT4601      0.3518
     13  C5        29.4710  -13.4860  -14.3050 C.2   601  AT4601      0.2526
     14  C6        29.4320  -12.6100  -15.3810 C.2   601  AT4601      0.4393
     15  N6        29.6620  -11.3120  -15.2030 N.pl3 601  AT4601      0.2180
     16  N7        29.7020  -13.3420  -13.0030 N.2   601  AT4601     -0.2095
     17  C8        29.5910  -14.5410  -12.4350 C.3   601  AT4601      0.3377
     18  N9        29.2930  -15.4470  -13.3630 N.pl3 601  AT4601     -0.1439
     19  O2'       31.2920  -17.8080  -13.3000 O.3   601  AT4601     -0.2130
     20  PA        29.3390  -16.6370   -8.1410 P.3   601  AT4601      0.2216
     21  O2A       30.7950  -15.9630   -8.0180 O.2   601  AT4601     -0.5170
     22  O1A       28.2480  -15.7480   -7.6810 O.3   601  AT4601     -0.4371
     23  O3A       29.4020  -18.0310   -7.3360 O.3   601  AT4601     -0.2407
     24  PB        29.8780  -18.1350   -5.8000 P.3   601  AT4601      0.4340
     25  O1B       30.0060  -16.7630   -5.2580 O.2   601  AT4601     -0.2423
     26  O2B       28.9800  -19.0790   -5.0990 O.3   601  AT4601     -0.1305
     27  S3B       31.6310  -18.9270   -5.9520 S.3   601  AT4601      0.0416
@<TRIPOS>BOND
     1    10     9    1
     2    10    11    1
     3     9    14    2
     4    11    12    2
     5    14    15    1
     6    14    13    1
     7    12    13    1
     8    12    18    1
     9    13    16    2
    10    18     8    1
    11    18    17    1
    12    19     7    1
    13     6     5    1
    14     8     7    1
    15     8     4    1
    16    16    17    1
    17     7     5    1
    18     4     3    1
    19     5     3    1
    20     3     2    1
    21     2     1    1
    22     1    20    1
    23    20    21    2
    24    20    22    1
    25    20    23    1
    26    23    24    1
    27    27    24    1
    28    24    25    2
    29    24    26    1
