@<TRIPOS>MOLECULE
2olq_ATP_A_1.pdb
 31 33 0 0 0
SMALL
GASTEIGER

@<TRIPOS>ATOM
      1  PG        26.6160   52.3140   35.7310 P.3   541  ATP541      0.5373
      2  O1G       27.3400   51.0570   36.0060 O.3   541  ATP541     -0.1143
      3  O2G       25.9230   52.9010   36.8700 O.3   541  ATP541     -0.1143
      4  O3G       25.7510   52.2390   34.5520 O.2   541  ATP541     -0.2221
      5  PB        28.8620   53.6600   34.2600 P.3   541  ATP541      0.2277
      6  O1B       30.2160   53.2800   34.7000 O.3   541  ATP541     -0.4368
      7  O2B       28.4500   53.1530   32.9520 O.2   541  ATP541     -0.5168
      8  O3B       27.7700   53.5190   35.5000 O.3   541  ATP541     -0.2258
      9  PA        28.5700   56.1100   32.8280 P.3   541  ATP541      0.2189
     10  O1A       29.6270   55.8300   31.8490 O.2   541  ATP541     -0.5170
     11  O2A       27.1510   55.9970   32.4510 O.3   541  ATP541     -0.4371
     12  O3A       28.8390   55.2680   34.2340 O.3   541  ATP541     -0.2700
     13  O5'       28.7130   57.5370   33.4930 O.3   541  ATP541     -0.3112
     14  C5'       29.8380   58.3850   33.6560 C.3   541  ATP541      0.1813
     15  C4'       29.2750   59.7900   33.8160 C.3   541  ATP541      0.1821
     16  O4'       30.3440   60.7130   34.0120 O.3   541  ATP541     -0.3135
     17  C3'       28.4930   60.2370   32.5480 C.3   541  ATP541      0.2184
     18  O3'       27.3630   61.0280   32.9800 O.3   541  ATP541     -0.2174
     19  C2'       29.5420   61.0950   31.8280 C.3   541  ATP541      0.2570
     20  O2'       28.9530   62.1210   30.9960 O.3   541  ATP541     -0.2130
     21  C1'       30.3320   61.7030   32.9800 C.3   541  ATP541      0.3186
     22  N9        31.7560   61.9930   32.7040 N.pl3 541  ATP541     -0.1439
     23  C8        32.3620   63.2190   32.8580 C.3   541  ATP541      0.3377
     24  N7        33.6310   63.2270   32.5620 N.2   541  ATP541     -0.2095
     25  C5        33.9000   61.9160   32.1830 C.2   541  ATP541      0.2526
     26  C6        35.0870   61.2570   31.7490 C.2   541  ATP541      0.4393
     27  N6        36.2610   61.8890   31.6350 N.pl3 541  ATP541      0.2180
     28  N1        35.0020   59.9200   31.4440 N.2   541  ATP541      0.0021
     29  C2        33.8170   59.2830   31.5610 C.3   541  ATP541      0.5254
     30  N3        32.6360   59.7950   31.9600 N.2   541  ATP541     -0.0055
     31  C4        32.7530   61.1390   32.2590 C.2   541  ATP541      0.3518
@<TRIPOS>BOND
     1    20    19    1
     2    28    29    1
     3    28    26    2
     4    29    30    1
     5    27    26    1
     6    26    25    1
     7    19    17    1
     8    19    21    1
     9    10     9    2
    10    30    31    2
    11    25    31    1
    12    25    24    2
    13    31    22    1
    14    11     9    1
    15    17    18    1
    16    17    15    1
    17    24    23    1
    18    22    23    1
    19    22    21    1
    20     9    13    1
    21     9    12    1
    22     7     5    2
    23    21    16    1
    24    13    14    1
    25    14    15    1
    26    15    16    1
    27    12     5    1
    28     5     6    1
    29     5     8    1
    30     4     1    2
    31     8     1    1
    32     1     2    1
    33     1     3    1
