@<TRIPOS>MOLECULE
2olr_ATP_A_1.pdb
 31 33 0 0 0
SMALL
GASTEIGER

@<TRIPOS>ATOM
      1  PG        31.0650    4.9100   10.0870 P.3   541  ATP541      0.5373
      2  O1G       30.1770    3.8730    9.4670 O.3   541  ATP541     -0.1143
      3  O2G       31.9880    5.5560    9.0760 O.2   541  ATP541     -0.2221
      4  O3G       31.7110    4.5220   11.3930 O.3   541  ATP541     -0.1143
      5  PB        29.0230    6.3130   11.6770 P.3   541  ATP541      0.2277
      6  O1B       27.6000    5.9810   11.2780 O.2   541  ATP541     -0.5168
      7  O2B       29.5610    5.7010   12.9400 O.3   541  ATP541     -0.4368
      8  O3B       30.0220    6.1370   10.4140 O.3   541  ATP541     -0.2258
      9  PA        29.4620    8.7000   13.1750 P.3   541  ATP541      0.2189
     10  O1A       28.3990    8.5150   14.2070 O.3   541  ATP541     -0.4371
     11  O2A       30.9150    8.4650   13.5090 O.2   541  ATP541     -0.5170
     12  O3A       29.0470    7.9110   11.8370 O.3   541  ATP541     -0.2700
     13  O5'       29.3630   10.1660   12.5310 O.3   541  ATP541     -0.3112
     14  C5'       28.2080   10.9880   12.5410 C.3   541  ATP541      0.1813
     15  C4'       28.7800   12.3660   12.2080 C.3   541  ATP541      0.1821
     16  O4'       27.7100   13.2630   11.9530 O.3   541  ATP541     -0.3135
     17  C3'       29.5510   12.9820   13.3740 C.3   541  ATP541      0.2184
     18  O3'       30.5610   13.8590   12.8260 O.3   541  ATP541     -0.2174
     19  C2'       28.4820   13.7780   14.1010 C.3   541  ATP541      0.2570
     20  O2'       29.0090   14.8360   14.9050 O.3   541  ATP541     -0.2130
     21  C1'       27.7060   14.3280   12.9160 C.3   541  ATP541      0.3186
     22  N9        26.3010   14.7130   13.1840 N.pl3 541  ATP541     -0.1439
     23  C8        25.7790   15.9350   12.9760 C.3   541  ATP541      0.3377
     24  N7        24.4520   15.9570   13.2780 N.2   541  ATP541     -0.2095
     25  C5        24.1390   14.7120   13.6860 C.2   541  ATP541      0.2526
     26  C6        22.9110   14.0570   14.1540 C.2   541  ATP541      0.4393
     27  N6        21.7530   14.7600   14.2420 N.pl3 541  ATP541      0.2180
     28  N1        22.9950   12.7490   14.4890 N.2   541  ATP541      0.0021
     29  C2        24.1510   12.0410   14.4040 C.3   541  ATP541      0.5254
     30  N3        25.3230   12.5740   13.9800 N.2   541  ATP541     -0.0055
     31  C4        25.3560   13.8920   13.6270 C.2   541  ATP541      0.3518
@<TRIPOS>BOND
     1     3     1    2
     2     2     1    1
     3     1     8    1
     4     1     4    1
     5     8     5    1
     6     6     5    2
     7     5    12    1
     8     5     7    1
     9    12     9    1
    10    16    15    1
    11    16    21    1
    12    15    14    1
    13    15    17    1
    14    13    14    1
    15    13     9    1
    16    18    17    1
    17    21    22    1
    18    21    19    1
    19    23    22    1
    20    23    24    1
    21     9    11    2
    22     9    10    1
    23    22    31    1
    24    24    25    2
    25    17    19    1
    26    31    25    1
    27    31    30    2
    28    25    26    1
    29    30    29    1
    30    19    20    1
    31    26    27    1
    32    26    28    2
    33    29    28    1
