@<TRIPOS>MOLECULE
2om2_GDP_A_1.pdb
 28 30 0 0 0
SMALL
GASTEIGER

@<TRIPOS>ATOM
      1  PB        18.8980    9.4750   20.5810 P.3   355  GDP355      0.5373
      2  O1B       19.0940   10.8950   20.8160 O.3   355  GDP355     -0.1143
      3  O2B       18.9920    8.6050   21.7520 O.3   355  GDP355     -0.1143
      4  O3B       17.5730    9.3090   19.8000 O.2   355  GDP355     -0.2221
      5  O3A       20.0430    9.1120   19.5080 O.3   355  GDP355     -0.2261
      6  PA        21.2790    8.0990   19.4650 P.3   355  GDP355      0.2231
      7  O1A       22.1990    8.4330   20.5850 O.3   355  GDP355     -0.4370
      8  O2A       21.7740    8.1080   18.1200 O.2   355  GDP355     -0.5169
      9  O5'       20.6200    6.6530   19.8330 O.3   355  GDP355     -0.3111
     10  C5'       20.5200    5.6130   18.8490 C.3   355  GDP355      0.1813
     11  C4'       21.6160    4.5080   18.8760 C.3   355  GDP355      0.1799
     12  O4'       21.4150    3.8770   17.6210 O.3   355  GDP355     -0.3326
     13  C3'       23.0690    4.9600   18.8320 C.3   355  GDP355      0.2158
     14  O3'       23.8610    4.0230   19.5570 O.3   355  GDP355     -0.2175
     15  C2'       23.5000    4.9640   17.3610 C.3   355  GDP355      0.2310
     16  O2'       24.8620    4.6050   17.0680 O.3   355  GDP355     -0.2158
     17  C1'       22.5410    3.9780   16.7590 C.3   355  GDP355      0.2293
     18  N9        21.9680    4.4390   15.4980 N.pl3 355  GDP355     -0.2354
     19  C8        21.3490    5.6210   15.1790 C.3   355  GDP355      0.2246
     20  N7        20.9230    5.7240   13.9670 N.2   355  GDP355     -0.2322
     21  C5        21.2890    4.4970   13.4210 C.2   355  GDP355      0.2182
     22  C6        21.0870    3.9720   12.0940 C.1   355  GDP355      0.2372
     23  O6        20.5300    4.5150   11.1470 O.2   355  GDP355     -0.2069
     24  N1        21.6210    2.6700   11.9520 N.2   355  GDP355     -0.2485
     25  C2        22.2720    1.9460   12.9530 C.1   355  GDP355      0.2531
     26  N2        22.7220    0.7250   12.6380 N.pl3 355  GDP355     -0.0226
     27  N3        22.4550    2.4330   14.1970 N.2   355  GDP355     -0.3074
     28  C4        21.9410    3.7030   14.3550 C.2   355  GDP355      0.2300
@<TRIPOS>BOND
     1    23    22    2
     2    24    22    2
     3    24    25    2
     4    22    21    1
     5    26    25    1
     6    25    27    2
     7    21    20    2
     8    21    28    1
     9    20    19    1
    10    27    28    2
    11    28    18    1
    12    19    18    1
    13    18    17    1
    14    17    15    1
    15    17    12    1
    16    16    15    1
    17    15    13    1
    18    12    11    1
    19     8     6    2
    20    13    11    1
    21    13    14    1
    22    10    11    1
    23    10     9    1
    24     6     5    1
    25     6     9    1
    26     6     7    1
    27     5     1    1
    28     4     1    2
    29     1     2    1
    30     1     3    1
