@<TRIPOS>MOLECULE
2om9_AJA_A_1.pdb
 29 31 0 0 0
SMALL
GASTEIGER

@<TRIPOS>ATOM
      1  O27       16.6880   -8.1850  -44.9470 O.co2 501  AJA501     -0.2457
      2  C16       17.2690   -7.2700  -44.3240 C.2   501  AJA501      0.3643
      3  O26       16.7600   -6.1370  -44.1830 O.co2 501  AJA501     -0.2457
      4  C10       18.5820   -7.5330  -43.7420 C.3   501  AJA501      0.1037
      5  C9        18.8840   -8.8840  -43.1380 C.3   501  AJA501      0.0159
      6  C8        20.3850   -9.0110  -42.9050 C.3   501  AJA501      0.0324
      7  C7        20.7370  -10.4410  -42.7490 C.ar  501  AJA501      0.0504
      8  C6        19.8580  -11.2820  -42.0870 C.ar  501  AJA501      0.1943
      9  O15       18.6900  -10.7870  -41.5910 O.3   501  AJA501     -0.2868
     10  C5        20.1630  -12.6280  -41.9260 C.ar  501  AJA501      0.0376
     11  C4        21.3540  -13.1330  -42.4310 C.ar  501  AJA501     -0.0166
     12  C19       21.6890  -14.5850  -42.2610 C.3   501  AJA501      0.0191
     13  C25       20.4090  -15.4020  -42.3990 C.3   501  AJA501      0.0044
     14  C20       22.2960  -14.7880  -40.8780 C.3   501  AJA501      0.0040
     15  C21       23.4350  -13.8050  -40.6320 C.3   501  AJA501      0.0003
     16  C22       24.1040  -14.0700  -39.2890 C.3   501  AJA501      0.0000
     17  C23       25.6220  -14.0650  -39.4240 C.3   501  AJA501      0.0000
     18  C28       26.2780  -13.4460  -38.1960 C.3   501  AJA501      0.0000
     19  C29       27.7840  -13.4170  -38.3420 C.3   501  AJA501      0.0000
     20  C24       22.6880  -14.9860  -43.3390 C.3   501  AJA501      0.0044
     21  C3        22.2350  -12.2890  -43.0950 C.ar  501  AJA501      0.0325
     22  C2        21.9280  -10.9420  -43.2550 C.ar  501  AJA501      0.1369
     23  O1        22.8140  -10.1300  -43.9140 O.3   501  AJA501     -0.4828
     24  C14       22.6530   -8.7140  -43.9090 C.3   501  AJA501      0.1335
     25  C18       23.1810   -8.1650  -42.5890 C.3   501  AJA501      0.0436
     26  C17       23.4360   -8.1270  -45.0770 C.3   501  AJA501      0.0436
     27  C13       21.1710   -8.4010  -44.0570 C.3   501  AJA501      0.0409
     28  C12       20.9410   -6.8960  -44.1430 C.3   501  AJA501      0.0043
     29  C11       19.5200   -6.5760  -43.7440 C.3   501  AJA501      0.0114
@<TRIPOS>BOND
     1    26    24    1
     2     1     2   ar
     3     2     3   ar
     4     2     4    1
     5    28    27    1
     6    28    29    1
     7    27    24    1
     8    27     6    1
     9    23    24    1
    10    23    22    1
    11    24    25    1
    12    29     4    1
    13     4     5    1
    14    20    12    1
    15    22    21   ar
    16    22     7   ar
    17     5     6    1
    18    21    11   ar
    19     6     7    1
    20     7     8   ar
    21    11    12    1
    22    11    10   ar
    23    13    12    1
    24    12    14    1
    25     8    10   ar
    26     8     9    1
    27    14    15    1
    28    15    16    1
    29    17    16    1
    30    17    18    1
    31    19    18    1
