@<TRIPOS>MOLECULE
2ome_NAD_A_1.pdb
 44 48 0 0 0
SMALL
GASTEIGER

@<TRIPOS>ATOM
      1  PA         8.3540   -3.2150   11.8920 P.3   901  NAD901      0.2189
      2  O1A        7.7300   -4.4980   12.2540 O.2   901  NAD901     -0.5170
      3  O2A        8.6500   -2.5040   13.1400 O.3   901  NAD901     -0.4371
      4  O5B        7.4390   -2.2780   10.9420 O.3   901  NAD901     -0.3112
      5  C5B        7.0610   -2.5930    9.6070 C.3   901  NAD901      0.1813
      6  C4B        5.7270   -1.9160    9.2710 C.3   901  NAD901      0.1821
      7  O4B        5.3940   -2.0240    7.8880 O.3   901  NAD901     -0.3135
      8  C3B        4.5370   -2.4880   10.0510 C.3   901  NAD901      0.2184
      9  O3B        4.0260   -1.5300   10.9720 O.3   901  NAD901     -0.2174
     10  C2B        3.5820   -2.9240    8.9410 C.3   901  NAD901      0.2570
     11  O2B        2.2560   -2.7530    9.2770 O.3   901  NAD901     -0.2130
     12  C1B        3.9760   -2.0470    7.7790 C.3   901  NAD901      0.3186
     13  N9A        3.6040   -2.4910    6.4240 N.pl3 901  NAD901     -0.1439
     14  C8A        3.6340   -3.7480    5.8850 C.3   901  NAD901      0.3377
     15  N7A        3.2600   -3.6790    4.5890 N.2   901  NAD901     -0.2095
     16  C5A        2.9890   -2.4070    4.2720 C.2   901  NAD901      0.2526
     17  C6A        2.5630   -1.7860    3.0990 C.2   901  NAD901      0.4393
     18  N6A        2.3270   -2.4390    1.9760 N.pl3 901  NAD901      0.2180
     19  N1A        2.3900   -0.4260    3.0920 N.2   901  NAD901      0.0021
     20  C2A        2.6240    0.2940    4.2490 C.3   901  NAD901      0.5254
     21  N3A        3.0400   -0.3200    5.4050 N.2   901  NAD901     -0.0055
     22  C4A        3.2240   -1.6500    5.4150 C.2   901  NAD901      0.3518
     23  O3         9.6160   -3.4530   10.9310 O.3   901  NAD901     -0.2703
     24  PN        10.9430   -2.6450   11.2770 P.3   901  NAD901      0.2189
     25  O1N       10.6530   -1.2260   11.5560 O.2   901  NAD901     -0.5170
     26  O2N       11.6410   -3.3730   12.3890 O.3   901  NAD901     -0.4371
     27  O5D       11.7460   -2.7530    9.8980 O.3   901  NAD901     -0.3112
     28  C5D       11.0090   -2.7020    8.7230 C.3   901  NAD901      0.1813
     29  C4D       11.7210   -3.5160    7.6620 C.3   901  NAD901      0.1799
     30  O4D       12.8970   -2.8330    7.2910 O.3   901  NAD901     -0.3327
     31  C3D       12.1090   -4.9060    8.1360 C.3   901  NAD901      0.2158
     32  O3D       11.1280   -5.9010    7.9200 O.3   901  NAD901     -0.2175
     33  C2D       13.3510   -5.1650    7.3190 C.3   901  NAD901      0.2309
     34  O2D       13.0640   -5.8300    6.1100 O.3   901  NAD901     -0.2158
     35  C1D       13.8770   -3.7840    6.9710 C.3   901  NAD901      0.2263
     36  N1N       15.1500   -3.5850    7.6900 N.pl3 901  NAD901     -0.2787
     37  C2N       16.2360   -3.3370    6.9300 C.3   901  NAD901      0.1244
     38  C3N       17.4520   -3.1500    7.5360 C.2   901  NAD901      0.0544
     39  C7N       18.6140   -2.9140    6.6450 C.2   901  NAD901      0.2818
     40  O7N       19.8610   -3.3000    7.0880 O.2   901  NAD901     -0.2670
     41  N7N       18.4510   -2.4000    5.4550 N.am  901  NAD901     -0.0839
     42  C4N       17.5960   -3.2250    8.9170 C.2   901  NAD901      0.0033
     43  C5N       16.4640   -3.4740    9.6790 C.2   901  NAD901      0.0157
     44  C6N       15.2370   -3.6660    9.0560 C.2   901  NAD901      0.0633
@<TRIPOS>BOND
     1    18    17    1
     2    19    17    2
     3    19    20    1
     4    17    16    1
     5    20    21    1
     6    16    15    2
     7    16    22    1
     8    15    14    1
     9    21    22    2
    10    22    13    1
    11    41    39   am
    12    14    13    1
    13    34    33    1
    14    13    12    1
    15    39    40    2
    16    39    38    1
    17    37    38    1
    18    37    36    1
    19    35    30    1
    20    35    33    1
    21    35    36    1
    22    30    29    1
    23    33    31    1
    24    38    42    2
    25    29    31    1
    26    29    28    1
    27    36    44    1
    28    12     7    1
    29    12    10    1
    30     7     6    1
    31    32    31    1
    32    28    27    1
    33    42    43    1
    34    10    11    1
    35    10     8    1
    36    44    43    2
    37     6     5    1
    38     6     8    1
    39     5     4    1
    40    27    24    1
    41     8     9    1
    42    23    24    1
    43    23     1    1
    44     4     1    1
    45    24    25    2
    46    24    26    1
    47     1     2    2
    48     1     3    1
