@<TRIPOS>MOLECULE
2on5_GSH_A_1.pdb
 20 19 0 0 0
SMALL
GASTEIGER

@<TRIPOS>ATOM
      1  N1        17.0010    0.0990   43.2880 N.3   999  GSH999     -0.1208
      2  CA1       17.6370    0.9450   44.3270 C.3   999  GSH999      0.1948
      3  C1        18.5690    1.9580   43.6690 C.2   999  GSH999      0.3819
      4  O11       19.5370    1.4510   43.0640 O.co2 999  GSH999     -0.2441
      5  O12       18.4340    3.2150   43.6940 O.co2 999  GSH999     -0.2441
      6  CB1       16.6370    1.5240   45.3310 C.3   999  GSH999      0.0402
      7  CG1       17.2150    2.6290   46.2090 C.3   999  GSH999      0.0889
      8  CD1       17.2110    2.3180   47.7020 C.2   999  GSH999      0.2418
      9  OE1       17.0610    1.0000   48.2150 O.2   999  GSH999     -0.2733
     10  N2        17.3630    3.4120   48.4530 N.am  999  GSH999     -0.1968
     11  CA2       17.8900    3.5110   49.8070 C.3   999  GSH999      0.1843
     12  C2        16.9760    4.3710   50.6490 C.2   999  GSH999      0.2627
     13  O2        16.1510    5.3730   50.0800 O.2   999  GSH999     -0.2714
     14  CB2       19.2820    4.1210   49.7620 C.3   999  GSH999      0.0997
     15  SG2       20.6660    2.9550   49.9480 S.3   999  GSH999     -0.0797
     16  N3        16.9480    4.1200   51.9570 N.am  999  GSH999     -0.1917
     17  CA3       16.0070    4.7910   52.8330 C.3   999  GSH999      0.2285
     18  C3        14.5450    4.4520   52.6210 C.2   999  GSH999      0.3865
     19  O31       14.2050    3.5080   51.8730 O.co2 999  GSH999     -0.2437
     20  O32       13.6500    5.1090   53.2010 O.co2 999  GSH999     -0.2437
@<TRIPOS>BOND
     1     4     3   ar
     2     1     2    1
     3     3     5   ar
     4     3     2    1
     5     2     6    1
     6     6     7    1
     7     7     8    1
     8     8     9    2
     9     8    10   am
    10    10    11    1
    11    14    11    1
    12    14    15    1
    13    11    12    1
    14    13    12    2
    15    12    16   am
    16    19    18   ar
    17    16    17    1
    18    18    17    1
    19    18    20   ar
