@<TRIPOS>MOLECULE
2on6_IMH_A_1.pdb
 19 21 0 0 0
SMALL
GASTEIGER

@<TRIPOS>ATOM
      1  O5'       11.8990   15.7990   61.6140 O.3   300  IMH300     -0.2188
      2  C5'       11.0290   14.9850   60.8250 C.3   300  IMH300      0.2020
      3  C4'       11.5770   13.5810   60.7170 C.3   300  IMH300      0.1389
      4  N4'       11.7040   13.1300   59.3210 N.3   300  IMH300     -0.2083
      5  C3'       12.9960   13.5380   61.2970 C.3   300  IMH300      0.2023
      6  O3'       13.0530   13.0910   62.6700 O.3   300  IMH300     -0.2188
      7  C2'       13.8320   12.7190   60.2760 C.3   300  IMH300      0.2036
      8  O2'       14.7220   11.7240   60.8560 O.3   300  IMH300     -0.2185
      9  C1'       12.8400   12.2090   59.1820 C.3   300  IMH300      0.1309
     10  C9        13.5460   11.8920   57.8740 C.2   300  IMH300      0.0348
     11  C8        14.5140   12.6510   57.2000 C.2   300  IMH300      0.0984
     12  N7        14.9500   11.9320   56.0930 N.2   300  IMH300     -0.2310
     13  C5        14.3450   10.7150   56.0180 C.2   300  IMH300      0.1804
     14  C6        14.3540    9.5200   55.1430 C.1   300  IMH300      0.1716
     15  O6        15.1470    9.4410   54.0480 O.2   300  IMH300     -0.2206
     16  N1        13.5340    8.4750   55.4520 N.2   300  IMH300     -0.1739
     17  C2        12.7090    8.4630   56.5240 C.3   300  IMH300      0.2626
     18  N3        12.6340    9.5040   57.3650 N.2   300  IMH300     -0.2415
     19  C4        13.4170   10.5970   57.1610 C.2   300  IMH300      0.1059
@<TRIPOS>BOND
     1    15    14    2
     2    14    16    2
     3    14    13    1
     4    16    17    1
     5    13    12    2
     6    13    19    1
     7    12    11    1
     8    17    18    1
     9    19    18    2
    10    19    10    1
    11    11    10    2
    12    10     9    1
    13     9     4    1
    14     9     7    1
    15     4     3    1
    16     7     8    1
    17     7     5    1
    18     3     2    1
    19     3     5    1
    20     2     1    1
    21     5     6    1
