@<TRIPOS>MOLECULE
2onb_7PA_A_1.pdb
 11 10 0 0 0
SMALL
GASTEIGER

@<TRIPOS>ATOM
      1  O1        51.4810  -14.0090   24.8910 O.2   319  7PA319     -0.4601
      2  O2        52.7180  -12.7770   26.7340 O.3   319  7PA319     -0.3571
      3  C1        50.8790  -17.6940   26.8310 C.3   319  7PA319      0.0594
      4  C2        51.3140  -16.5480   27.7530 C.3   319  7PA319      0.0154
      5  P1        50.4480  -19.4620   27.1570 P.3   319  7PA319      0.1172
      6  C3        52.0970  -15.4400   27.0350 C.3   319  7PA319      0.0594
      7  P2        51.5920  -13.7620   26.4150 P.3   319  7PA319      0.1172
      8  O3        51.5400  -19.8480   28.1780 O.3   319  7PA319     -0.3571
      9  O4        50.6270  -20.2640   25.8670 O.2   319  7PA319     -0.4601
     10  O5        50.2560  -13.3580   27.0200 O.3   319  7PA319     -0.3571
     11  O6        49.0530  -19.5720   27.7130 O.3   319  7PA319     -0.3571
@<TRIPOS>BOND
     1     1     7    2
     2     9     5    2
     3     7     2    1
     4     7    10    1
     5     7     6    1
     6     3     5    1
     7     3     4    1
     8     6     4    1
     9     5    11    1
    10     5     8    1
