@<TRIPOS>MOLECULE
2onc_SY1_A_1.pdb
 27 30 0 0 0
SMALL
GASTEIGER

@<TRIPOS>ATOM
      1  N1       -43.4770  -20.3300   19.0220 N.3   800  SY1800     -0.1311
      2  C4       -45.8340  -21.2380   16.3980 C.3   800  SY1800      0.0231
      3  C5       -44.8550  -20.7110   15.3710 C.3   800  SY1800      0.0945
      4  C7       -43.6780  -19.3870   16.9680 C.3   800  SY1800      0.1133
      5  C8       -43.7380  -18.7240   14.6910 C.2   800  SY1800      0.2477
      6  C10      -43.7220  -16.6570   13.4990 C.2   800  SY1800      0.1382
      7  C13      -42.6830  -15.0430   11.4940 C.3   800  SY1800      0.0523
      8  C15      -42.7010  -17.1230   12.6830 C.2   800  SY1800      0.0797
      9  C20      -40.6500  -20.7220   14.1100 C.ar  800  SY1800      0.0078
     10  C21      -40.0220  -21.6200   13.2430 C.ar  800  SY1800     -0.0019
     11  C22      -38.6320  -21.7740   13.2280 C.ar  800  SY1800     -0.0002
     12  C24      -38.4630  -20.1260   14.9670 C.ar  800  SY1800      0.0100
     13  C26      -40.3650  -19.1370   15.8070 C.1   800  SY1800      0.1001
     14  N27      -40.8610  -18.4350   16.5820 N.1   800  SY1800     -0.1908
     15  C25      -39.8520  -19.9760   14.9780 C.ar  800  SY1800      0.0661
     16  C23      -37.8420  -21.0220   14.0950 C.ar  800  SY1800      0.0007
     17  C19      -42.1750  -20.6120   14.0800 C.3   800  SY1800      0.1294
     18  N18      -42.7290  -19.2440   13.9170 N.am  800  SY1800     -0.2139
     19  N6       -44.4670  -19.3490   15.7490 N.pl3 800  SY1800     -0.2698
     20  C3       -45.1670  -21.2750   17.7760 C.3   800  SY1800      0.0225
     21  C2       -44.5320  -19.9080   18.1250 C.3   800  SY1800      0.1117
     22  C16      -42.2010  -18.4920   12.9300 C.2   800  SY1800      0.2579
     23  O17      -41.2800  -18.9250   12.1940 O.2   800  SY1800     -0.2694
     24  N9       -44.2010  -17.4680   14.4650 N.2   800  SY1800     -0.3726
     25  C14      -42.1720  -16.3280   11.6720 C.2   800  SY1800     -0.0143
     26  C12      -43.7080  -14.5680   12.3210 C.2   800  SY1800     -0.0188
     27  C11      -44.2360  -15.3730   13.3230 C.2   800  SY1800      0.0281
@<TRIPOS>BOND
     1     7    25    1
     2     7    26    1
     3    25     8    2
     4    23    22    2
     5    26    27    2
     6     8    22    1
     7     8     6    1
     8    22    18   am
     9    11    10   ar
    10    11    16   ar
    11    10     9   ar
    12    27     6    1
    13     6    24    2
    14    18    17    1
    15    18     5    1
    16    17     9    1
    17    16    12   ar
    18     9    15   ar
    19    24     5    2
    20     5    19    1
    21    12    15   ar
    22    15    13    1
    23     3    19    1
    24     3     2    1
    25    19     4    1
    26    13    14    3
    27     2    20    1
    28     4    21    1
    29    20    21    1
    30    21     1    1
