@<TRIPOS>MOLECULE
2onc_NAG_A_1.pdb
 14 14 0 0 0
SMALL
GASTEIGER

@<TRIPOS>ATOM
      1  C1       -68.9130  -25.5370   43.2580 C.3   804  NAG804      0.1665
      2  C2       -70.1080  -25.3750   44.2090 C.3   804  NAG804      0.1576
      3  C3       -70.1810  -26.4300   45.3220 C.3   804  NAG804      0.2069
      4  C4       -69.8000  -27.8400   44.8640 C.3   804  NAG804      0.2134
      5  C5       -68.5530  -27.8030   43.9660 C.3   804  NAG804      0.1809
      6  C6       -68.2010  -29.1790   43.4000 C.3   804  NAG804      0.2141
      7  C7       -71.0260  -23.1430   44.6110 C.2   804  NAG804      0.2420
      8  C8       -71.2280  -22.1330   45.7110 C.3   804  NAG804      0.0964
      9  N2       -70.0730  -24.0560   44.8150 N.am  804  NAG804     -0.2019
     10  O3       -71.5010  -26.4700   45.8210 O.3   804  NAG804     -0.2184
     11  O4       -69.6200  -28.6820   45.9930 O.3   804  NAG804     -0.2176
     12  O5       -68.7470  -26.8990   42.8870 O.3   804  NAG804     -0.3489
     13  O6       -69.2420  -29.6380   42.5680 O.3   804  NAG804     -0.2176
     14  O7       -71.7160  -23.1000   43.5860 O.2   804  NAG804     -0.2733
@<TRIPOS>BOND
     1    13     6    1
     2    12     1    1
     3    12     5    1
     4     1     2    1
     5     6     5    1
     6    14     7    2
     7     5     4    1
     8     2     9    1
     9     2     3    1
    10     7     9   am
    11     7     8    1
    12     4     3    1
    13     4    11    1
    14     3    10    1
