@<TRIPOS>MOLECULE
2one_2PG_A_1.pdb
 11 10 0 0 0
SMALL
GASTEIGER

@<TRIPOS>ATOM
      1  C1       -10.4990   51.9880  -11.5770 C.2   441  2PG441      0.3946
      2  C2        -9.1630   52.4410  -11.1210 C.3   441  2PG441      0.2610
      3  C3        -8.7710   53.9900  -11.1530 C.3   441  2PG441      0.2237
      4  P         -7.8850   50.6470   -9.5690 P.3   441  2PG441      0.5331
      5  O1       -11.2920   51.1450  -11.0410 O.co2 441  2PG441     -0.2428
      6  O2       -10.8320   52.5550  -12.6910 O.co2 441  2PG441     -0.2428
      7  O3        -9.4450   55.0310  -10.3430 O.3   441  2PG441     -0.2170
      8  O1P       -8.9560   51.9310   -9.7350 O.3   441  2PG441     -0.2583
      9  O2P       -6.4900   51.1050   -9.9460 O.3   441  2PG441     -0.1145
     10  O3P       -7.7110   50.3590   -8.0370 O.3   441  2PG441     -0.1145
     11  O4P       -8.4320   49.5200  -10.5080 O.2   441  2PG441     -0.2224
@<TRIPOS>BOND
     1     6     1   ar
     2     1     2    1
     3     1     5   ar
     4     3     2    1
     5     3     7    1
     6     2     8    1
     7    11     4    2
     8     9     4    1
     9     8     4    1
    10     4    10    1
