@<TRIPOS>MOLECULE
2one_PEP_B_1.pdb
 10 9 0 0 0
SMALL
GASTEIGER

@<TRIPOS>ATOM
      1  C1         3.6430   72.1070   10.9910 C.2   440  PEP440      0.4216
      2  O1         4.7830   71.6270   11.2890 O.co2 440  PEP440     -0.2371
      3  O2'        2.9360   72.7720   11.6710 O.co2 440  PEP440     -0.2371
      4  C2         3.2960   71.8860    9.5180 C.2   440  PEP440      0.2283
      5  C3         3.8850   70.9620    8.7370 C.2   440  PEP440      0.0477
      6  O2         2.1360   72.5930    9.2230 O.2   440  PEP440     -0.3930
      7  P          1.9970   73.8810    8.3230 P.3   440  PEP440      0.5889
      8  O1P        0.5740   74.1040    8.0530 O.3   440  PEP440     -0.1039
      9  O2P        2.7660   73.7400    7.0520 O.2   440  PEP440     -0.2114
     10  O3P        2.7860   74.8570    9.2500 O.3   440  PEP440     -0.1039
@<TRIPOS>BOND
     1     9     7    2
     2     8     7    1
     3     7     6    1
     4     7    10    1
     5     5     4    2
     6     6     4    1
     7     4     1    1
     8     1     2   ar
     9     1     3   ar
