@<TRIPOS>MOLECULE
2onf_COA_B_1.pdb
 48 50 0 0 0
SMALL
GASTEIGER

@<TRIPOS>ATOM
      1  N1A       -1.0930    2.6010    6.7290 N.2   140  COA140      0.0021
      2  C2A       -0.4120    2.2880    5.5840 C.3   140  COA140      0.5254
      3  N3A        0.2470    3.2100    4.8290 N.2   140  COA140     -0.0055
      4  C4A        0.2230    4.5310    5.2780 C.2   140  COA140      0.3518
      5  C5A       -0.4620    4.8790    6.4390 C.2   140  COA140      0.2526
      6  C6A       -1.1060    3.8730    7.1770 C.2   140  COA140      0.4393
      7  N6A       -1.9490    4.1390    8.1640 N.pl3 140  COA140      0.2180
      8  N7A       -0.3210    6.2290    6.6240 N.2   140  COA140     -0.2095
      9  C8A        0.3930    6.7390    5.5910 C.3   140  COA140      0.3377
     10  N9A        0.7460    5.6910    4.7600 N.pl3 140  COA140     -0.1439
     11  C1B        1.5120    5.7600    3.5560 C.3   140  COA140      0.3185
     12  C2B        0.7240    6.4030    2.4300 C.3   140  COA140      0.2543
     13  O2B       -0.1500    5.5870    1.6740 O.3   140  COA140     -0.2131
     14  C3B        1.8780    6.8870    1.5830 C.3   140  COA140      0.1928
     15  O3B        2.3380    5.8480    0.7170 O.3   140  COA140     -0.2673
     16  P3B        3.1830    6.0470   -0.6250 P.3   140  COA140      0.5327
     17  O7A        3.4130    4.6710   -1.1790 O.3   140  COA140     -0.1145
     18  O8A        2.4110    6.9860   -1.5890 O.2   140  COA140     -0.2224
     19  O9A        4.5100    6.6390   -0.2570 O.3   140  COA140     -0.1145
     20  C4B        2.9300    7.2840    2.5990 C.3   140  COA140      0.1795
     21  O4B        2.6130    6.6120    3.8060 O.3   140  COA140     -0.3136
     22  C5B        2.9690    8.7890    2.9230 C.3   140  COA140      0.1812
     23  O5B        1.7220    9.1770    3.4550 O.3   140  COA140     -0.3112
     24  P1A        0.8950   10.4160    2.7750 P.3   140  COA140      0.2189
     25  O1A       -0.2530   10.6880    3.6880 O.3   140  COA140     -0.4371
     26  O2A        0.7630   10.1050    1.3130 O.2   140  COA140     -0.5170
     27  O3A        1.9580   11.6540    2.8050 O.3   140  COA140     -0.2703
     28  P2A        2.3140   12.6970    3.9690 P.3   140  COA140      0.2188
     29  O4A        1.1160   13.0700    4.8040 O.3   140  COA140     -0.4371
     30  O5A        3.0440   13.8110    3.2080 O.2   140  COA140     -0.5170
     31  O6A        3.4330   11.8970    4.8430 O.3   140  COA140     -0.3138
     32  CBP        4.4170   11.0090    6.8640 C.3   140  COA140      0.0645
     33  CCP        3.1330   11.1800    6.0350 C.3   140  COA140      0.1519
     34  CDP        5.4620   10.4640    5.8940 C.3   140  COA140      0.0056
     35  CEP        4.1710   10.0070    7.9790 C.3   140  COA140      0.0056
     36  CAP        4.8030   12.4130    7.3540 C.3   140  COA140      0.2312
     37  OAP        3.7640   13.0070    8.1180 O.3   140  COA140     -0.2131
     38  C9P        6.0730   12.4030    8.1660 C.2   140  COA140      0.2719
     39  O9P        7.2700   12.2100    7.5330 O.2   140  COA140     -0.2706
     40  N8P        6.0480   12.5830    9.4930 N.am  140  COA140     -0.2028
     41  C7P        7.2300   12.4610   10.3080 C.3   140  COA140      0.1248
     42  C6P        7.4150   11.0140   10.7990 C.3   140  COA140      0.1102
     43  C5P        8.4550   10.9750   11.8970 C.2   140  COA140      0.2432
     44  O5P        8.1140   11.0890   13.0550 O.2   140  COA140     -0.2733
     45  N4P        9.7140   10.7970   11.5380 N.am  140  COA140     -0.2044
     46  C3P       10.7900   10.8380   12.4960 C.3   140  COA140      0.1276
     47  C2P       11.3470   12.2440   12.6680 C.3   140  COA140      0.0920
     48  S1P       12.9100   12.1890   13.6390 S.3   140  COA140     -0.0802
@<TRIPOS>BOND
     1    18    16    2
     2    17    16    1
     3    16    19    1
     4    16    15    1
     5    15    14    1
     6    26    24    2
     7    14    12    1
     8    14    20    1
     9    13    12    1
    10    12    11    1
    11    20    22    1
    12    20    21    1
    13    24    27    1
    14    24    23    1
    15    24    25    1
    16    27    28    1
    17    22    23    1
    18    30    28    2
    19    11    21    1
    20    11    10    1
    21    28    29    1
    22    28    31    1
    23    10     4    1
    24    10     9    1
    25     3     4    2
    26     3     2    1
    27    31    33    1
    28     4     5    1
    29     2     1    1
    30     9     8    1
    31    34    32    1
    32    33    32    1
    33     5     8    2
    34     5     6    1
    35     1     6    2
    36    32    36    1
    37    32    35    1
    38     6     7    1
    39    36    37    1
    40    36    38    1
    41    39    38    2
    42    38    40   am
    43    40    41    1
    44    41    42    1
    45    42    43    1
    46    45    43   am
    47    45    46    1
    48    43    44    2
    49    46    47    1
    50    47    48    1
