@<TRIPOS>MOLECULE
2ong_FPG_A_1.pdb
 20 19 0 0 0
SMALL
GASTEIGER

@<TRIPOS>ATOM
      1  C9        19.9960   58.3950  -56.4410 C.3   600  FPG600      0.0000
      2  C7        21.1550   57.5610  -56.3570 C.3   600  FPG600      0.0000
      3  C6        21.2960   56.5390  -55.2250 C.3   600  FPG600      0.0001
      4  C8        22.1100   57.5880  -57.4240 C.3   600  FPG600      0.0000
      5  C2        22.0960   54.5940  -52.8240 C.3   600  FPG600      0.1860
      6  C1        20.7300   54.6230  -52.3990 C.3   600  FPG600      0.0406
      7  C10       22.3090   56.8140  -51.7030 C.3   600  FPG600      0.0329
      8  C5        22.6930   55.9170  -55.1710 C.3   600  FPG600      0.0025
      9  C4        23.4540   56.3490  -53.9150 C.3   600  FPG600      0.0304
     10  F         22.5760   53.5170  -53.4480 F     600  FPG600     -0.2348
     11  C3        22.9100   55.6990  -52.5820 C.3   600  FPG600      0.1289
     12  O1        24.0930   55.3610  -51.8420 O.3   600  FPG600     -0.3160
     13  PA        24.0960   54.4080  -50.5440 P.3   600  FPG600      0.2229
     14  O1A       25.4910   54.6920  -49.8040 O.2   600  FPG600     -0.5169
     15  O2A       22.9260   54.6050  -49.6610 O.3   600  FPG600     -0.4370
     16  O3A       24.1770   52.9050  -51.1210 O.3   600  FPG600     -0.2261
     17  PB        24.9230   51.7350  -50.3020 P.3   600  FPG600      0.5373
     18  O2B       23.8120   51.0390  -49.3730 O.3   600  FPG600     -0.1143
     19  O3B       25.3620   50.6570  -51.4110 O.2   600  FPG600     -0.2221
     20  O1B       26.0860   52.2500  -49.5450 O.3   600  FPG600     -0.1143
@<TRIPOS>BOND
     1     4     2    1
     2     1     2    1
     3     2     3    1
     4     3     8    1
     5     8     9    1
     6     9    11    1
     7    10     5    1
     8     5    11    1
     9     5     6    1
    10    11    12    1
    11    11     7    1
    12    12    13    1
    13    19    17    2
    14    16    13    1
    15    16    17    1
    16    13    14    2
    17    13    15    1
    18    17    20    1
    19    17    18    1
