@<TRIPOS>MOLECULE
2onh_F3P_A_1.pdb
 20 19 0 0 0
SMALL
GASTEIGER

@<TRIPOS>ATOM
      1  C1        21.3320   57.1000  -52.8820 C.3   600  F3P600      0.0406
      2  C2        22.7260   57.1910  -52.6960 C.3   600  F3P600      0.1860
      3  C3        23.4210   55.7870  -52.4410 C.3   600  F3P600      0.1292
      4  C4        22.5340   54.6510  -53.0540 C.3   600  F3P600      0.0350
      5  C5        22.5360   54.6220  -54.5840 C.3   600  F3P600      0.0279
      6  C6        21.5140   55.5780  -55.1490 C.2   600  F3P600     -0.0345
      7  C7        21.7500   56.8540  -55.6440 C.2   600  F3P600     -0.0478
      8  C8        20.5710   57.6700  -56.1820 C.3   600  F3P600      0.0260
      9  C9        23.0710   57.4080  -55.6730 C.3   600  F3P600      0.0260
     10  C10       24.7150   55.8150  -53.0310 C.3   600  F3P600      0.0329
     11  F         23.4480   58.3450  -52.7260 F     600  F3P600     -0.2348
     12  O1        23.4100   55.6210  -51.0150 O.3   600  F3P600     -0.3160
     13  PA        24.1960   54.4760  -50.1900 P.3   600  F3P600      0.2229
     14  O1A       25.7650   54.6190  -50.5760 O.2   600  F3P600     -0.5169
     15  O2A       23.9740   54.5770  -48.7300 O.3   600  F3P600     -0.4370
     16  O3A       23.7290   53.0490  -50.7780 O.3   600  F3P600     -0.2261
     17  PB        24.6050   51.7110  -50.5770 P.3   600  F3P600      0.5373
     18  O2B       26.0920   52.1840  -50.1570 O.3   600  F3P600     -0.1143
     19  O3B       23.9670   50.9400  -49.2890 O.3   600  F3P600     -0.1143
     20  O1B       24.5800   50.8570  -51.7890 O.2   600  F3P600     -0.2221
@<TRIPOS>BOND
     1     8     7    1
     2     9     7    1
     3     7     6    2
     4     6     5    1
     5     5     4    1
     6     4     3    1
     7    10     3    1
     8     1     2    1
     9    11     2    1
    10     2     3    1
    11     3    12    1
    12    20    17    2
    13    12    13    1
    14    16    17    1
    15    16    13    1
    16    17    18    1
    17    17    19    1
    18    14    13    2
    19    13    15    1
