@<TRIPOS>MOLECULE
2onj_ANP_A_1.pdb
 31 33 0 0 0
SMALL
GASTEIGER

@<TRIPOS>ATOM
      1  PG        96.8140   58.5080  173.6930 P.3   701  ANP701      0.4884
      2  O1G       97.2680   57.8140  175.1320 O.3   701  ANP701     -0.1240
      3  O2G       97.8730   59.8420  173.3570 O.2   701  ANP701     -0.2331
      4  O3G       95.1060   58.9150  173.8220 O.3   701  ANP701     -0.1240
      5  PB        96.2840   56.0590  172.2660 P.3   701  ANP701      0.4669
      6  O1B       96.1180   55.3200  173.6610 O.3   701  ANP701     -0.1253
      7  O2B       94.7960   56.4260  171.7640 O.2   701  ANP701     -0.2351
      8  N3B       97.2040   57.5240  172.3080 N.3   701  ANP701     -0.0163
      9  PA        97.1200   53.9920  170.9950 P.3   701  ANP701      0.2220
     10  O1A       96.7260   53.3480  172.3490 O.3   701  ANP701     -0.4370
     11  O2A       95.7730   53.8640  169.8950 O.2   701  ANP701     -0.5170
     12  O3A       97.3540   55.5120  170.9830 O.3   701  ANP701     -0.2360
     13  O5'       98.3700   53.4070  170.1120 O.3   701  ANP701     -0.3111
     14  C5'       98.8160   52.0460  170.7220 C.3   701  ANP701      0.1813
     15  C4'       99.9720   51.8570  169.8190 C.3   701  ANP701      0.1821
     16  O4'      100.3580   52.7470  168.8550 O.3   701  ANP701     -0.3135
     17  C3'      101.3440   51.1700  170.3600 C.3   701  ANP701      0.2184
     18  O3'      101.3670   49.9620  171.1440 O.3   701  ANP701     -0.2174
     19  C2'      102.1140   51.2200  168.9530 C.3   701  ANP701      0.2570
     20  O2'      102.8210   50.0050  168.5060 O.3   701  ANP701     -0.2130
     21  C1'      100.8950   51.7290  168.0580 C.3   701  ANP701      0.3186
     22  N9       101.1860   52.2540  166.7800 N.pl3 701  ANP701     -0.1439
     23  C8       100.6960   53.4720  166.2540 C.3   701  ANP701      0.3377
     24  N7       101.1100   53.6580  165.0470 N.2   701  ANP701     -0.2095
     25  C5       101.8720   52.5730  164.7170 C.2   701  ANP701      0.2526
     26  C6       102.5730   52.2090  163.5590 C.2   701  ANP701      0.4393
     27  N6       102.4840   53.1230  162.4570 N.pl3 701  ANP701      0.2180
     28  N1       103.3090   50.9430  163.5590 N.2   701  ANP701      0.0021
     29  C2       103.2990   50.1120  164.7000 C.3   701  ANP701      0.5254
     30  N3       102.6070   50.4740  165.8330 N.2   701  ANP701     -0.0055
     31  C4       101.8990   51.6590  165.8410 C.2   701  ANP701      0.3518
@<TRIPOS>BOND
     1    27    26    1
     2    28    26    2
     3    28    29    1
     4    26    25    1
     5    29    30    1
     6    25    24    2
     7    25    31    1
     8    24    23    1
     9    30    31    2
    10    31    22    1
    11    23    22    1
    12    22    21    1
    13    21    16    1
    14    21    19    1
    15    20    19    1
    16    16    15    1
    17    19    17    1
    18    15    17    1
    19    15    14    1
    20    11     9    2
    21    13    14    1
    22    13     9    1
    23    17    18    1
    24    12     9    1
    25    12     5    1
    26     9    10    1
    27     7     5    2
    28     5     8    1
    29     5     6    1
    30     8     1    1
    31     3     1    2
    32     1     4    1
    33     1     2    1
