@<TRIPOS>MOLECULE
2onm_ADP_A_1.pdb
 27 29 0 0 0
SMALL
GASTEIGER

@<TRIPOS>ATOM
      1  PB        -5.5400   22.7950  -29.0020 P.3   501  ADP501      0.5373
      2  O1B       -6.8820   23.4370  -29.1120 O.3   501  ADP501     -0.1143
      3  O2B       -5.3050   21.8870  -30.1700 O.2   501  ADP501     -0.2221
      4  O3B       -4.3610   23.9270  -28.8680 O.3   501  ADP501     -0.1143
      5  PA        -6.5460   20.9070  -27.1740 P.3   501  ADP501      0.2231
      6  O1A       -6.9840   21.1030  -25.7920 O.3   501  ADP501     -0.4370
      7  O2A       -7.6780   20.9540  -28.1330 O.2   501  ADP501     -0.5169
      8  O3A       -5.4340   21.9760  -27.5620 O.3   501  ADP501     -0.2261
      9  O5'       -5.7350   19.5080  -27.3440 O.3   501  ADP501     -0.3111
     10  C5'       -6.1950   18.1880  -26.8500 C.3   501  ADP501      0.1813
     11  C4'       -7.1250   17.4880  -27.8430 C.3   501  ADP501      0.1821
     12  O4'       -8.4090   18.1000  -27.8210 O.3   501  ADP501     -0.3135
     13  C3'       -6.5560   17.5740  -29.2790 C.3   501  ADP501      0.2184
     14  O3'       -6.2050   16.2560  -29.7280 O.3   501  ADP501     -0.2174
     15  C2'       -7.8540   18.0580  -29.9780 C.3   501  ADP501      0.2570
     16  O2'       -7.9960   17.4180  -31.2570 O.3   501  ADP501     -0.2130
     17  C1'       -9.0180   17.6490  -29.0340 C.3   501  ADP501      0.3186
     18  N9       -10.2690   18.4360  -29.0900 N.pl3 501  ADP501     -0.1439
     19  C8       -10.4530   19.7490  -29.5460 C.3   501  ADP501      0.3377
     20  N7       -11.7660   20.1990  -29.3630 N.2   501  ADP501     -0.2095
     21  C5       -12.4030   19.1130  -28.7700 C.2   501  ADP501      0.2526
     22  C6       -13.7280   19.0010  -28.3430 C.2   501  ADP501      0.4393
     23  N6       -14.5830   20.0510  -28.4390 N.pl3 501  ADP501      0.2180
     24  N1       -14.1330   17.7900  -27.7500 N.2   501  ADP501      0.0021
     25  C2       -13.2070   16.7440  -27.6060 C.3   501  ADP501      0.5254
     26  N3       -11.8760   16.8410  -28.0250 N.2   501  ADP501     -0.0055
     27  C4       -11.5230   18.0650  -28.6080 C.2   501  ADP501      0.3518
@<TRIPOS>BOND
     1    16    15    1
     2     3     1    2
     3    15    13    1
     4    15    17    1
     5    14    13    1
     6    19    20    1
     7    19    18    1
     8    20    21    2
     9    13    11    1
    10     2     1    1
    11    18    17    1
    12    18    27    1
    13    17    12    1
    14     1     4    1
    15     1     8    1
    16    21    27    1
    17    21    22    1
    18    27    26    2
    19    23    22    1
    20    22    24    2
    21     7     5    2
    22    26    25    1
    23    11    12    1
    24    11    10    1
    25    24    25    1
    26     8     5    1
    27     9     5    1
    28     9    10    1
    29     5     6    1
