@<TRIPOS>MOLECULE
2onm_NAD_B_1.pdb
 44 48 0 0 0
SMALL
GASTEIGER

@<TRIPOS>ATOM
      1  PA       -32.1160   13.7920   -4.2750 P.3   502  NAD502      0.2189
      2  O1A      -31.0480   13.0760   -4.9870 O.3   502  NAD502     -0.4371
      3  O2A      -32.6720   14.7860   -5.2130 O.2   502  NAD502     -0.5170
      4  O5B      -31.5810   14.5220   -2.9350 O.3   502  NAD502     -0.3112
      5  C5B      -30.2380   14.4430   -2.3700 C.3   502  NAD502      0.1813
      6  C4B      -29.6500   15.8170   -2.0470 C.3   502  NAD502      0.1821
      7  O4B      -29.5320   16.5790   -3.2500 O.3   502  NAD502     -0.3135
      8  C3B      -30.5830   16.6190   -1.1220 C.3   502  NAD502      0.2184
      9  O3B      -29.8040   17.3040   -0.1350 O.3   502  NAD502     -0.2174
     10  C2B      -31.0970   17.6360   -2.1600 C.3   502  NAD502      0.2570
     11  O2B      -31.5080   18.8340   -1.4890 O.3   502  NAD502     -0.2130
     12  C1B      -29.8790   17.9400   -3.0570 C.3   502  NAD502      0.3186
     13  N9A      -30.2480   18.5000   -4.3630 N.pl3 502  NAD502     -0.1439
     14  C8A      -31.4800   18.3330   -4.9990 C.3   502  NAD502      0.3377
     15  N7A      -31.5750   18.9750   -6.2270 N.2   502  NAD502     -0.2095
     16  C5A      -30.3410   19.5620   -6.3460 C.2   502  NAD502      0.2526
     17  C6A      -29.8440   20.2840   -7.4290 C.2   502  NAD502      0.4393
     18  N6A      -30.6190   20.6000   -8.5080 N.pl3 502  NAD502      0.2180
     19  N1A      -28.5180   20.7160   -7.3670 N.2   502  NAD502      0.0021
     20  C2A      -27.7600   20.4130   -6.2410 C.3   502  NAD502      0.5254
     21  N3A      -28.2490   19.6920   -5.1500 N.2   502  NAD502     -0.0055
     22  C4A      -29.5570   19.2860   -5.2540 C.2   502  NAD502      0.3518
     23  O3       -33.2940   12.8250   -3.6360 O.3   502  NAD502     -0.2703
     24  PN       -34.9450   13.1340   -3.5750 P.3   502  NAD502      0.2189
     25  O1N      -35.4580   13.6690   -4.8740 O.2   502  NAD502     -0.5170
     26  O2N      -35.2690   14.1190   -2.5200 O.3   502  NAD502     -0.4371
     27  O5D      -35.6710   11.7200   -3.2850 O.3   502  NAD502     -0.3112
     28  C5D      -36.0710   10.8850   -4.4560 C.3   502  NAD502      0.1813
     29  C4D      -35.0150    9.8690   -4.9100 C.3   502  NAD502      0.1799
     30  O4D      -33.6990   10.1730   -4.4090 O.3   502  NAD502     -0.3327
     31  C3D      -35.2060    8.5190   -4.1820 C.3   502  NAD502      0.2158
     32  O3D      -36.3780    7.8530   -4.6760 O.3   502  NAD502     -0.2175
     33  C2D      -33.9300    7.8160   -4.7120 C.3   502  NAD502      0.2309
     34  O2D      -34.0320    7.6150   -6.1280 O.3   502  NAD502     -0.2158
     35  C1D      -32.9230    8.9560   -4.4330 C.3   502  NAD502      0.2263
     36  N1N      -32.1780    8.7950   -3.1750 N.pl3 502  NAD502     -0.2787
     37  C2N      -31.1100    8.0310   -3.2640 C.3   502  NAD502      0.1244
     38  C3N      -30.3250    7.7950   -2.1960 C.2   502  NAD502      0.0544
     39  C7N      -29.2430    7.0040   -2.3470 C.2   502  NAD502      0.2818
     40  O7N      -28.2370    7.0520   -1.6000 O.2   502  NAD502     -0.2670
     41  N7N      -29.2530    6.1350   -3.3580 N.am  502  NAD502     -0.0839
     42  C4N      -30.6290    8.3460   -1.0140 C.2   502  NAD502      0.0033
     43  C5N      -31.7110    9.1320   -0.8790 C.2   502  NAD502      0.0157
     44  C6N      -32.4990    9.3560   -2.0030 C.2   502  NAD502      0.0633
@<TRIPOS>BOND
     1    18    17    1
     2    17    19    2
     3    17    16    1
     4    19    20    1
     5    16    15    2
     6    16    22    1
     7    20    21    1
     8    15    14    1
     9    34    33    1
    10    22    21    2
    11    22    13    1
    12     3     1    2
    13    14    13    1
    14     2     1    1
    15    29    28    1
    16    29    30    1
    17    29    31    1
    18    25    24    2
    19    33    35    1
    20    33    31    1
    21    32    31    1
    22    28    27    1
    23    35    30    1
    24    35    36    1
    25    13    12    1
    26     1    23    1
    27     1     4    1
    28    23    24    1
    29    24    27    1
    30    24    26    1
    31    41    39   am
    32    37    36    1
    33    37    38    1
    34     7    12    1
    35     7     6    1
    36    36    44    1
    37    12    10    1
    38     4     5    1
    39     5     6    1
    40    39    38    1
    41    39    40    2
    42    38    42    2
    43    10    11    1
    44    10     8    1
    45     6     8    1
    46    44    43    2
    47     8     9    1
    48    42    43    1
