@<TRIPOS>MOLECULE
2onp_NAD_A_1.pdb
 44 48 0 0 0
SMALL
GASTEIGER

@<TRIPOS>ATOM
      1  PA        75.5330   66.1330   57.3360 P.3   501  NAD501      0.2189
      2  O1A       74.6530   64.9940   56.9410 O.3   501  NAD501     -0.4371
      3  O2A       75.6810   67.0490   56.1860 O.2   501  NAD501     -0.5170
      4  O5B       77.0070   65.6520   57.7000 O.3   501  NAD501     -0.3112
      5  C5B       77.3080   64.2910   58.1520 C.3   501  NAD501      0.1813
      6  C4B       78.5550   63.6650   57.5100 C.3   501  NAD501      0.1821
      7  O4B       78.3930   63.6120   56.0750 O.3   501  NAD501     -0.3135
      8  C3B       79.8340   64.5070   57.7950 C.3   501  NAD501      0.2184
      9  O3B       80.9940   63.6590   57.7150 O.3   501  NAD501     -0.2174
     10  C2B       79.7810   65.4310   56.5490 C.3   501  NAD501      0.2570
     11  O2B       81.0790   65.9640   56.2780 O.3   501  NAD501     -0.2130
     12  C1B       79.4280   64.4080   55.4630 C.3   501  NAD501      0.3186
     13  N9A       78.8900   65.1140   54.2990 N.pl3 501  NAD501     -0.1439
     14  C8A       78.2710   66.3690   54.1980 C.3   501  NAD501      0.3377
     15  N7A       77.8900   66.6570   52.8890 N.2   501  NAD501     -0.2095
     16  C5A       78.2870   65.5440   52.1680 C.2   501  NAD501      0.2526
     17  C6A       78.1240   65.2540   50.8170 C.2   501  NAD501      0.4393
     18  N6A       77.7180   66.1810   49.9090 N.pl3 501  NAD501      0.2180
     19  N1A       78.5600   64.0170   50.3640 N.2   501  NAD501      0.0021
     20  C2A       79.1500   63.1160   51.2440 C.3   501  NAD501      0.5254
     21  N3A       79.3220   63.4080   52.5860 N.2   501  NAD501     -0.0055
     22  C4A       78.8690   64.6410   52.9960 C.2   501  NAD501      0.3518
     23  O3        74.9920   66.8890   58.6620 O.3   501  NAD501     -0.2703
     24  PN        75.5100   68.3310   59.2860 P.3   501  NAD501      0.2189
     25  O1N       75.6740   69.3790   58.2280 O.2   501  NAD501     -0.5170
     26  O2N       76.8040   68.1880   59.9620 O.3   501  NAD501     -0.4371
     27  O5D       74.2770   68.6200   60.3480 O.3   501  NAD501     -0.3112
     28  C5D       72.9330   69.0390   59.8520 C.3   501  NAD501      0.1813
     29  C4D       71.7750   68.2220   60.4330 C.3   501  NAD501      0.1799
     30  O4D       71.9520   66.8340   60.1670 O.3   501  NAD501     -0.3327
     31  C3D       71.7930   68.2830   61.9800 C.3   501  NAD501      0.2158
     32  O3D       71.2400   69.5310   62.4260 O.3   501  NAD501     -0.2175
     33  C2D       70.8290   67.1320   62.3190 C.3   501  NAD501      0.2309
     34  O2D       69.4850   67.5080   61.9710 O.3   501  NAD501     -0.2158
     35  C1D       71.3760   66.1060   61.2850 C.3   501  NAD501      0.2263
     36  N1N       72.3980   65.1380   61.8050 N.pl3 501  NAD501     -0.2787
     37  C2N       71.9590   63.9180   62.1340 C.3   501  NAD501      0.1244
     38  C3N       72.8270   63.0240   62.6110 C.2   501  NAD501      0.0544
     39  C7N       72.4210   61.8000   62.9690 C.2   501  NAD501      0.2818
     40  O7N       72.8220   61.4110   64.0930 O.2   501  NAD501     -0.2670
     41  N7N       71.6240   61.1330   62.1320 N.am  501  NAD501     -0.0839
     42  C4N       74.1310   63.3640   62.7520 C.2   501  NAD501      0.0033
     43  C5N       74.6150   64.5750   62.4290 C.2   501  NAD501      0.0157
     44  C6N       73.6960   65.4740   61.9420 C.2   501  NAD501      0.0633
@<TRIPOS>BOND
     1    18    17    1
     2    19    17    2
     3    19    20    1
     4    17    16    1
     5    20    21    1
     6    16    15    2
     7    16    22    1
     8    21    22    2
     9    15    14    1
    10    22    13    1
    11    14    13    1
    12    13    12    1
    13    12     7    1
    14    12    10    1
    15     7     6    1
    16     3     1    2
    17    11    10    1
    18    10     8    1
    19     2     1    1
    20     1     4    1
    21     1    23    1
    22     6     8    1
    23     6     5    1
    24     4     5    1
    25     9     8    1
    26    25    24    2
    27    23    24    1
    28    24    26    1
    29    24    27    1
    30    28    27    1
    31    28    29    1
    32    30    29    1
    33    30    35    1
    34    29    31    1
    35    35    36    1
    36    35    33    1
    37    36    44    1
    38    36    37    1
    39    44    43    2
    40    34    33    1
    41    31    33    1
    42    31    32    1
    43    41    39   am
    44    37    38    1
    45    43    42    1
    46    38    42    2
    47    38    39    1
    48    39    40    2
