@<TRIPOS>MOLECULE
2ony_TMJ_A_1.pdb
 21 23 0 0 0
SMALL
GASTEIGER

@<TRIPOS>ATOM
      1  C1        28.9560   46.0530   19.3380 C.3   2001  TMJ2001     0.0449
      2  C10       26.8880   44.9480   12.0170 C.ar  2001  TMJ2001     0.0911
      3  C14       25.1990   46.4240   10.3670 C.ar  2001  TMJ2001     0.0578
      4  C13       24.9650   46.3800   11.7390 C.ar  2001  TMJ2001     0.0128
      5  C15       26.2700   45.7260    9.8210 C.ar  2001  TMJ2001     0.0128
      6  C12       25.8090   45.6430   12.5630 C.ar  2001  TMJ2001     0.0189
      7  C11       27.1150   44.9840   10.6470 C.ar  2001  TMJ2001     0.0189
      8  C6        28.1800   46.1170   16.9370 C.ar  2001  TMJ2001    -0.0031
      9  C4        28.5290   43.9580   17.9440 C.ar  2001  TMJ2001    -0.0074
     10  C2        29.0420   45.0830   20.5150 C.3   2001  TMJ2001     0.0937
     11  C3        28.9000   43.0900   19.1510 C.3   2001  TMJ2001     0.1147
     12 CL1        24.1780   47.3640    9.3320 Cl    2001  TMJ2001    -0.0822
     13  N2        27.8280   44.2200   12.8850 N.pl3 2001  TMJ2001    -0.0965
     14  S1        27.3180   43.3370   14.1570 S.O2  2001  TMJ2001     0.0928
     15  O2        25.8960   43.2050   14.1190 O.2   2001  TMJ2001    -0.1483
     16  O1        27.9440   41.9760   14.0780 O.2   2001  TMJ2001    -0.1483
     17  C8        27.7920   44.1160   15.6510 C.ar  2001  TMJ2001     0.1268
     18  C9        28.1550   43.3450   16.7510 C.ar  2001  TMJ2001     0.0171
     19  C7        27.8030   45.5050   15.7450 C.ar  2001  TMJ2001     0.0199
     20  C5        28.5450   45.3460   18.0390 C.ar  2001  TMJ2001    -0.0233
     21  N1        29.7350   43.8580   20.0840 N.3   2001  TMJ2001    -0.2129
@<TRIPOS>BOND
     1    12     3    1
     2     5     3   ar
     3     5     7   ar
     4     3     4   ar
     5     7     2   ar
     6     4     6   ar
     7     2     6   ar
     8     2    13    1
     9    13    14    1
    10    16    14    2
    11    15    14    2
    12    14    17    1
    13    17    19   ar
    14    17    18   ar
    15    19     8   ar
    16    18     9   ar
    17     8    20   ar
    18     9    20   ar
    19     9    11    1
    20    20     1    1
    21    11    21    1
    22     1    10    1
    23    21    10    1
