@<TRIPOS>MOLECULE
2ony_SAH_A_1.pdb
 26 28 0 0 0
SMALL
GASTEIGER

@<TRIPOS>ATOM
      1  N         26.5150   52.8080   18.3740 N.3   3001  SAH3001    -0.1208
      2  CA        27.6770   52.3280   17.6460 C.3   3001  SAH3001     0.1952
      3  CB        28.8010   51.9850   18.6400 C.3   3001  SAH3001     0.0422
      4  CG        28.4370   51.0190   19.7590 C.3   3001  SAH3001     0.0597
      5  SD        29.8550   50.6920   20.8170 S.3   3001  SAH3001    -0.1375
      6  C         27.3350   51.1420   16.7410 C.2   3001  SAH3001     0.3819
      7  O         28.2510   50.3670   16.3890 O.co2 3001  SAH3001    -0.2441
      8  OXT       26.1500   51.0260   16.3560 O.co2 3001  SAH3001    -0.2441
      9  C5'       29.3430   51.4820   22.3790 C.3   3001  SAH3001     0.0899
     10  C4'       29.6440   52.9630   22.3730 C.3   3001  SAH3001     0.1630
     11  O4'       29.2090   53.6160   23.5980 O.3   3001  SAH3001    -0.3153
     12  C3'       31.1030   53.3510   22.1590 C.3   3001  SAH3001     0.2168
     13  O3'       31.2110   54.2600   21.0660 O.3   3001  SAH3001    -0.2175
     14  C2'       31.5190   53.9340   23.5090 C.3   3001  SAH3001     0.2569
     15  O2'       32.5390   54.9120   23.4210 O.3   3001  SAH3001    -0.2130
     16  C1'       30.2050   54.5350   24.0070 C.3   3001  SAH3001     0.3185
     17  N9        30.1120   54.7270   25.4600 N.pl3 3001  SAH3001    -0.1439
     18  C8        30.9730   54.2370   26.4910 C.3   3001  SAH3001     0.3377
     19  N7        30.6080   54.6130   27.6930 N.2   3001  SAH3001    -0.2095
     20  C5        29.4700   55.3720   27.4600 C.2   3001  SAH3001     0.2526
     21  C6        28.6420   56.0510   28.3930 C.2   3001  SAH3001     0.4393
     22  N6        28.8440   56.0480   29.7160 N.pl3 3001  SAH3001     0.2180
     23  N1        27.5750   56.7440   27.8950 N.2   3001  SAH3001     0.0021
     24  C2        27.3750   56.7410   26.5490 C.3   3001  SAH3001     0.5254
     25  N3        28.1040   56.1290   25.5810 N.2   3001  SAH3001    -0.0055
     26  C4        29.1470   55.4540   26.1130 C.2   3001  SAH3001     0.3518
@<TRIPOS>BOND
     1     8     6   ar
     2     7     6   ar
     3     6     2    1
     4     2     1    1
     5     2     3    1
     6     3     4    1
     7     4     5    1
     8     5     9    1
     9    13    12    1
    10    12    10    1
    11    12    14    1
    12    10     9    1
    13    10    11    1
    14    15    14    1
    15    14    16    1
    16    11    16    1
    17    16    17    1
    18    17    26    1
    19    17    18    1
    20    25    26    2
    21    25    24    1
    22    26    20    1
    23    18    19    1
    24    24    23    1
    25    20    19    2
    26    20    21    1
    27    23    21    2
    28    21    22    1
