@<TRIPOS>MOLECULE
2onz_SAH_A_1.pdb
 26 28 0 0 0
SMALL
GASTEIGER

@<TRIPOS>ATOM
      1  N         26.7180   52.6720   18.1890 N.3   3001  SAH3001    -0.1208
      2  CA        27.8750   52.0340   17.5570 C.3   3001  SAH3001     0.1952
      3  CB        28.9570   51.7020   18.6170 C.3   3001  SAH3001     0.0422
      4  CG        28.4900   50.8850   19.8350 C.3   3001  SAH3001     0.0597
      5  SD        29.8600   50.3830   20.9060 S.3   3001  SAH3001    -0.1375
      6  C         27.4870   50.7880   16.7470 C.2   3001  SAH3001     0.3819
      7  O         28.3770   49.9630   16.4350 O.co2 3001  SAH3001    -0.2441
      8  OXT       26.2900   50.6710   16.4040 O.co2 3001  SAH3001    -0.2441
      9  C5'       29.5050   51.2240   22.4640 C.3   3001  SAH3001     0.0899
     10  C4'       29.7550   52.7100   22.4100 C.3   3001  SAH3001     0.1630
     11  O4'       29.3030   53.3580   23.6260 O.3   3001  SAH3001    -0.3153
     12  C3'       31.1870   53.1740   22.1630 C.3   3001  SAH3001     0.2168
     13  O3'       31.2310   54.1210   21.0990 O.3   3001  SAH3001    -0.2175
     14  C2'       31.5930   53.7920   23.4960 C.3   3001  SAH3001     0.2569
     15  O2'       32.5250   54.8440   23.3340 O.3   3001  SAH3001    -0.2130
     16  C1'       30.2550   54.3210   24.0100 C.3   3001  SAH3001     0.3185
     17  N9        30.1540   54.5220   25.4580 N.pl3 3001  SAH3001    -0.1439
     18  C8        31.0250   54.0840   26.5030 C.3   3001  SAH3001     0.3377
     19  N7        30.6320   54.4620   27.6970 N.2   3001  SAH3001    -0.2095
     20  C5        29.4680   55.1700   27.4390 C.2   3001  SAH3001     0.2526
     21  C6        28.6130   55.8290   28.3440 C.2   3001  SAH3001     0.4393
     22  N6        28.8140   55.8650   29.6590 N.pl3 3001  SAH3001     0.2180
     23  N1        27.5210   56.4650   27.8260 N.2   3001  SAH3001     0.0021
     24  C2        27.3260   56.4270   26.4830 C.3   3001  SAH3001     0.5254
     25  N3        28.0820   55.8290   25.5350 N.2   3001  SAH3001    -0.0055
     26  C4        29.1530   55.2150   26.0900 C.2   3001  SAH3001     0.3518
@<TRIPOS>BOND
     1     8     6   ar
     2     7     6   ar
     3     6     2    1
     4     2     1    1
     5     2     3    1
     6     3     4    1
     7     4     5    1
     8     5     9    1
     9    13    12    1
    10    12    10    1
    11    12    14    1
    12    10     9    1
    13    10    11    1
    14    15    14    1
    15    14    16    1
    16    11    16    1
    17    16    17    1
    18    17    26    1
    19    17    18    1
    20    25    26    2
    21    25    24    1
    22    26    20    1
    23    24    23    1
    24    18    19    1
    25    20    19    2
    26    20    21    1
    27    23    21    2
    28    21    22    1
