@<TRIPOS>MOLECULE
2onz_TMJ_A_1.pdb
 21 23 0 0 0
SMALL
GASTEIGER

@<TRIPOS>ATOM
      1  C1        29.1460   45.7480   19.2140 C.3   2001  TMJ2001     0.0449
      2  C10       26.9180   44.6960   11.9630 C.ar  2001  TMJ2001     0.0911
      3  C14       25.2000   46.2630   10.4130 C.ar  2001  TMJ2001     0.0578
      4  C13       25.0010   46.1560   11.7850 C.ar  2001  TMJ2001     0.0128
      5  C15       26.2550   45.5750    9.8170 C.ar  2001  TMJ2001     0.0128
      6  C12       25.8560   45.3750   12.5590 C.ar  2001  TMJ2001     0.0189
      7  C11       27.1100   44.7940   10.5880 C.ar  2001  TMJ2001     0.0189
      8  C6        28.3710   45.8250   16.8110 C.ar  2001  TMJ2001    -0.0031
      9  C4        28.6330   43.6650   17.8420 C.ar  2001  TMJ2001    -0.0074
     10  C2        29.3070   44.7710   20.3830 C.3   2001  TMJ2001     0.0937
     11  C3        29.0260   42.7920   19.0370 C.3   2001  TMJ2001     0.1147
     12 CL1        24.1760   47.2740    9.4500 Cl    2001  TMJ2001    -0.0822
     13  N2        27.8750   43.9340   12.7760 N.pl3 2001  TMJ2001    -0.0965
     14  S1        27.3940   43.0540   14.0630 S.O2  2001  TMJ2001     0.0928
     15  O2        25.9700   42.9350   14.0530 O.2   2001  TMJ2001    -0.1483
     16  O1        28.0080   41.6890   13.9830 O.2   2001  TMJ2001    -0.1483
     17  C8        27.9030   43.8300   15.5460 C.ar  2001  TMJ2001     0.1268
     18  C9        28.2310   43.0580   16.6520 C.ar  2001  TMJ2001     0.0171
     19  C7        27.9740   45.2220   15.6270 C.ar  2001  TMJ2001     0.0199
     20  C5        28.7020   45.0500   17.9260 C.ar  2001  TMJ2001    -0.0233
     21  N1        29.9480   43.5350   19.9100 N.3   2001  TMJ2001    -0.2129
@<TRIPOS>BOND
     1    12     3    1
     2     5     3   ar
     3     5     7   ar
     4     3     4   ar
     5     7     2   ar
     6     4     6   ar
     7     2     6   ar
     8     2    13    1
     9    13    14    1
    10    16    14    2
    11    15    14    2
    12    14    17    1
    13    17    19   ar
    14    17    18   ar
    15    19     8   ar
    16    18     9   ar
    17     8    20   ar
    18     9    20   ar
    19     9    11    1
    20    20     1    1
    21    11    21    1
    22     1    10    1
    23    21    10    1
