@<TRIPOS>MOLECULE
2oo0_PLP_A_1.pdb
 16 16 0 0 0
SMALL
GASTEIGER

@<TRIPOS>ATOM
      1  N1       -33.4440   22.1590  -20.0180 N.ar  600  PLP600     -0.2452
      2  C2       -34.2870   22.5970  -21.0270 C.ar  600  PLP600      0.0982
      3  C2A      -35.0850   23.8520  -20.8260 C.3   600  PLP600      0.0555
      4  C3       -34.3700   21.8780  -22.2270 C.ar  600  PLP600      0.2120
      5  O3       -35.1940   22.3280  -23.2190 O.3   600  PLP600     -0.2852
      6  C4       -33.6090   20.7120  -22.3920 C.ar  600  PLP600      0.0822
      7  C4A      -33.9230   19.7560  -23.5070 C.2   600  PLP600      0.2372
      8  O4A      -34.1590   20.1860  -24.6320 O.2   600  PLP600     -0.2830
      9  C5       -32.7760   20.2960  -21.3580 C.ar  600  PLP600      0.0333
     10  C6       -32.7030   21.0150  -20.1740 C.ar  600  PLP600      0.0969
     11  C5A      -31.9460   19.0500  -21.4740 C.3   600  PLP600      0.1819
     12  O4P      -30.9570   19.2430  -22.4550 O.3   600  PLP600     -0.2653
     13  P        -29.8130   18.1350  -22.6460 P.3   600  PLP600      0.5329
     14  O1P      -29.2030   18.4040  -23.9910 O.2   600  PLP600     -0.2224
     15  O2P      -30.4740   16.7850  -22.6330 O.3   600  PLP600     -0.1145
     16  O3P      -28.8540   18.2640  -21.4910 O.3   600  PLP600     -0.1145
@<TRIPOS>BOND
     1     8     7    2
     2    14    13    2
     3     7     6    1
     4     5     4    1
     5    13    15    1
     6    13    12    1
     7    13    16    1
     8    12    11    1
     9     6     4   ar
    10     6     9   ar
    11     4     2   ar
    12    11     9    1
    13     9    10   ar
    14     2     3    1
    15     2     1   ar
    16    10     1   ar
