@<TRIPOS>MOLECULE
2oo5_NAP_C_1.pdb
 48 52 0 0 0
SMALL
GASTEIGER

@<TRIPOS>ATOM
      1  PA        58.1340   59.4120  141.9530 P.3   400  NAP400      0.2189
      2  O1A       59.5480   59.1210  142.2720 O.2   400  NAP400     -0.5170
      3  O2A       57.2420   58.3290  142.4140 O.3   400  NAP400     -0.4371
      4  O5B       57.7510   60.8010  142.6420 O.3   400  NAP400     -0.3112
      5  C5B       56.5280   61.4170  142.3520 C.3   400  NAP400      0.1813
      6  C4B       56.4470   62.6280  143.2600 C.3   400  NAP400      0.1820
      7  O4B       55.3960   63.4770  142.8520 O.3   400  NAP400     -0.3136
      8  C3B       56.1930   62.2190  144.7050 C.3   400  NAP400      0.2157
      9  O3B       57.3200   62.5030  145.5050 O.3   400  NAP400     -0.2175
     10  C2B       54.9810   63.0230  145.1220 C.3   400  NAP400      0.2314
     11  O2B       55.2410   63.6770  146.3400 O.3   400  NAP400     -0.2630
     12  C1B       54.7540   64.0170  143.9850 C.3   400  NAP400      0.3158
     13  N9A       53.3360   64.2800  143.6600 N.pl3 400  NAP400     -0.1439
     14  C8A       52.3260   63.3690  143.4700 C.3   400  NAP400      0.3377
     15  N7A       51.1900   64.0400  143.1770 N.2   400  NAP400     -0.2095
     16  C5A       51.4570   65.3640  143.1680 C.2   400  NAP400      0.2526
     17  C6A       50.6670   66.4890  142.9390 C.2   400  NAP400      0.4393
     18  N6A       49.3960   66.3720  142.5720 N.pl3 400  NAP400      0.2180
     19  N1A       51.2430   67.7400  143.0090 N.2   400  NAP400      0.0021
     20  C2A       52.5850   67.8820  143.3040 C.3   400  NAP400      0.5254
     21  N3A       53.3560   66.7620  143.5310 N.2   400  NAP400     -0.0055
     22  C4A       52.8050   65.5270  143.4670 C.2   400  NAP400      0.3518
     23  O3        57.9190   59.7270  140.3890 O.3   400  NAP400     -0.2703
     24  PN        59.1080   59.9290  139.3190 P.3   400  NAP400      0.2189
     25  O1N       60.1450   60.8490  139.8480 O.3   400  NAP400     -0.4371
     26  O2N       58.4430   60.2190  138.0280 O.2   400  NAP400     -0.5170
     27  O5D       59.7600   58.4700  139.2440 O.3   400  NAP400     -0.3112
     28  C5D       58.9980   57.3850  138.7860 C.3   400  NAP400      0.1813
     29  C4D       59.0480   56.2280  139.7730 C.3   400  NAP400      0.1799
     30  O4D       57.9910   55.3430  139.4610 O.3   400  NAP400     -0.3327
     31  C3D       60.3320   55.4330  139.6600 C.3   400  NAP400      0.2158
     32  O3D       60.6670   54.8570  140.9020 O.3   400  NAP400     -0.2175
     33  C2D       59.9630   54.3750  138.6560 C.3   400  NAP400      0.2309
     34  O2D       60.7150   53.1980  138.7550 O.3   400  NAP400     -0.2158
     35  C1D       58.5060   54.1040  139.0080 C.3   400  NAP400      0.2263
     36  N1N       57.6480   53.5020  137.9500 N.pl3 400  NAP400     -0.2787
     37  C2N       57.8220   53.7400  136.6100 C.3   400  NAP400      0.1244
     38  C3N       56.9880   53.1590  135.6680 C.2   400  NAP400      0.0544
     39  C7N       57.3040   53.3570  134.2190 C.2   400  NAP400      0.2818
     40  O7N       57.2070   52.2710  133.3390 O.2   400  NAP400     -0.2670
     41  N7N       57.6840   54.5510  133.7870 N.am  400  NAP400     -0.0839
     42  C4N       55.9590   52.3150  136.0700 C.2   400  NAP400      0.0033
     43  C5N       55.7750   52.0820  137.4260 C.2   400  NAP400      0.0157
     44  C6N       56.6250   52.6800  138.3550 C.2   400  NAP400      0.0633
     45  P2B       54.0300   64.1450  147.2800 P.3   400  NAP400      0.5328
     46  O1X       54.6230   64.7200  148.5430 O.3   400  NAP400     -0.1145
     47  O2X       53.2650   65.2130  146.5600 O.2   400  NAP400     -0.2224
     48  O3X       53.1560   62.9510  147.5800 O.3   400  NAP400     -0.1145
@<TRIPOS>BOND
     1    40    39    2
     2    41    39   am
     3    39    38    1
     4    38    42    2
     5    38    37    1
     6    42    43    1
     7    37    36    1
     8    43    44    2
     9    36    44    1
    10    36    35    1
    11    26    24    2
    12    33    34    1
    13    33    35    1
    14    33    31    1
    15    28    27    1
    16    28    29    1
    17    35    30    1
    18    27    24    1
    19    24    25    1
    20    24    23    1
    21    30    29    1
    22    31    29    1
    23    31    32    1
    24    23     1    1
    25     1     2    2
    26     1     3    1
    27     1     4    1
    28     5     4    1
    29     5     6    1
    30    18    17    1
    31     7     6    1
    32     7    12    1
    33    17    19    2
    34    17    16    1
    35    19    20    1
    36    16    15    2
    37    16    22    1
    38    15    14    1
    39     6     8    1
    40    20    21    1
    41    22    21    2
    42    22    13    1
    43    14    13    1
    44    13    12    1
    45    12    10    1
    46     8    10    1
    47     8     9    1
    48    10    11    1
    49    11    45    1
    50    47    45    2
    51    45    48    1
    52    45    46    1
