@<TRIPOS>MOLECULE
2oo5_TXD_A_1.pdb
 44 48 0 0 0
SMALL
GASTEIGER

@<TRIPOS>ATOM
      1  O7N       33.7330   76.4560   99.6760 O.2   500  TXD500     -0.2670
      2  C7N       33.5800   75.3420   99.1970 C.2   500  TXD500      0.2818
      3  N7N       32.4180   74.9640   98.6800 N.am  500  TXD500     -0.0839
      4  C3N       34.7000   74.3440   99.2010 C.2   500  TXD500      0.0544
      5  C2N       36.0170   74.7690   99.3480 C.3   500  TXD500      0.1244
      6  C4N       34.3630   72.8760   99.0560 C.2   500  TXD500      0.0033
      7  C5N       35.5550   72.0350   99.0810 C.2   500  TXD500      0.0157
      8  C6N       36.8290   72.5720   99.2270 C.2   500  TXD500      0.0633
      9  N1N       37.0410   73.8970   99.3630 N.pl3 500  TXD500     -0.2787
     10 C1'A       38.4080   74.4260   99.5160 C.3   500  TXD500      0.2263
     11 O4'A       39.2370   74.0980   98.4000 O.3   500  TXD500     -0.3327
     12 C2'A       39.1320   73.8890  100.7400 C.3   500  TXD500      0.2309
     13 O2'A       38.7680   74.6240  101.9100 O.3   500  TXD500     -0.2158
     14 C3'A       40.5810   74.0590  100.3440 C.3   500  TXD500      0.2158
     15 O3'A       41.0380   75.3730  100.6780 O.3   500  TXD500     -0.2175
     16 C4'A       40.5850   73.8980   98.8330 C.3   500  TXD500      0.1799
     17 C5'A       41.0500   72.5380   98.3320 C.3   500  TXD500      0.1813
     18 O5'A       40.2080   71.5200   98.8680 O.3   500  TXD500     -0.3112
     19  PN        39.9850   70.0830   98.1800 P.3   500  TXD500      0.2189
     20  O1N       40.1000   69.0480   99.2740 O.3   500  TXD500     -0.4371
     21  O2N       38.7240   70.1620   97.3530 O.2   500  TXD500     -0.5170
     22  O3        41.2530   69.9300   97.2040 O.3   500  TXD500     -0.2703
     23  PA        41.4520   68.7010   96.1770 P.3   500  TXD500      0.2189
     24  O2P       41.0680   69.1930   94.8040 O.2   500  TXD500     -0.5170
     25  O1P       40.7920   67.4520   96.7180 O.3   500  TXD500     -0.4371
     26  O5'       43.0530   68.5100   96.1750 O.3   500  TXD500     -0.3112
     27  C5'       43.8100   68.4790   97.3830 C.3   500  TXD500      0.1813
     28  C4'       44.9390   69.5090   97.4120 C.3   500  TXD500      0.1821
     29  C3'       44.5760   70.9270   96.9690 C.3   500  TXD500      0.2184
     30  O3'       44.6280   71.7970   98.1000 O.3   500  TXD500     -0.2174
     31  C2'       45.6180   71.3110   95.9270 C.3   500  TXD500      0.2570
     32  O2'       46.1250   72.6340   96.1240 O.3   500  TXD500     -0.2130
     33  C1'       46.7120   70.2640   96.1100 C.3   500  TXD500      0.3186
     34  O4'       46.0220   69.0990   96.5680 O.3   500  TXD500     -0.3135
     35  N9A       47.5230   69.9760   94.8920 N.pl3 500  TXD500     -0.1439
     36  C4A       48.8560   69.8870   94.8720 C.2   500  TXD500      0.3518
     37  N3A       49.8080   70.0260   95.8300 N.2   500  TXD500     -0.0055
     38  C2A       51.1170   69.8880   95.5500 C.3   500  TXD500      0.5254
     39  N1A       51.5490   69.6100   94.3050 N.2   500  TXD500      0.0021
     40  C6A       50.6780   69.4530   93.2830 C.2   500  TXD500      0.4393
     41  N6A       51.1010   69.1760   92.0300 N.pl3 500  TXD500      0.2180
     42  C5A       49.2330   69.5960   93.5720 C.2   500  TXD500      0.2526
     43  N7A       48.1220   69.5110   92.8230 N.2   500  TXD500     -0.2095
     44  C8A       47.0750   69.7400   93.6450 C.3   500  TXD500      0.3377
@<TRIPOS>BOND
     1    41    40    1
     2    43    42    2
     3    43    44    1
     4    40    42    1
     5    40    39    2
     6    42    36    1
     7    44    35    1
     8    39    38    1
     9    24    23    2
    10    36    35    1
    11    36    37    2
    12    35    33    1
    13    38    37    1
    14    31    33    1
    15    31    32    1
    16    31    29    1
    17    33    34    1
    18    26    23    1
    19    26    27    1
    20    23    25    1
    21    23    22    1
    22    34    28    1
    23    29    28    1
    24    29    30    1
    25    22    19    1
    26    21    19    2
    27    27    28    1
    28    19    18    1
    29    19    20    1
    30    17    16    1
    31    17    18    1
    32    11    16    1
    33    11    10    1
    34     3     2   am
    35    16    14    1
    36     6     7    1
    37     6     4    2
    38     7     8    2
    39     2     4    1
    40     2     1    2
    41     4     5    1
    42     8     9    1
    43     5     9    1
    44     9    10    1
    45    10    12    1
    46    14    15    1
    47    14    12    1
    48    12    13    1
