@<TRIPOS>MOLECULE
2oo8_RAJ_X_1.pdb
 39 42 0 0 0
SMALL
GASTEIGER

@<TRIPOS>ATOM
      1  C28       47.7220    4.8050   69.1940 C.3     1  RAJ1        0.0897
      2  N6        48.1310    5.5200   67.9610 N.3     1  RAJ1       -0.2703
      3  C29       47.3220    5.1350   66.7830 C.3     1  RAJ1        0.0897
      4  C27       49.5770    5.3540   67.6860 C.3     1  RAJ1        0.0725
      5  C26       50.0420    3.9000   67.5080 C.3     1  RAJ1        0.0220
      6  C25       51.4590    3.8820   66.9380 C.3     1  RAJ1        0.0278
      7  C20       52.5050    3.6470   68.0510 C.ar    1  RAJ1       -0.0209
      8  C19       52.3400    2.6060   68.9780 C.ar    1  RAJ1        0.0123
      9  C21       53.6120    4.5050   68.1330 C.ar    1  RAJ1       -0.0003
     10  C22       54.5780    4.3070   69.1350 C.ar    1  RAJ1        0.0724
     11  C24       55.8000    5.2480   69.2450 C.3     1  RAJ1        0.4186
     12  F2        55.4290    6.4110   69.7890 F       1  RAJ1       -0.1659
     13  F3        56.7500    4.6740   70.0060 F       1  RAJ1       -0.1659
     14  F1        56.3060    5.5180   68.0370 F       1  RAJ1       -0.1659
     15  C23       54.4080    3.2650   70.0610 C.ar    1  RAJ1        0.0204
     16  C18       53.2760    2.4150   70.0030 C.ar    1  RAJ1        0.0733
     17  N5        53.1440    1.3800   70.8590 N.am    1  RAJ1       -0.1755
     18  C17       53.6190    1.3270   72.1150 C.2     1  RAJ1        0.2690
     19  O1        54.1970    2.2520   72.6770 O.2     1  RAJ1       -0.2680
     20  C12       53.3900    0.0110   72.8860 C.ar    1  RAJ1        0.0567
     21  C11       53.6130    0.0030   74.2620 C.ar    1  RAJ1        0.0208
     22  C13       53.0070   -1.1710   72.2350 C.ar    1  RAJ1        0.0043
     23  C14       52.8210   -2.3450   72.9760 C.ar    1  RAJ1       -0.0028
     24  C15       53.0400   -2.3420   74.3690 C.ar    1  RAJ1       -0.0065
     25  C16       52.8350   -3.6500   75.1600 C.3     1  RAJ1        0.0324
     26  C10       53.4220   -1.1600   75.0220 C.ar    1  RAJ1        0.0683
     27  N4        53.6760   -1.1230   76.3470 N.pl3   1  RAJ1       -0.1944
     28  C9        52.8050   -0.9480   77.3320 C.ar    1  RAJ1        0.1528
     29  N3        51.5180   -0.7250   77.0310 N.ar    1  RAJ1       -0.2273
     30  C8        50.5910   -0.5390   77.9610 C.ar    1  RAJ1        0.1004
     31  C7        50.9370   -0.5590   79.3090 C.ar    1  RAJ1        0.0208
     32  C6        52.2660   -0.7670   79.6760 C.ar    1  RAJ1        0.0056
     33  C5        53.2240   -0.9810   78.6790 C.ar    1  RAJ1        0.0470
     34  C3        54.5540   -1.1730   79.0750 C.2     1  RAJ1        0.0647
     35  C2        54.8950   -1.1310   80.4200 C.3     1  RAJ1        0.0920
     36  C1        56.2300   -1.3130   80.7790 C.2     1  RAJ1        0.0754
     37  N2        57.1410   -1.5040   79.8410 N.2     1  RAJ1       -0.2471
     38  C4        56.7990   -1.5130   78.5620 C.3     1  RAJ1        0.2501
     39  N1        55.5380   -1.3410   78.1840 N.2     1  RAJ1       -0.2482
@<TRIPOS>BOND
     1     3     2    1
     2     6     5    1
     3     6     7    1
     4     5     4    1
     5     4     2    1
     6     2     1    1
     7    14    11    1
     8     7     9   ar
     9     7     8   ar
    10     9    10   ar
    11     8    16   ar
    12    10    11    1
    13    10    15   ar
    14    11    12    1
    15    11    13    1
    16    16    15   ar
    17    16    17    1
    18    17    18   am
    19    18    19    2
    20    18    20    1
    21    22    20   ar
    22    22    23   ar
    23    20    21   ar
    24    23    24   ar
    25    21    26   ar
    26    24    26   ar
    27    24    25    1
    28    26    27    1
    29    27    28    1
    30    29    28   ar
    31    29    30   ar
    32    28    33   ar
    33    30    31   ar
    34    39    38    1
    35    39    34    2
    36    38    37    1
    37    33    34    1
    38    33    32   ar
    39    34    35    1
    40    31    32   ar
    41    37    36    2
    42    35    36    1
