@<TRIPOS>MOLECULE
2ood_GUN_A_1.pdb
 11 12 0 0 0
SMALL
GASTEIGER

@<TRIPOS>ATOM
      1  N9       116.1770   17.1050    5.7780 N.2   600  GUN600     -0.1802
      2  C8       116.7480   16.3840    4.7830 C.3   600  GUN600      0.2633
      3  N7       116.0100   16.4140    3.7110 N.2   600  GUN600     -0.2212
      4  C5       114.9120   17.1670    3.9390 C.2   600  GUN600      0.2482
      5  C6       113.7730   17.5530    3.1590 C.1   600  GUN600      0.2442
      6  O6       113.6410   17.1940    1.9830 O.2   600  GUN600     -0.2063
      7  N1       112.8170   18.3670    3.7630 N.2   600  GUN600     -0.2474
      8  C2       112.9590   18.7830    5.0780 C.1   600  GUN600      0.2608
      9  N2       111.9990   19.6020    5.6520 N.pl3 600  GUN600     -0.0220
     10  N3       114.0050   18.4290    5.8040 N.2   600  GUN600     -0.2682
     11  C4       114.9910   17.6270    5.2850 C.1   600  GUN600      0.1289
@<TRIPOS>BOND
     1     6     5    2
     2     5     7    2
     3     5     4    1
     4     3     4    2
     5     3     2    1
     6     7     8    2
     7     4    11    1
     8     2     1    1
     9     8     9    1
    10     8    10    2
    11    11     1    2
    12    11    10    2
