@<TRIPOS>MOLECULE
2ooh_OX3_B_1.pdb
 18 19 0 0 0
SMALL
GASTEIGER

@<TRIPOS>ATOM
      1  C1       -50.1040   23.0020   33.6280 C.ar  200  OX3200      0.1957
      2  O1       -48.7710   22.8570   33.7920 O.3   200  OX3200     -0.2866
      3  C2       -50.9770   21.9120   33.8680 C.ar  200  OX3200      0.0421
      4  C3       -52.3760   22.0640   33.6820 C.ar  200  OX3200      0.0049
      5  C4       -52.8970   23.3090   33.2550 C.ar  200  OX3200      0.0226
      6  C5       -52.0230   24.4020   33.0230 C.ar  200  OX3200      0.0049
      7  C6       -50.6300   24.2540   33.2080 C.ar  200  OX3200      0.0421
      8  C7       -54.2250   23.6290   32.8910 C.2   200  OX3200      0.1407
      9  N8       -54.7850   24.0620   31.7960 N.2   200  OX3200     -0.0720
     10  O9       -54.1130   24.3510   30.6250 O.3   200  OX3200     -0.3160
     11  C10      -54.0400   25.6480   30.1510 C.2   200  OX3200      0.3441
     12  O10      -52.9840   26.0790   29.7830 O.2   200  OX3200     -0.2476
     13  C11      -55.2960   26.5050   30.1080 C.3   200  OX3200      0.1015
     14  C12      -56.4040   25.7710   29.2900 C.3   200  OX3200      0.0112
     15  C13      -57.6840   26.6400   29.2690 C.3   200  OX3200      0.0006
     16  C14      -57.3810   28.0010   28.6130 C.3   200  OX3200      0.0000
     17  C15      -56.2910   28.7340   29.4090 C.3   200  OX3200      0.0006
     18  C16      -54.9970   27.8840   29.4340 C.3   200  OX3200      0.0112
@<TRIPOS>BOND
     1    16    15    1
     2    16    17    1
     3    15    14    1
     4    14    13    1
     5    17    18    1
     6    18    13    1
     7    12    11    2
     8    13    11    1
     9    11    10    1
    10    10     9    1
    11     9     8    2
    12     8     5    1
    13     6     7   ar
    14     6     5   ar
    15     7     1   ar
    16     5     4   ar
    17     1     2    1
    18     1     3   ar
    19     4     3   ar
