@<TRIPOS>MOLECULE
2ool_LBV_A_1.pdb
 43 46 0 0 0
SMALL
GASTEIGER

@<TRIPOS>ATOM
      1  C1A       96.3650   16.6210    5.0690 C.1   400  LBV400      0.1830
      2  C1B       93.7090   13.2280    6.1580 C.2   400  LBV400      0.1114
      3  O1B       91.6100    8.2510    9.7250 O.co2 400  LBV400     -0.2456
      4  C1C       90.4920   15.2440    8.6460 C.2   400  LBV400      0.1114
      5  O1C       87.7630   15.8120   13.0360 O.co2 400  LBV400     -0.2456
      6  C1D       90.3800   19.9600    9.0790 C.2   400  LBV400      0.1111
      7  C2A       97.1530   16.0000    3.9420 C.3   400  LBV400      0.1424
      8  C2B       93.1910   11.9470    6.3940 C.2   400  LBV400      0.0021
      9  O2B       89.6890    9.3170    9.8680 O.co2 400  LBV400     -0.2456
     10  C2C       89.3970   15.5920    9.4650 C.2   400  LBV400      0.0024
     11  O2C       89.9710   15.8960   13.1520 O.co2 400  LBV400     -0.2456
     12  C2D       90.3520   21.2160    8.4380 C.3   400  LBV400      0.0835
     13  C3A       96.4920   14.6100    3.9660 C.2   400  LBV400      0.0165
     14  C3B       92.1000   12.0710    7.2510 C.2   400  LBV400      0.0024
     15  C3C       89.3320   16.9760    9.4720 C.2   400  LBV400      0.0021
     16  C3D       89.9490   22.1240    9.3930 C.2   400  LBV400      0.0742
     17  C4A       95.4960   14.5740    4.9800 C.2   400  LBV400      0.1254
     18  C4B       91.9230   13.4640    7.5010 C.2   400  LBV400      0.1114
     19  C4C       90.3950   17.4690    8.6960 C.2   400  LBV400      0.1111
     20  C4D       89.7510   21.4090   10.5820 C.1   400  LBV400      0.2000
     21  CAA       96.7910   13.5220    3.1150 C.2   400  LBV400     -0.0267
     22  CAB       91.2600   10.9060    7.7970 C.3   400  LBV400      0.0402
     23  CAC       88.3940   14.7180   10.2540 C.3   400  LBV400      0.0402
     24  CAD       89.8210   23.4750    9.1760 C.2   400  LBV400     -0.0171
     25  CBA       97.8050   13.4700    1.9230 C.3   400  LBV400      0.0305
     26  CBB       91.6170   10.5620    9.2290 C.3   400  LBV400      0.1188
     27  CBC       88.9880   14.3070   11.6380 C.3   400  LBV400      0.1188
     28  CBD       89.3940   24.3680   10.1520 C.3   400  LBV400      0.0312
     29  CGB       90.9000    9.2610    9.6400 C.2   400  LBV400      0.3652
     30  CGC       88.9010   15.4350   12.7170 C.2   400  LBV400      0.3652
     31  CHB       94.7590   13.4050    5.2460 C.3   400  LBV400      0.1181
     32  CHC       90.8780   13.9140    8.3660 C.3   400  LBV400      0.1170
     33  CHD       90.7280   18.7950    8.4080 C.3   400  LBV400      0.1142
     34  CMA       98.6320   15.9350    4.3560 C.3   400  LBV400      0.0237
     35  CMB       93.7500   10.6180    5.8380 C.3   400  LBV400      0.0331
     36  CMC       88.2350   17.7390   10.2460 C.3   400  LBV400      0.0331
     37  CMD       90.6760   21.5700    6.9700 C.3   400  LBV400      0.0127
     38  N_A       95.4610   15.7650    5.5890 N.2   400  LBV400     -0.3405
     39  O_A       96.5180   17.7710    5.4700 O.2   400  LBV400     -0.2139
     40  N_B       92.9050   14.0780    6.8200 N.2   400  LBV400     -0.4104
     41  N_C       91.0470   16.3980    8.2390 N.2   400  LBV400     -0.4104
     42  N_D       90.0370   20.1300   10.3430 N.2   400  LBV400     -0.3412
     43  O_D       89.3860   21.8390   11.6900 O.2   400  LBV400     -0.2096
@<TRIPOS>BOND
     1    25    21    1
     2    21    13    2
     3     7    13    1
     4     7    34    1
     5     7     1    1
     6    13    17    1
     7    17    31    1
     8    17    38    2
     9     1    39    2
    10     1    38    2
    11    31     2    1
    12    35     8    1
    13     2     8    1
    14     2    40    2
    15     8    14    2
    16    40    18    2
    17    37    12    1
    18    14    18    1
    19    14    22    1
    20    18    32    1
    21    22    26    1
    22    41     4    2
    23    41    19    2
    24    32     4    1
    25    33    19    1
    26    33     6    1
    27    12     6    1
    28    12    16    1
    29     4    10    1
    30    19    15    1
    31     6    42    2
    32    24    16    2
    33    24    28    1
    34    26    29    1
    35    16    20    1
    36    10    15    2
    37    10    23    1
    38    15    36    1
    39    29     3   ar
    40    29     9   ar
    41    23    27    1
    42    42    20    2
    43    20    43    2
    44    27    30    1
    45    30     5   ar
    46    30    11   ar
