@<TRIPOS>MOLECULE
2oor_NAD_A_1.pdb
 44 48 0 0 0
SMALL
GASTEIGER

@<TRIPOS>ATOM
      1  PA        -7.8810    6.5000   26.7150 P.3   500  NAD500      0.2189
      2  O1A       -7.1300    5.4150   27.3860 O.3   500  NAD500     -0.4371
      3  O2A       -7.4360    7.8150   27.2300 O.2   500  NAD500     -0.5170
      4  O5B       -9.4700    6.3310   26.9520 O.3   500  NAD500     -0.3112
      5  C5B      -10.2220    5.3150   26.3230 C.3   500  NAD500      0.1813
      6  C4B      -11.4690    5.8610   25.6370 C.3   500  NAD500      0.1821
      7  O4B      -12.3890    6.3470   26.5940 O.3   500  NAD500     -0.3135
      8  C3B      -11.2220    7.0090   24.6620 C.3   500  NAD500      0.2184
      9  O3B      -11.5440    6.5850   23.3610 O.3   500  NAD500     -0.2174
     10  C2B      -12.1420    8.1170   25.1480 C.3   500  NAD500      0.2570
     11  O2B      -12.7320    8.8330   24.0910 O.3   500  NAD500     -0.2130
     12  C1B      -13.1660    7.3450   25.9710 C.3   500  NAD500      0.3186
     13  N9A      -13.9490    8.1450   26.9360 N.pl3 500  NAD500     -0.1439
     14  C8A      -13.4930    9.0990   27.8080 C.3   500  NAD500      0.3377
     15  N7A      -14.5420    9.5830   28.5050 N.2   500  NAD500     -0.2095
     16  C5A      -15.6650    8.9530   28.0970 C.2   500  NAD500      0.2526
     17  C6A      -16.9950    9.0710   28.4840 C.2   500  NAD500      0.4393
     18  N6A      -17.3550   10.0970   29.2490 N.pl3 500  NAD500      0.2180
     19  N1A      -17.9530    8.2750   27.8780 N.2   500  NAD500      0.0021
     20  C2A      -17.5840    7.3740   26.8940 C.3   500  NAD500      0.5254
     21  N3A      -16.2560    7.2660   26.5210 N.2   500  NAD500     -0.0055
     22  C4A      -15.3100    8.0440   27.1100 C.2   500  NAD500      0.3518
     23  O3        -7.7420    6.4270   25.1030 O.3   500  NAD500     -0.2703
     24  PN        -6.5520    5.6920   24.2990 P.3   500  NAD500      0.2189
     25  O1N       -6.7560    4.2340   24.3550 O.2   500  NAD500     -0.5170
     26  O2N       -5.2600    6.2270   24.7660 O.3   500  NAD500     -0.4371
     27  O5D       -6.7760    6.1600   22.7680 O.3   500  NAD500     -0.3112
     28  C5D       -7.5030    7.3120   22.3820 C.3   500  NAD500      0.1813
     29  C4D       -7.1180    7.7710   20.9710 C.3   500  NAD500      0.1799
     30  O4D       -5.8040    8.3080   20.9920 O.3   500  NAD500     -0.3327
     31  C3D       -7.1380    6.6590   19.9270 C.3   500  NAD500      0.2158
     32  O3D       -7.7960    7.0890   18.7560 O.3   500  NAD500     -0.2175
     33  C2D       -5.6790    6.3860   19.6440 C.3   500  NAD500      0.2309
     34  O2D       -5.4380    6.0150   18.3050 O.3   500  NAD500     -0.2158
     35  C1D       -5.0110    7.7110   19.9810 C.3   500  NAD500      0.2263
     36  N1N       -3.6110    7.5070   20.4130 N.pl3 500  NAD500     -0.2787
     37  C2N       -2.5830    7.9340   19.6140 C.3   500  NAD500      0.1244
     38  C3N       -1.2550    7.7460   20.0050 C.2   500  NAD500      0.0544
     39  C7N       -0.1370    8.1470   19.0730 C.2   500  NAD500      0.2818
     40  O7N       -0.4250    8.9690   17.9590 O.2   500  NAD500     -0.2670
     41  N7N        1.1160    7.7360   19.2920 N.am  500  NAD500     -0.0839
     42  C4N       -0.9830    7.1270   21.2310 C.2   500  NAD500      0.0033
     43  C5N       -2.0360    6.6910   22.0240 C.2   500  NAD500      0.0157
     44  C6N       -3.3460    6.8930   21.6090 C.2   500  NAD500      0.0633
@<TRIPOS>BOND
     1    40    39    2
     2    34    33    1
     3    32    31    1
     4    39    41   am
     5    39    38    1
     6    37    38    1
     7    37    36    1
     8    33    31    1
     9    33    35    1
    10    31    29    1
    11    35    36    1
    12    35    30    1
    13    38    42    2
    14    36    44    1
    15    29    30    1
    16    29    28    1
    17    42    43    1
    18    44    43    2
    19    28    27    1
    20    27    24    1
    21     9     8    1
    22    11    10    1
    23    24    25    2
    24    24    26    1
    25    24    23    1
    26     8    10    1
    27     8     6    1
    28    23     1    1
    29    10    12    1
    30     6     5    1
    31     6     7    1
    32    12     7    1
    33    12    13    1
    34     5     4    1
    35    21    20    1
    36    21    22    2
    37     1     4    1
    38     1     3    2
    39     1     2    1
    40    20    19    1
    41    13    22    1
    42    13    14    1
    43    22    16    1
    44    14    15    1
    45    19    17    2
    46    16    17    1
    47    16    15    2
    48    17    18    1
