@<TRIPOS>MOLECULE
2oor_TXP_C_1.pdb
 48 52 0 0 0
SMALL
GASTEIGER

@<TRIPOS>ATOM
      1  O2N      -25.6840  -32.4860    9.1640 O.3   400  TXP400     -0.4371
      2  PN       -26.2910  -33.7960    8.7270 P.3   400  TXP400      0.2189
      3  O1N      -27.4750  -33.7370    7.7940 O.2   400  TXP400     -0.5170
      4 O5'A      -26.7550  -34.6200   10.0300 O.3   400  TXP400     -0.3112
      5 C5'A      -25.8170  -34.9560   11.0470 C.3   400  TXP400      0.1813
      6 C4'A      -26.0350  -36.3600   11.5870 C.3   400  TXP400      0.1799
      7 C3'A      -27.3740  -36.5750   12.2830 C.3   400  TXP400      0.2158
      8 O3'A      -27.8880  -37.8740   11.9580 O.3   400  TXP400     -0.2175
      9 C2'A      -27.0570  -36.4910   13.7620 C.3   400  TXP400      0.2309
     10 O2'A      -27.9360  -37.2880   14.5620 O.3   400  TXP400     -0.2158
     11 C1'A      -25.6090  -36.9980   13.8020 C.3   400  TXP400      0.2261
     12  N1N      -24.8560  -36.4980   14.9630 N.pl3 400  TXP400     -0.2831
     13  C6N      -24.3130  -37.5690   15.8040 C.3   400  TXP400      0.0934
     14  C5N      -23.1590  -37.0150   16.6300 C.3   400  TXP400      0.0264
     15  C4N      -23.5590  -35.7300   17.3430 C.3   400  TXP400      0.0341
     16  C3N      -24.1930  -34.7820   16.3520 C.2   400  TXP400      0.0490
     17  C7N      -24.2590  -33.3570   16.6920 C.2   400  TXP400      0.2814
     18  O7N      -24.0290  -32.9670   17.9360 O.2   400  TXP400     -0.2670
     19  N7N      -24.5520  -32.4510   15.7620 N.am  400  TXP400     -0.0839
     20  C2N      -24.7270  -35.2540   15.2070 C.2   400  TXP400      0.0633
     21 O4'A      -25.0170  -36.5910   12.5630 O.3   400  TXP400     -0.3327
     22  O3       -25.1100  -34.7260    8.0940 O.3   400  TXP400     -0.2703
     23  PA       -25.2810  -36.2690    7.6180 P.3   400  TXP400      0.2189
     24  O1A      -26.7300  -36.5220    7.3360 O.2   400  TXP400     -0.5170
     25  O2A      -24.5660  -37.2370    8.5190 O.3   400  TXP400     -0.4371
     26  O5'      -24.4920  -36.3510    6.2230 O.3   400  TXP400     -0.3112
     27  C5'      -24.1340  -35.1930    5.4810 C.3   400  TXP400      0.1813
     28  C4'      -23.6090  -35.5520    4.0910 C.3   400  TXP400      0.1820
     29  C3'      -23.0670  -36.9710    3.9200 C.3   400  TXP400      0.2157
     30  O3'      -24.1080  -37.8690    3.5070 O.3   400  TXP400     -0.2175
     31  O4'      -22.5200  -34.6970    3.7360 O.3   400  TXP400     -0.3136
     32  C1'      -21.8000  -35.3380    2.6790 C.3   400  TXP400      0.3158
     33  C2'      -21.9550  -36.8500    2.8850 C.3   400  TXP400      0.2314
     34  O2'      -22.2880  -37.5230    1.6610 O.3   400  TXP400     -0.2630
     35  P2       -21.2360  -37.8070    0.4610 P.3   400  TXP400      0.5328
     36  OP3      -20.0700  -38.4640    1.1490 O.3   400  TXP400     -0.1145
     37  OP2      -20.9710  -36.4570   -0.1610 O.3   400  TXP400     -0.1145
     38  OP1      -21.9740  -38.7500   -0.4650 O.2   400  TXP400     -0.2224
     39  N9A      -20.3890  -34.8530    2.6160 N.pl3 400  TXP400     -0.1439
     40  C4A      -19.9930  -33.8730    1.7960 C.2   400  TXP400      0.3518
     41  N3A      -20.6560  -33.1120    0.8870 N.2   400  TXP400     -0.0055
     42  C2A      -20.0030  -32.1780    0.1780 C.3   400  TXP400      0.5254
     43  N1A      -18.6820  -31.9680    0.3490 N.2   400  TXP400      0.0021
     44  C6A      -17.9820  -32.7030    1.2480 C.2   400  TXP400      0.4393
     45  N6A      -16.6550  -32.5040    1.4330 N.pl3 400  TXP400      0.2180
     46  C5A      -18.6400  -33.6740    1.9910 C.2   400  TXP400      0.2526
     47  N7A      -18.2390  -34.5480    2.9360 N.2   400  TXP400     -0.2095
     48  C8A      -19.3180  -35.2670    3.3190 C.3   400  TXP400      0.3377
@<TRIPOS>BOND
     1    38    35    2
     2    37    35    1
     3    42    43    1
     4    42    41    1
     5    43    44    2
     6    35    36    1
     7    35    34    1
     8    41    40    2
     9    44    45    1
    10    44    46    1
    11    34    33    1
    12    40    46    1
    13    40    39    1
    14    46    47    2
    15    39    32    1
    16    39    48    1
    17    32    33    1
    18    32    31    1
    19    33    29    1
    20    47    48    1
    21    30    29    1
    22    31    28    1
    23    29    28    1
    24    28    27    1
    25    27    26    1
    26    26    23    1
    27    24    23    2
    28    23    22    1
    29    23    25    1
    30     3     2    2
    31    22     2    1
    32     2     1    1
    33     2     4    1
    34     4     5    1
    35     5     6    1
    36     6     7    1
    37     6    21    1
    38     8     7    1
    39     7     9    1
    40    21    11    1
    41     9    11    1
    42     9    10    1
    43    11    12    1
    44    12    20    1
    45    12    13    1
    46    20    16    2
    47    19    17   am
    48    13    14    1
    49    16    17    1
    50    16    15    1
    51    14    15    1
    52    17    18    2
