@<TRIPOS>MOLECULE
2oos_NAD_A_1.pdb
 44 48 0 0 0
SMALL
GASTEIGER

@<TRIPOS>ATOM
      1  PA        50.8820   88.6100   40.6830 P.3   450  NAD450      0.2189
      2  O1A       52.3800   88.7060   40.4930 O.2   450  NAD450     -0.5170
      3  O2A       50.2680   88.7600   42.0460 O.3   450  NAD450     -0.4371
      4  O5B       50.2160   87.2660   40.1170 O.3   450  NAD450     -0.3112
      5  C5B       50.6140   86.6470   38.9010 C.3   450  NAD450      0.1813
      6  C4B       50.7610   85.1890   39.2640 C.3   450  NAD450      0.1821
      7  O4B       50.9200   84.3440   38.1160 O.3   450  NAD450     -0.3135
      8  C3B       52.0420   85.0400   40.0810 C.3   450  NAD450      0.2184
      9  O3B       51.6700   84.6440   41.3980 O.3   450  NAD450     -0.2174
     10  C2B       52.8440   83.9430   39.3930 C.3   450  NAD450      0.2570
     11  O2B       53.4520   83.0810   40.3750 O.3   450  NAD450     -0.2130
     12  C1B       51.7820   83.2620   38.5280 C.3   450  NAD450      0.3186
     13  N9A       52.3490   82.4830   37.3930 N.pl3 450  NAD450     -0.1439
     14  C8A       53.2930   82.8950   36.4870 C.3   450  NAD450      0.3377
     15  N7A       53.5670   81.8740   35.6470 N.2   450  NAD450     -0.2095
     16  C5A       52.7750   80.8190   36.0010 C.2   450  NAD450      0.2526
     17  C6A       52.6310   79.5190   35.4900 C.2   450  NAD450      0.4393
     18  N6A       53.3540   79.1010   34.4080 N.pl3 450  NAD450      0.2180
     19  N1A       51.7850   78.6870   36.1010 N.2   450  NAD450      0.0021
     20  C2A       51.0630   79.0690   37.2000 C.3   450  NAD450      0.5254
     21  N3A       51.1680   80.3160   37.7220 N.2   450  NAD450     -0.0055
     22  C4A       52.0180   81.2030   37.1170 C.2   450  NAD450      0.3518
     23  O3        50.3340   89.7890   39.7150 O.3   450  NAD450     -0.2703
     24  PN        48.8390   90.2900   39.4740 P.3   450  NAD450      0.2189
     25  O1N       47.9330   90.0820   40.6620 O.3   450  NAD450     -0.4371
     26  O2N       49.0490   91.6730   38.8720 O.2   450  NAD450     -0.5170
     27  O5D       48.3530   89.2900   38.2910 O.3   450  NAD450     -0.3112
     28  C5D       47.1720   88.4700   38.2690 C.3   450  NAD450      0.1813
     29  C4D       46.3550   88.7060   36.9880 C.3   450  NAD450      0.1799
     30  O4D       45.8160   90.0510   36.9090 O.3   450  NAD450     -0.3327
     31  C3D       47.1660   88.5090   35.7270 C.3   450  NAD450      0.2158
     32  O3D       46.3200   87.8210   34.8000 O.3   450  NAD450     -0.2175
     33  C2D       47.4170   89.9230   35.2440 C.3   450  NAD450      0.2309
     34  O2D       47.5660   89.9070   33.8350 O.3   450  NAD450     -0.2158
     35  C1D       46.1380   90.6400   35.6480 C.3   450  NAD450      0.2263
     36  N1N       46.1350   92.1190   35.7160 N.pl3 450  NAD450     -0.2787
     37  C2N       46.9760   92.7900   36.5610 C.3   450  NAD450      0.1244
     38  C3N       46.9540   94.1870   36.6420 C.2   450  NAD450      0.0544
     39  C7N       47.8950   94.9430   37.5740 C.2   450  NAD450      0.2818
     40  O7N       47.9830   96.1250   37.4270 O.2   450  NAD450     -0.2670
     41  N7N       48.6060   94.3200   38.5200 N.am  450  NAD450     -0.0839
     42  C4N       46.0380   94.8960   35.8460 C.2   450  NAD450      0.0033
     43  C5N       45.1990   94.1830   35.0120 C.2   450  NAD450      0.0157
     44  C6N       45.2550   92.7830   34.9680 C.2   450  NAD450      0.0633
@<TRIPOS>BOND
     1    34    33    1
     2    18    17    1
     3    32    31    1
     4    44    43    2
     5    44    36    1
     6    43    42    1
     7    33    35    1
     8    33    31    1
     9    17    16    1
    10    17    19    2
    11    15    16    2
    12    15    14    1
    13    35    36    1
    14    35    30    1
    15    36    37    1
    16    31    29    1
    17    42    38    2
    18    16    22    1
    19    19    20    1
    20    14    13    1
    21    37    38    1
    22    38    39    1
    23    30    29    1
    24    29    28    1
    25    22    13    1
    26    22    21    2
    27    20    21    1
    28    13    12    1
    29    40    39    2
    30    39    41   am
    31     7    12    1
    32     7     6    1
    33    28    27    1
    34    27    24    1
    35    12    10    1
    36    26    24    2
    37     5     6    1
    38     5     4    1
    39     6     8    1
    40    10     8    1
    41    10    11    1
    42    24    23    1
    43    24    25    1
    44    23     1    1
    45     8     9    1
    46     4     1    1
    47     2     1    2
    48     1     3    1
