@<TRIPOS>MOLECULE
2oos_JPJ_A_1.pdb
 24 26 0 0 0
SMALL
GASTEIGER

@<TRIPOS>ATOM
      1 CL20       50.8420   88.7930   36.0010 Cl    500  JPJ500     -0.0790
      2  C15       51.6280   89.6710   34.6570 C.ar  500  JPJ500      0.0929
      3  C16       52.6550   89.0490   33.9550 C.ar  500  JPJ500      0.0259
      4  C17       53.2910   89.7260   32.9140 C.ar  500  JPJ500      0.0587
      5 CL21       54.6010   88.8660   32.0760 Cl    500  JPJ500     -0.0822
      6  C22       52.9270   91.0290   32.5720 C.ar  500  JPJ500      0.0146
      7  C19       51.9020   91.6480   33.2750 C.ar  500  JPJ500      0.0392
      8  C14       51.2540   90.9580   34.3240 C.ar  500  JPJ500      0.1559
      9  O13       50.2520   91.5370   35.0490 O.3   500  JPJ500     -0.4494
     10  C2        49.9070   92.8510   34.7970 C.ar  500  JPJ500      0.1839
     11  C1        49.0340   93.1700   33.7470 C.ar  500  JPJ500      0.2295
     12  O22       48.5540   92.1590   32.9530 O.3   500  JPJ500     -0.2833
     13  C3        50.4420   93.8770   35.5960 C.ar  500  JPJ500      0.0405
     14  C4        50.0940   95.2060   35.3530 C.ar  500  JPJ500     -0.0009
     15  C5        49.2280   95.5510   34.3020 C.ar  500  JPJ500     -0.0185
     16  C6        48.6770   94.5200   33.5240 C.ar  500  JPJ500      0.0410
     17  C7        48.8070   96.9960   34.0410 C.3   500  JPJ500      0.0311
     18  C18       49.8210   98.0990   34.3190 C.3   500  JPJ500      0.0310
     19  C28       51.0020   98.0410   33.3730 C.ar  500  JPJ500     -0.0218
     20  C27       50.8970   98.5430   32.0780 C.ar  500  JPJ500     -0.0043
     21  C26       51.9710   98.4910   31.1800 C.ar  500  JPJ500     -0.0003
     22  C25       53.1720   97.9300   31.6050 C.ar  500  JPJ500     -0.0000
     23  C24       53.2820   97.4340   32.9160 C.ar  500  JPJ500     -0.0003
     24  C23       52.1970   97.4800   33.7990 C.ar  500  JPJ500     -0.0043
@<TRIPOS>BOND
     1    21    22   ar
     2    21    20   ar
     3    22    23   ar
     4     5     4    1
     5    20    19   ar
     6     6     4   ar
     7     6     7   ar
     8     4     3   ar
     9    23    24   ar
    10    12    11    1
    11     7     8   ar
    12    19    24   ar
    13    19    18    1
    14    16    11   ar
    15    16    15   ar
    16    11    10   ar
    17     3     2   ar
    18    17    15    1
    19    17    18    1
    20    15    14   ar
    21     8     2   ar
    22     8     9    1
    23     2     1    1
    24    10     9    1
    25    10    13   ar
    26    14    13   ar
