@<TRIPOS>MOLECULE
2oow_OX4_A_1.pdb
 19 20 0 0 0
SMALL
GASTEIGER

@<TRIPOS>ATOM
      1  O1        28.8750   26.0790   19.7270 O.3   200  OX4200     -0.2842
      2  C1        29.2540   25.2020   18.7560 C.ar  200  OX4200      0.2229
      3  C2        29.5290   23.8570   19.0930 C.ar  200  OX4200      0.1788
      4  F2        29.4180   23.4640   20.3420 F     200  OX4200     -0.2008
      5  C3        29.9220   22.9340   18.0850 C.ar  200  OX4200      0.0346
      6  C4        30.0350   23.3670   16.7330 C.ar  200  OX4200      0.0249
      7  C5        29.7560   24.7280   16.4010 C.ar  200  OX4200      0.0051
      8  C6        29.3700   25.6380   17.4070 C.ar  200  OX4200      0.0444
      9  C7        30.4380   22.3970   15.6570 C.2   200  OX4200      0.1408
     10  N8        29.6890   21.3480   15.4470 N.2   200  OX4200     -0.0720
     11  O9        29.9720   20.3920   14.4560 O.3   200  OX4200     -0.3160
     12  C10       30.6420   19.2250   14.7380 C.2   200  OX4200      0.3441
     13  O10       31.8360   19.2110   14.6820 O.2   200  OX4200     -0.2476
     14  C11       29.8770   17.9590   15.1150 C.3   200  OX4200      0.1015
     15  C12       30.6080   16.6990   14.5350 C.3   200  OX4200      0.0112
     16  C13       29.8310   15.4040   14.9290 C.3   200  OX4200      0.0006
     17  C14       28.3870   15.4670   14.3540 C.3   200  OX4200      0.0000
     18  C15       27.6490   16.7170   14.9290 C.3   200  OX4200      0.0006
     19  C16       28.4290   18.0140   14.5350 C.3   200  OX4200      0.0112
@<TRIPOS>BOND
     1    17    18    1
     2    17    16    1
     3    11    12    1
     4    11    10    1
     5    19    18    1
     6    19    14    1
     7    15    16    1
     8    15    14    1
     9    13    12    2
    10    12    14    1
    11    10     9    2
    12     9     6    1
    13     7     6   ar
    14     7     8   ar
    15     6     5   ar
    16     8     2   ar
    17     5     3   ar
    18     2     3   ar
    19     2     1    1
    20     3     4    1
