@<TRIPOS>MOLECULE
2oox_AMP_E_1.pdb
 23 25 0 0 0
SMALL
GASTEIGER

@<TRIPOS>ATOM
      1  P         -0.9050   -7.8120   13.9560 P.3   401  AMP401      0.5327
      2  O1P       -0.9290   -9.3320   14.0050 O.3   401  AMP401     -0.1145
      3  O2P       -0.3440   -7.3170   12.6500 O.2   401  AMP401     -0.2224
      4  O3P       -0.3430   -7.1850   15.1970 O.3   401  AMP401     -0.1145
      5  O5'       -2.4540   -7.2930   13.8750 O.3   401  AMP401     -0.2675
      6  C5'       -3.1390   -6.3010   14.6540 C.3   401  AMP401      0.1860
      7  C4'       -4.6960   -6.4050   14.6750 C.3   401  AMP401      0.1823
      8  O4'       -5.3390   -6.7870   13.4380 O.3   401  AMP401     -0.3135
      9  C3'       -5.1040   -7.4460   15.6970 C.3   401  AMP401      0.2184
     10  O3'       -6.2120   -6.9730   16.4570 O.3   401  AMP401     -0.2174
     11  C2'       -5.4930   -8.6520   14.8640 C.3   401  AMP401      0.2570
     12  O2'       -6.4000   -9.5270   15.5410 O.3   401  AMP401     -0.2130
     13  C1'       -6.0090   -8.0510   13.5510 C.3   401  AMP401      0.3186
     14  N9        -5.5870   -8.9460   12.4380 N.pl3 401  AMP401     -0.1439
     15  C8        -4.3830   -9.5630   12.3480 C.3   401  AMP401      0.3377
     16  N7        -4.2920  -10.3560   11.2410 N.2   401  AMP401     -0.2095
     17  C5        -5.4450  -10.2450   10.6000 C.2   401  AMP401      0.2526
     18  C6        -5.9650  -10.7840    9.3600 C.2   401  AMP401      0.4393
     19  N6        -5.1910  -11.6090    8.6280 N.pl3 401  AMP401      0.2180
     20  N1        -7.2240  -10.4570    9.0060 N.2   401  AMP401      0.0021
     21  C2        -7.9750   -9.6440    9.7590 C.3   401  AMP401      0.5254
     22  N3        -7.5400   -9.0930   10.8980 N.2   401  AMP401     -0.0055
     23  C4        -6.3010   -9.3380   11.3690 C.2   401  AMP401      0.3518
@<TRIPOS>BOND
     1    19    18    1
     2    20    18    2
     3    20    21    1
     4    18    17    1
     5    21    22    1
     6    17    16    2
     7    17    23    1
     8    22    23    2
     9    16    15    1
    10    23    14    1
    11    15    14    1
    12    14    13    1
    13     3     1    2
    14     8    13    1
    15     8     7    1
    16    13    11    1
    17     5     1    1
    18     5     6    1
    19     1     2    1
    20     1     4    1
    21     6     7    1
    22     7     9    1
    23    11    12    1
    24    11     9    1
    25     9    10    1
