@<TRIPOS>MOLECULE
2ooy_ATP_E_1.pdb
 31 33 0 0 0
SMALL
GASTEIGER

@<TRIPOS>ATOM
      1  PG        29.3510   36.6370   30.0590 P.3   401  ATP401      0.5373
      2  O1G       29.8970   36.6970   31.4770 O.3   401  ATP401     -0.1143
      3  O2G       29.8140   35.4130   29.2600 O.3   401  ATP401     -0.1143
      4  O3G       29.6360   37.9040   29.2550 O.2   401  ATP401     -0.2221
      5  PB        26.3980   37.5070   30.4220 P.3   401  ATP401      0.2277
      6  O1B       25.2750   37.0090   31.3430 O.3   401  ATP401     -0.4368
      7  O2B       26.8670   38.8750   30.8220 O.2   401  ATP401     -0.5168
      8  O3B       27.7000   36.4560   30.3400 O.3   401  ATP401     -0.2258
      9  PA        27.0010   38.4770   27.9100 P.3   401  ATP401      0.2189
     10  O1A       28.3660   37.8980   27.6090 O.3   401  ATP401     -0.4371
     11  O2A       26.2410   39.0420   26.7390 O.2   401  ATP401     -0.5170
     12  O3A       26.0050   37.6210   28.8560 O.3   401  ATP401     -0.2700
     13  O5'       27.1730   39.7070   28.8490 O.3   401  ATP401     -0.3112
     14  C5'       26.0110   40.5130   28.7860 C.3   401  ATP401      0.1813
     15  C4'       26.3480   41.8200   28.0970 C.3   401  ATP401      0.1821
     16  O4'       25.2470   42.7060   28.2100 O.3   401  ATP401     -0.3135
     17  C3'       27.4030   42.4240   28.9570 C.3   401  ATP401      0.2184
     18  O3'       28.1610   43.2710   28.1280 O.3   401  ATP401     -0.2174
     19  C2'       26.6300   43.1340   30.0490 C.3   401  ATP401      0.2570
     20  O2'       27.2570   44.3810   30.3810 O.3   401  ATP401     -0.2130
     21  C1'       25.2030   43.2510   29.5250 C.3   401  ATP401      0.3186
     22  N9        24.2180   42.5240   30.4010 N.pl3 401  ATP401     -0.1439
     23  C8        24.3080   41.2910   30.9330 C.3   401  ATP401      0.3377
     24  N7        23.2220   40.9880   31.6910 N.2   401  ATP401     -0.2095
     25  C5        22.4060   42.0460   31.6750 C.2   401  ATP401      0.2526
     26  C6        21.0840   42.4120   32.2670 C.2   401  ATP401      0.4393
     27  N6        20.3860   41.5420   33.0590 N.pl3 401  ATP401      0.2180
     28  N1        20.5780   43.6430   31.9800 N.2   401  ATP401      0.0021
     29  C2        21.2510   44.5110   31.2020 C.3   401  ATP401      0.5254
     30  N3        22.4460   44.2420   30.6350 N.2   401  ATP401     -0.0055
     31  C4        23.0600   43.0480   30.8200 C.2   401  ATP401      0.3518
@<TRIPOS>BOND
     1    11     9    2
     2    10     9    1
     3     9    13    1
     4     9    12    1
     5    15    16    1
     6    15    14    1
     7    15    17    1
     8    18    17    1
     9    16    21    1
    10    14    13    1
    11    12     5    1
    12    17    19    1
    13     4     1    2
    14     3     1    1
    15    21    19    1
    16    21    22    1
    17    19    20    1
    18     1     8    1
    19     1     2    1
    20     8     5    1
    21    22    31    1
    22    22    23    1
    23     5     7    2
    24     5     6    1
    25    30    31    2
    26    30    29    1
    27    31    25    1
    28    23    24    1
    29    29    28    1
    30    25    24    2
    31    25    26    1
    32    28    26    2
    33    26    27    1
