@<TRIPOS>MOLECULE
2ooz_OX5_A_1.pdb
 10 10 0 0 0
SMALL
GASTEIGER

@<TRIPOS>ATOM
      1  O1        26.9660   36.1730   28.9960 O.3   200  OX5200     -0.2866
      2  C1        27.0530   37.0070   27.9390 C.ar  200  OX5200      0.1957
      3  C2        27.0980   38.4130   28.1510 C.ar  200  OX5200      0.0421
      4  C3        27.1920   39.2790   27.0550 C.ar  200  OX5200      0.0049
      5  C4        27.2440   38.7470   25.7310 C.ar  200  OX5200      0.0228
      6  C5        27.1960   37.3470   25.5220 C.ar  200  OX5200      0.0049
      7  C6        27.1010   36.4790   26.6240 C.ar  200  OX5200      0.0421
      8  C7        27.3450   39.6420   24.6020 C.2   200  OX5200      0.1449
      9  N8        26.4310   40.4930   24.4480 N.2   200  OX5200     -0.0278
     10  O9        26.4690   41.3810   23.4100 O.2   200  OX5200     -0.1431
@<TRIPOS>BOND
     1    10     9    1
     2     9     8    2
     3     8     5    1
     4     6     5   ar
     5     6     7   ar
     6     5     4   ar
     7     7     2   ar
     8     4     3   ar
     9     2     3   ar
    10     2     1    1
