@<TRIPOS>MOLECULE
2op0_7PC_B_1.pdb
 23 25 0 0 0
SMALL
GASTEIGER

@<TRIPOS>ATOM
      1 CL2        10.2900  101.7130   28.6270 Cl    500  7PC500     -0.0790
      2  C15       10.1610  101.8840   26.8380 C.ar  500  7PC500      0.0928
      3  C16        9.1600  102.6800   26.2850 C.ar  500  7PC500      0.0247
      4  C14       11.0510  101.2170   26.0060 C.ar  500  7PC500      0.1559
      5  C19       10.9510  101.3500   24.6170 C.ar  500  7PC500      0.0391
      6  C22        9.9480  102.1480   24.0680 C.ar  500  7PC500      0.0135
      7  C17        9.0460  102.8120   24.9050 C.ar  500  7PC500      0.0695
      8  C29        8.1120  103.5630   24.4280 C.1   500  7PC500      0.1004
      9  N30        7.2630  104.2430   24.0220 N.1   500  7PC500     -0.1908
     10  O13       12.0340  100.4460   26.5780 O.3   500  7PC500     -0.4494
     11  C2        12.3210   99.2290   26.0460 C.ar  500  7PC500      0.1840
     12  C1        13.6180   98.9410   25.6880 C.ar  500  7PC500      0.2299
     13  O22       14.5930   99.8730   25.8660 O.3   500  7PC500     -0.2833
     14  C6        13.9180   97.7010   25.1450 C.ar  500  7PC500      0.0467
     15  C5        12.9130   96.7600   24.9760 C.ar  500  7PC500      0.0210
     16  C4        11.6060   97.0520   25.3430 C.ar  500  7PC500      0.0048
     17  C3        11.3100   98.2930   25.8850 C.ar  500  7PC500      0.0409
     18  C7        13.2310   95.4390   24.3840 C.ar  500  7PC500      0.0814
     19  N23       14.1620   94.6400   24.9540 N.ar  500  7PC500     -0.2438
     20  C24       14.4580   93.4480   24.4170 C.ar  500  7PC500      0.0988
     21  C25       13.8140   93.0070   23.2630 C.ar  500  7PC500      0.0207
     22  C26       12.8540   93.8080   22.6520 C.ar  500  7PC500      0.0031
     23  C27       12.5640   95.0420   23.2230 C.ar  500  7PC500      0.0191
@<TRIPOS>BOND
     1    22    23   ar
     2    22    21   ar
     3    23    18   ar
     4    21    20   ar
     5     9     8    3
     6     6     5   ar
     7     6     7   ar
     8    18    19   ar
     9    18    15    1
    10    20    19   ar
    11     8     7    1
    12     5     4   ar
    13     7     3   ar
    14    15    14   ar
    15    15    16   ar
    16    14    12   ar
    17    16    17   ar
    18    12    13    1
    19    12    11   ar
    20    17    11   ar
    21     4    10    1
    22     4     2   ar
    23    11    10    1
    24     3     2   ar
    25     2     1    1
