@<TRIPOS>MOLECULE
2op0_NAD_B_1.pdb
 44 48 0 0 0
SMALL
GASTEIGER

@<TRIPOS>ATOM
      1  PA         8.2670  100.0210   32.2150 P.3   450  NAD450      0.2189
      2  O1A        7.0640  100.5220   31.4560 O.2   450  NAD450     -0.5170
      3  O2A        8.0750   99.2360   33.4960 O.3   450  NAD450     -0.4371
      4  O5B        9.2140  101.2810   32.5670 O.3   450  NAD450     -0.3112
      5  C5B        8.9710  102.5940   32.0670 C.3   450  NAD450      0.1813
      6  C4B        8.1860  103.3560   33.1230 C.3   450  NAD450      0.1821
      7  O4B        8.5640  104.7340   33.1190 O.3   450  NAD450     -0.3135
      8  C3B        6.6960  103.2960   32.8150 C.3   450  NAD450      0.2184
      9  O3B        6.0140  102.5790   33.8500 O.3   450  NAD450     -0.2174
     10  C2B        6.2280  104.7420   32.7170 C.3   450  NAD450      0.2570
     11  O2B        5.0630  104.9910   33.5090 O.3   450  NAD450     -0.2130
     12  C1B        7.4040  105.5660   33.2120 C.3   450  NAD450      0.3186
     13  N9A        7.5680  106.7840   32.3830 N.pl3 450  NAD450     -0.1439
     14  C8A        7.4970  106.9020   31.0270 C.3   450  NAD450      0.3377
     15  N7A        7.6930  108.2000   30.5980 N.2   450  NAD450     -0.2095
     16  C5A        7.9040  108.9440   31.7040 C.2   450  NAD450      0.2526
     17  C6A        8.1850  110.3450   32.0690 C.2   450  NAD450      0.4393
     18  N6A        8.0740  111.3330   31.1790 N.pl3 450  NAD450      0.2180
     19  N1A        8.5480  110.5430   33.3500 N.2   450  NAD450      0.0021
     20  C2A        8.3490  109.6830   34.2770 C.3   450  NAD450      0.5254
     21  N3A        7.9820  108.4780   34.0930 N.2   450  NAD450     -0.0055
     22  C4A        7.8090  108.0200   32.8150 C.2   450  NAD450      0.3518
     23  O3         9.1500   99.1410   31.1830 O.3   450  NAD450     -0.2703
     24  PN        10.6920   98.7070   31.4290 P.3   450  NAD450      0.2189
     25  O1N       10.8540   98.2290   32.8620 O.3   450  NAD450     -0.4371
     26  O2N       11.0840   97.8040   30.2840 O.2   450  NAD450     -0.5170
     27  O5D       11.4850  100.1040   31.2440 O.3   450  NAD450     -0.3112
     28  C5D       12.4490  100.5780   32.1820 C.3   450  NAD450      0.1813
     29  C4D       13.7730  100.8240   31.4590 C.3   450  NAD450      0.1799
     30  O4D       14.3570   99.5890   31.0200 O.3   450  NAD450     -0.3327
     31  C3D       13.6380  101.6970   30.2180 C.3   450  NAD450      0.2158
     32  O3D       14.6590  102.7070   30.2450 O.3   450  NAD450     -0.2175
     33  C2D       13.8870  100.7610   29.0440 C.3   450  NAD450      0.2309
     34  O2D       14.4720  101.4580   27.9370 O.3   450  NAD450     -0.2158
     35  C1D       14.8290   99.7420   29.6740 C.3   450  NAD450      0.2263
     36  N1N       14.9230   98.4480   28.9830 N.pl3 450  NAD450     -0.2787
     37  C2N       13.8640   97.6230   28.8910 C.3   450  NAD450      0.1244
     38  C3N       13.9870   96.3890   28.2420 C.2   450  NAD450      0.0544
     39  C7N       12.8260   95.4400   28.1170 C.2   450  NAD450      0.2818
     40  O7N       12.9540   94.3860   27.3200 O.2   450  NAD450     -0.2670
     41  N7N       11.7440   95.6150   28.7490 N.am  450  NAD450     -0.0839
     42  C4N       15.2090   96.0210   27.6990 C.2   450  NAD450      0.0033
     43  C5N       16.2860   96.8890   27.8130 C.2   450  NAD450      0.0157
     44  C6N       16.1160   98.1010   28.4710 C.2   450  NAD450      0.0633
@<TRIPOS>BOND
     1    40    39    2
     2    42    43    1
     3    42    38    2
     4    43    44    2
     5    34    33    1
     6    39    38    1
     7    39    41   am
     8    38    37    1
     9    44    36    1
    10    37    36    1
    11    36    35    1
    12    33    35    1
    13    33    31    1
    14    35    30    1
    15    31    32    1
    16    31    29    1
    17    26    24    2
    18    15    14    1
    19    15    16    2
    20    30    29    1
    21    14    13    1
    22    18    17    1
    23    23    24    1
    24    23     1    1
    25    27    24    1
    26    27    28    1
    27    24    25    1
    28     2     1    2
    29    29    28    1
    30    16    17    1
    31    16    22    1
    32     5     4    1
    33     5     6    1
    34    17    19    2
    35     1     4    1
    36     1     3    1
    37    13    22    1
    38    13    12    1
    39    10     8    1
    40    10    12    1
    41    10    11    1
    42     8     6    1
    43     8     9    1
    44    22    21    2
    45     7     6    1
    46     7    12    1
    47    19    20    1
    48    21    20    1
