@<TRIPOS>MOLECULE
2op1_NAD_A_1.pdb
 44 48 0 0 0
SMALL
GASTEIGER

@<TRIPOS>ATOM
      1  PA        50.6320   88.6090   40.6360 P.3   450  NAD450      0.2189
      2  O1A       52.1120   88.3140   40.6940 O.2   450  NAD450     -0.5170
      3  O2A       49.8390   88.7690   41.9120 O.3   450  NAD450     -0.4371
      4  O5B       49.8920   87.5020   39.7250 O.3   450  NAD450     -0.3112
      5  C5B       50.5790   86.7670   38.7110 C.3   450  NAD450      0.1813
      6  C4B       50.9080   85.3950   39.2750 C.3   450  NAD450      0.1821
      7  O4B       50.9050   84.3640   38.2780 O.3   450  NAD450     -0.3135
      8  C3B       52.3010   85.4100   39.8780 C.3   450  NAD450      0.2184
      9  O3B       52.1950   85.4290   41.3020 O.3   450  NAD450     -0.2174
     10  C2B       52.9630   84.1290   39.4100 C.3   450  NAD450      0.2570
     11  O2B       53.4270   83.3680   40.5280 O.3   450  NAD450     -0.2130
     12  C1B       51.8740   83.3770   38.6590 C.3   450  NAD450      0.3186
     13  N9A       52.4530   82.6230   37.5150 N.pl3 450  NAD450     -0.1439
     14  C8A       53.3810   83.0330   36.6090 C.3   450  NAD450      0.3377
     15  N7A       53.6940   82.0550   35.6920 N.2   450  NAD450     -0.2095
     16  C5A       52.9530   80.9740   36.0080 C.2   450  NAD450      0.2526
     17  C6A       52.7300   79.5940   35.5300 C.2   450  NAD450      0.4393
     18  N6A       53.3140   79.1290   34.4300 N.pl3 450  NAD450      0.2180
     19  N1A       51.9050   78.8430   36.2650 N.2   450  NAD450      0.0021
     20  C2A       51.2690   79.2840   37.2820 C.3   450  NAD450      0.5254
     21  N3A       51.3310   80.4740   37.7370 N.2   450  NAD450     -0.0055
     22  C4A       52.1870   81.3710   37.1670 C.2   450  NAD450      0.3518
     23  O3        50.4300   89.9390   39.7560 O.3   450  NAD450     -0.2703
     24  PN        48.9450   90.4000   39.3460 P.3   450  NAD450      0.2189
     25  O1N       48.0360   90.1510   40.5260 O.3   450  NAD450     -0.4371
     26  O2N       49.0560   91.7680   38.7190 O.2   450  NAD450     -0.5170
     27  O5D       48.5350   89.3510   38.1940 O.3   450  NAD450     -0.3112
     28  C5D       47.2820   88.6680   38.2500 C.3   450  NAD450      0.1813
     29  C4D       46.4920   88.9330   36.9710 C.3   450  NAD450      0.1799
     30  O4D       46.0210   90.2880   36.8910 O.3   450  NAD450     -0.3327
     31  C3D       47.3580   88.7110   35.7450 C.3   450  NAD450      0.2158
     32  O3D       46.6650   87.8120   34.8710 O.3   450  NAD450     -0.2175
     33  C2D       47.5100   90.0890   35.1250 C.3   450  NAD450      0.2309
     34  O2D       47.5770   90.0090   33.7070 O.3   450  NAD450     -0.2158
     35  C1D       46.2360   90.7810   35.5610 C.3   450  NAD450      0.2263
     36  N1N       46.2720   92.2520   35.5260 N.pl3 450  NAD450     -0.2787
     37  C2N       47.0820   92.9420   36.3430 C.3   450  NAD450      0.1244
     38  C3N       47.0990   94.3380   36.3320 C.2   450  NAD450      0.0544
     39  C7N       47.9990   95.1090   37.2640 C.2   450  NAD450      0.2818
     40  O7N       48.1810   96.4120   37.0890 O.2   450  NAD450     -0.2670
     41  N7N       48.5770   94.5390   38.2280 N.am  450  NAD450     -0.0839
     42  C4N       46.2650   95.0170   35.4490 C.2   450  NAD450      0.0033
     43  C5N       45.4430   94.2770   34.6110 C.2   450  NAD450      0.0157
     44  C6N       45.4630   92.8890   34.6710 C.2   450  NAD450      0.0633
@<TRIPOS>BOND
     1    34    33    1
     2    18    17    1
     3    43    44    2
     4    43    42    1
     5    44    36    1
     6    32    31    1
     7    33    35    1
     8    33    31    1
     9    42    38    2
    10    36    35    1
    11    36    37    1
    12    17    16    1
    13    17    19    2
    14    35    30    1
    15    15    16    2
    16    15    14    1
    17    31    29    1
    18    16    22    1
    19    19    20    1
    20    38    37    1
    21    38    39    1
    22    14    13    1
    23    30    29    1
    24    29    28    1
    25    40    39    2
    26    22    13    1
    27    22    21    2
    28    39    41   am
    29    20    21    1
    30    13    12    1
    31    27    28    1
    32    27    24    1
    33     7    12    1
    34     7     6    1
    35    12    10    1
    36     5     6    1
    37     5     4    1
    38    26    24    2
    39     6     8    1
    40    24    23    1
    41    24    25    1
    42    10     8    1
    43    10    11    1
    44     4     1    1
    45    23     1    1
    46     8     9    1
    47     1     2    2
    48     1     3    1
