@<TRIPOS>MOLECULE
2op1_8PC_A_1.pdb
 23 25 0 0 0
SMALL
GASTEIGER

@<TRIPOS>ATOM
      1 CL1        54.9230   88.6760   31.9720 Cl    500  8PC500     -0.0822
      2  C17       53.7990   89.6830   32.9480 C.ar  500  8PC500      0.0587
      3  C16       53.0670   89.0950   33.9740 C.ar  500  8PC500      0.0259
      4  C15       52.1960   89.8580   34.7450 C.ar  500  8PC500      0.0929
      5 CL2        51.2430   89.1130   36.0840 Cl    500  8PC500     -0.0790
      6  C14       52.0510   91.2060   34.4660 C.ar  500  8PC500      0.1559
      7  C19       52.7970   91.8100   33.4560 C.ar  500  8PC500      0.0392
      8  C22       53.6620   91.0430   32.6840 C.ar  500  8PC500      0.0146
      9  O13       51.2130   91.9520   35.2480 O.3   500  8PC500     -0.4494
     10  C2        50.6230   93.0970   34.7880 C.ar  500  8PC500      0.1839
     11  C3        50.9070   94.2610   35.4840 C.ar  500  8PC500      0.0405
     12  C4        50.3550   95.4650   35.0940 C.ar  500  8PC500     -0.0005
     13  C5        49.4950   95.5080   34.0080 C.ar  500  8PC500     -0.0128
     14  C6        49.2050   94.3430   33.3090 C.ar  500  8PC500      0.0414
     15  C1        49.7670   93.1290   33.6940 C.ar  500  8PC500      0.2296
     16  O22       49.4700   91.9970   32.9930 O.3   500  8PC500     -0.2833
     17  C7        48.8850   96.8140   33.5660 C.3   500  8PC500      0.0721
     18  C23       49.9690   97.8450   33.3490 C.ar  500  8PC500      0.0634
     19  N24       50.0150   98.5030   32.1700 N.ar  500  8PC500     -0.2478
     20  C25       50.9460   99.4310   31.9250 C.ar  500  8PC500      0.0985
     21  C26       51.8970   99.7440   32.8900 C.ar  500  8PC500      0.0207
     22  C27       51.8820   99.0840   34.1120 C.ar  500  8PC500      0.0028
     23  C28       50.9020   98.1320   34.3420 C.ar  500  8PC500      0.0151
@<TRIPOS>BOND
     1    20    19   ar
     2    20    21   ar
     3     1     2    1
     4    19    18   ar
     5     8     2   ar
     6     8     7   ar
     7    21    22   ar
     8     2     3   ar
     9    16    15    1
    10    14    15   ar
    11    14    13   ar
    12    18    17    1
    13    18    23   ar
    14     7     6   ar
    15    17    13    1
    16    15    10   ar
    17     3     4   ar
    18    13    12   ar
    19    22    23   ar
    20     6     4   ar
    21     6     9    1
    22     4     5    1
    23    10     9    1
    24    10    11   ar
    25    12    11   ar
