@<TRIPOS>MOLECULE
2op3_TF5_A_1.pdb
 19 20 0 0 0
SMALL
GASTEIGER

@<TRIPOS>ATOM
      1  C10       21.9560   33.1140   11.1230 C.ar  501  TF5501      0.0321
      2  C17       18.5390   38.0180    9.6380 C.3   501  TF5501      0.2292
      3  C16       20.0050   38.2470    9.3550 C.3   501  TF5501      0.2408
      4  C8        20.3670   34.3230   12.4260 C.ar  501  TF5501      0.1946
      5  C7        21.0290   35.5210   12.1670 C.ar  501  TF5501      0.1697
      6  C5        24.1160   39.1570   10.3970 C.ar  501  TF5501      0.0031
      7  C4        22.7530   39.0210   10.2030 C.ar  501  TF5501      0.0369
      8  C3        22.1390   37.8210   10.5360 C.ar  501  TF5501      0.1386
      9  C2        22.8770   36.7840   11.0840 C.ar  501  TF5501      0.0362
     10  O         20.7780   37.6420   10.3770 O.3   501  TF5501     -0.4726
     11  C         24.8670   38.1150   10.9230 C.ar  501  TF5501      0.0002
     12  F13       19.2570   34.2780   13.1600 F     501  TF5501     -0.1994
     13  F         20.6440   36.7350   12.6440 F     501  TF5501     -0.2017
     14  C9        20.8130   33.1270   11.9010 C.ar  501  TF5501      0.1696
     15  F14       20.1400   31.9740   12.1590 F     501  TF5501     -0.2017
     16  C11       22.6310   34.3120   10.8690 C.ar  501  TF5501      0.0048
     17  C6        22.1640   35.5130   11.3960 C.ar  501  TF5501      0.0328
     18  C1        24.2500   36.9190   11.2730 C.ar  501  TF5501      0.0031
     19  O20       17.9530   39.0810    9.5580 O.3   501  TF5501     -0.2162
@<TRIPOS>BOND
     1     3     2    1
     2     3    10    1
     3    19     2    1
     4     7     6   ar
     5     7     8   ar
     6    10     8    1
     7     6    11   ar
     8     8     9   ar
     9    16     1   ar
    10    16    17   ar
    11    11    18   ar
    12     9    18   ar
    13     9    17    1
    14     1    14   ar
    15    17     5   ar
    16    14    15    1
    17    14     4   ar
    18     5     4   ar
    19     5    13    1
    20     4    12    1
