@<TRIPOS>MOLECULE
2opa_FHC_A_1.pdb
 13 13 0 0 0
SMALL
GASTEIGER

@<TRIPOS>ATOM
      1  C1        14.9130   35.2370   36.3170 C.ar  500  FHC500      0.0027
      2  C7        15.8870   34.1760   35.9880 C.2   500  FHC500      0.0365
      3  C8        16.7610   33.3630   36.6500 C.2   500  FHC500      0.2193
      4  C9        17.0810   33.2330   38.0950 C.2   500  FHC500      0.4148
      5  O3        16.4360   34.0180   38.9640 O.co2 500  FHC500     -0.2380
      6  O2        17.9020   32.4430   38.5010 O.co2 500  FHC500     -0.2380
      7  F1        17.4800   32.5120   35.8760 F     500  FHC500     -0.1972
      8  C6        14.1870   35.8370   35.2380 C.ar  500  FHC500      0.0034
      9  C5        13.2530   36.8500   35.5060 C.ar  500  FHC500      0.0420
     10  C4        13.0020   37.3050   36.8140 C.ar  500  FHC500      0.1957
     11  O1        12.0830   38.2950   37.0450 O.3   500  FHC500     -0.2866
     12  C3        13.7120   36.7240   37.9000 C.ar  500  FHC500      0.0420
     13  C2        14.6480   35.7100   37.6440 C.ar  500  FHC500      0.0034
@<TRIPOS>BOND
     1     8     9   ar
     2     8     1   ar
     3     9    10   ar
     4     7     3    1
     5     2     1    1
     6     2     3    2
     7     1    13   ar
     8     3     4    1
     9    10    11    1
    10    10    12   ar
    11    13    12   ar
    12     4     6   ar
    13     4     5   ar
