@<TRIPOS>MOLECULE
2opb_F21_A_1.pdb
 21 23 0 0 0
SMALL
GASTEIGER

@<TRIPOS>ATOM
      1  C12       26.1240   45.4710   13.5220 C.3   4001  F214001     0.1074
      2  C13       25.3300   46.0950   12.3720 C.3   4001  F214001     0.0767
      3  S2        26.5360   46.6830   11.1310 S.3   4001  F214001    -0.1372
      4  C15       27.6510   45.2680   10.8300 C.3   4001  F214001     0.0767
      5  C14       28.1120   44.7800   12.2060 C.3   4001  F214001     0.1074
      6  N1        26.9510   44.3630   13.0090 N.3   4001  F214001    -0.1537
      7  S1        27.4900   43.4300   14.2320 S.O2  4001  F214001     0.0633
      8  O2        26.3720   42.6830   14.7110 O.2   4001  F214001    -0.1528
      9  O1        28.5060   42.4870   13.6580 O.2   4001  F214001    -0.1528
     10  C7        28.2470   44.2400   15.5870 C.ar  4001  F214001     0.1219
     11  C8        28.5710   43.4640   16.6900 C.ar  4001  F214001     0.0167
     12  C9        29.1760   44.0360   17.8140 C.ar  4001  F214001    -0.0074
     13  C1        29.4910   43.1460   19.0230 C.3   4001  F214001     0.1148
     14  N2        30.3820   43.8280   19.9750 N.3   4001  F214001    -0.2115
     15  C3        29.8580   45.1650   20.2800 C.3   4001  F214001     0.1128
     16  C11       30.5810   45.7710   21.4870 C.3   4001  F214001     0.2108
     17  F1        30.1910   45.1340   22.6550 F     4001  F214001    -0.2328
     18  C4        30.0610   46.0630   19.0540 C.3   4001  F214001     0.0463
     19  C10       29.4530   45.3920   17.8240 C.ar  4001  F214001    -0.0232
     20  C5        29.1330   46.1760   16.7000 C.ar  4001  F214001    -0.0031
     21  C6        28.5330   45.6070   15.5910 C.ar  4001  F214001     0.0196
@<TRIPOS>BOND
     1     4     3    1
     2     4     5    1
     3     3     2    1
     4     5     6    1
     5     2     1    1
     6     6     1    1
     7     6     7    1
     8     9     7    2
     9     7     8    2
    10     7    10    1
    11    10    21   ar
    12    10    11   ar
    13    21    20   ar
    14    11    12   ar
    15    20    19   ar
    16    12    19   ar
    17    12    13    1
    18    19    18    1
    19    13    14    1
    20    18    15    1
    21    14    15    1
    22    15    16    1
    23    16    17    1
