@<TRIPOS>MOLECULE
2opb_SAH_A_1.pdb
 26 28 0 0 0
SMALL
GASTEIGER

@<TRIPOS>ATOM
      1  N         27.4530   52.7050   18.7610 N.3   3001  SAH3001    -0.1208
      2  CA        28.6110   52.2710   17.9840 C.3   3001  SAH3001     0.1952
      3  CB        29.7940   51.9290   18.9290 C.3   3001  SAH3001     0.0422
      4  CG        29.4750   50.9560   20.0770 C.3   3001  SAH3001     0.0597
      5  SD        30.9300   50.5300   21.0740 S.3   3001  SAH3001    -0.1375
      6  C         28.2190   51.0820   17.0890 C.2   3001  SAH3001     0.3819
      7  O         29.0770   50.2130   16.7750 O.co2 3001  SAH3001    -0.2441
      8  OXT       27.0290   51.0650   16.6920 O.co2 3001  SAH3001    -0.2441
      9  C5'       30.4890   51.2240   22.7090 C.3   3001  SAH3001     0.0899
     10  C4'       30.7090   52.7160   22.7540 C.3   3001  SAH3001     0.1630
     11  O4'       30.2990   53.2990   24.0220 O.3   3001  SAH3001    -0.3153
     12  C3'       32.1220   53.2200   22.4790 C.3   3001  SAH3001     0.2168
     13  O3'       32.0800   54.1720   21.4250 O.3   3001  SAH3001    -0.2175
     14  C2'       32.5480   53.8300   23.8140 C.3   3001  SAH3001     0.2569
     15  O2'       33.4450   54.9120   23.7080 O.3   3001  SAH3001    -0.2130
     16  C1'       31.2140   54.3220   24.3640 C.3   3001  SAH3001     0.3185
     17  N9        31.1810   54.5620   25.8120 N.pl3 3001  SAH3001    -0.1439
     18  C8        32.1220   54.1730   26.8150 C.3   3001  SAH3001     0.3377
     19  N7        31.7990   54.5900   28.0190 N.2   3001  SAH3001    -0.2095
     20  C5        30.6090   55.2710   27.8120 C.2   3001  SAH3001     0.2526
     21  C6        29.8000   55.9490   28.7500 C.2   3001  SAH3001     0.4393
     22  N6        30.0860   56.0440   30.0430 N.pl3 3001  SAH3001     0.2180
     23  N1        28.6660   56.5410   28.2900 N.2   3001  SAH3001     0.0021
     24  C2        28.3860   56.4520   26.9640 C.3   3001  SAH3001     0.5254
     25  N3        29.0940   55.8370   25.9850 N.2   3001  SAH3001    -0.0055
     26  C4        30.2080   55.2600   26.4850 C.2   3001  SAH3001     0.3518
@<TRIPOS>BOND
     1     8     6   ar
     2     7     6   ar
     3     6     2    1
     4     2     1    1
     5     2     3    1
     6     3     4    1
     7     4     5    1
     8     5     9    1
     9    13    12    1
    10    12    10    1
    11    12    14    1
    12     9    10    1
    13    10    11    1
    14    15    14    1
    15    14    16    1
    16    11    16    1
    17    16    17    1
    18    17    26    1
    19    17    18    1
    20    25    26    2
    21    25    24    1
    22    26    20    1
    23    18    19    1
    24    24    23    1
    25    20    19    2
    26    20    21    1
    27    23    21    2
    28    21    22    1
