@<TRIPOS>MOLECULE
2oph_277_A_1.pdb
 23 24 0 0 0
SMALL
GASTEIGER

@<TRIPOS>ATOM
      1  C1        42.7890   50.9110   34.5470 C.3   1001  2771001     0.0198
      2  C2        41.4150   50.6190   35.1490 C.3   1001  2771001     0.0018
      3  C3        40.7520   51.9110   35.7040 C.3   1001  2771001     0.0020
      4  C4        41.6920   52.5720   36.7740 C.3   1001  2771001     0.0018
      5  C5        43.0960   52.8750   36.2100 C.3   1001  2771001     0.0198
      6  C6        43.7090   51.5860   35.5910 C.3   1001  2771001     0.0754
      7  C15       39.3560   51.6220   36.3190 C.3   1001  2771001     0.0265
      8  C17       38.2950   51.2190   35.2310 C.3   1001  2771001     0.1677
      9  C18       36.8530   51.2360   35.8390 C.2   1001  2771001     0.2432
     10  N19       36.1070   50.1110   35.7850 N.am  1001  2771001    -0.2755
     11  N20       45.0680   51.8810   35.0470 N.am  1001  2771001    -0.2794
     12  C22       46.2700   51.5900   35.6500 C.2   1001  2771001     0.2261
     13  C23       45.2000   52.5530   33.7250 C.3   1001  2771001     0.1148
     14  C27       46.2940   50.9030   37.0350 C.3   1001  2771001     0.0948
     15  O31       47.3470   51.8590   35.1240 O.2   1001  2771001    -0.2749
     16  O32       36.4380   52.2310   36.3990 O.2   1001  2771001    -0.2733
     17  N33       38.3100   51.9710   34.4040 N.3   1001  2771001    -0.1231
     18  C35       39.4230   50.5090   37.4130 C.3   1001  2771001     0.0020
     19  C42       36.6560   48.8210   35.4280 C.3   1001  2771001     0.1286
     20  C43       35.5230   47.8450   35.5320 C.3   1001  2771001     0.1824
     21  C44       34.2880   48.7140   35.4090 C.3   1001  2771001     0.0585
     22  C45       34.6560   50.0280   36.0920 C.3   1001  2771001     0.0964
     23  F52       35.5580   47.2850   36.8100 F     1001  2771001    -0.2354
@<TRIPOS>BOND
     1    13    11    1
     2    17     8    1
     3     1     2    1
     4     1     6    1
     5    11     6    1
     6    11    12   am
     7    15    12    2
     8     2     3    1
     9     8     9    1
    10     8     7    1
    11    21    20    1
    12    21    22    1
    13    19    20    1
    14    19    10    1
    15    20    23    1
    16     6     5    1
    17    12    14    1
    18     3     7    1
    19     3     4    1
    20    10     9   am
    21    10    22    1
    22     9    16    2
    23     5     4    1
    24     7    18    1
