@<TRIPOS>MOLECULE
2opm_NI9_A_1.pdb
 18 18 0 0 0
SMALL
GASTEIGER

@<TRIPOS>ATOM
      1  C1        14.7890   77.6270   25.2620 C.3   901  NI9901      0.2338
      2  O1        14.4490   76.8490   22.8620 O.2   901  NI9901     -0.4572
      3  O2        13.6830   77.3370   26.2010 O.3   901  NI9901     -0.2090
      4  C2        14.3610   78.6990   24.1930 C.3   901  NI9901      0.1360
      5  O3        16.5210   75.9290   23.9460 O.3   901  NI9901     -0.3552
      6  C3        15.2860   80.9740   24.0530 C.3   901  NI9901      0.1482
      7  P1        16.3090   78.1660   26.2620 P.3   901  NI9901      0.1528
      8  P2        15.0250   76.2000   24.1000 P.3   901  NI9901      0.1528
      9  O4        15.9590   79.4690   27.0020 O.3   901  NI9901     -0.3552
     10  O5        14.3000   74.9450   24.5630 O.3   901  NI9901     -0.3552
     11  O6        16.4960   76.9830   27.2340 O.3   901  NI9901     -0.3552
     12  O7        17.5420   78.3540   25.3330 O.2   901  NI9901     -0.4572
     13  N         14.4500   80.1100   24.6700 N.pl3 901  NI9901     -0.2976
     14  F         16.2270   83.1750   23.8900 F     901  NI9901     -0.2071
     15  C4        14.6270   82.6610   25.5290 C.2   901  NI9901      0.0282
     16  C5        13.6790   80.4700   25.7260 C.2   901  NI9901      0.0618
     17  C6        13.7580   81.7760   26.1550 C.2   901  NI9901      0.0178
     18  C7        15.3910   82.2890   24.4580 C.2   901  NI9901      0.1376
@<TRIPOS>BOND
     1     2     8    2
     2    14    18    1
     3     5     8    1
     4     6    18    1
     5     6    13    1
     6     8    10    1
     7     8     1    1
     8     4    13    1
     9     4     1    1
    10    18    15    2
    11    13    16    1
    12     1     3    1
    13     1     7    1
    14    12     7    2
    15    15    17    1
    16    16    17    2
    17     7     9    1
    18     7    11    1
