@<TRIPOS>MOLECULE
2opn_SUF_A_1.pdb
 14 13 0 0 0
SMALL
GASTEIGER

@<TRIPOS>ATOM
      1  P1        14.6610   76.7610   25.0200 P.3   901  SUF901      0.1519
      2  P2        16.9050   77.9120   26.6580 P.3   901  SUF901      0.1519
      3  S         14.3340   80.4850   24.7950 S.3   901  SUF901     -0.1745
      4  O1        17.9620   77.7330   25.5960 O.2   901  SUF901     -0.4572
      5  O2        14.4990   78.6820   26.7600 O.3   901  SUF901     -0.2099
      6  O3        16.9690   79.2370   27.3740 O.3   901  SUF901     -0.3552
      7  O4        15.6920   75.6950   25.1240 O.3   901  SUF901     -0.3552
      8  O5        14.3790   77.1960   23.6350 O.2   901  SUF901     -0.4572
      9  C1        15.3790   78.2220   25.7700 C.3   901  SUF901      0.2250
     10  O6        13.4770   76.3860   25.8260 O.3   901  SUF901     -0.3552
     11  C2        15.5530   79.3510   24.7740 C.3   901  SUF901      0.0928
     12  O7        16.7730   76.7550   27.5580 O.3   901  SUF901     -0.3552
     13  C3        14.4320   81.6000   26.0030 C.3   901  SUF901      0.0591
     14  C4        12.8810   79.7200   24.7330 C.3   901  SUF901      0.0591
@<TRIPOS>BOND
     1     8     1    2
     2    14     3    1
     3    11     3    1
     4    11     9    1
     5     3    13    1
     6     1     7    1
     7     1     9    1
     8     1    10    1
     9     4     2    2
    10     9     2    1
    11     9     5    1
    12     2     6    1
    13     2    12    1
