@<TRIPOS>MOLECULE
2opp_HBQ_A_1.pdb
 20 21 0 0 0
SMALL
GASTEIGER

@<TRIPOS>ATOM
      1  C1         2.2440  -37.5600   18.7500 C.1   999  HBQ999      0.1981
      2  C2         2.6050  -38.1810   20.1110 C.3   999  HBQ999      0.1974
      3  C3         0.8620  -36.7710   21.1780 C.3   999  HBQ999      0.1572
      4  C4         0.3160  -36.5540   19.8810 C.2   999  HBQ999      0.1441
      5  C5        -1.0130  -36.0870   19.7300 C.2   999  HBQ999      0.0328
      6  C6        -1.7820  -35.8460   20.8790 C.2   999  HBQ999      0.0317
      7  C7        -1.2040  -36.0780   22.1160 C.2   999  HBQ999      0.1380
      8  C8         0.0680  -36.5220   22.3010 C.2   999  HBQ999      0.0303
      9  C9         1.9770  -39.5700   20.2690 C.3   999  HBQ999      0.0383
     10  C10        2.1870  -40.1890   21.6210 C.3   999  HBQ999      0.0030
     11  C11        3.2520  -36.8730   22.1410 C.2   999  HBQ999      0.4061
     12  C12        3.8300  -35.5810   24.0550 C.3   999  HBQ999      0.1707
     13  C13        2.9380  -35.2850   25.2920 C.3   999  HBQ999      0.0474
     14  C14        4.3700  -34.3020   23.6710 C.3   999  HBQ999      0.0474
     15  F1        -1.9370  -35.9020   23.2100 F     999  HBQ999     -0.2044
     16  N1         2.2410  -37.2710   21.2350 N.am  999  HBQ999     -0.2236
     17  N2         1.1290  -36.8100   18.7500 N.2   999  HBQ999     -0.3375
     18  O1         2.9370  -37.7410   17.7540 O.2   999  HBQ999     -0.2125
     19  O2         2.8420  -36.0180   23.0700 O.3   999  HBQ999     -0.4383
     20  O3         4.3810  -37.3500   22.0420 O.2   999  HBQ999     -0.2262
@<TRIPOS>BOND
     1    18     1    2
     2     1    17    2
     3     1     2    1
     4    17     4    2
     5     5     4    1
     6     5     6    2
     7     4     3    1
     8     2     9    1
     9     2    16    1
    10     9    10    1
    11     6     7    1
    12     3    16    1
    13     3     8    1
    14    16    11   am
    15    20    11    2
    16     7     8    2
    17     7    15    1
    18    11    19    1
    19    19    12    1
    20    14    12    1
    21    12    13    1
