@<TRIPOS>MOLECULE
2opq_HBQ_A_1.pdb
 20 21 0 0 0
SMALL
GASTEIGER

@<TRIPOS>ATOM
      1  C1         2.4620  -37.7020   17.8630 C.1   999  HBQ999      0.1981
      2  C2         2.8000  -38.3080   19.2500 C.3   999  HBQ999      0.1974
      3  C3         1.0700  -36.8430   20.2880 C.3   999  HBQ999      0.1572
      4  C4         0.5250  -36.6350   18.9870 C.2   999  HBQ999      0.1441
      5  C5        -0.8040  -36.1610   18.8480 C.2   999  HBQ999      0.0328
      6  C6        -1.5760  -35.8940   20.0210 C.2   999  HBQ999      0.0317
      7  C7        -0.9970  -36.1100   21.2570 C.2   999  HBQ999      0.1380
      8  C8         0.2740  -36.5670   21.4190 C.2   999  HBQ999      0.0303
      9  C9         2.1450  -39.6730   19.4280 C.3   999  HBQ999      0.0383
     10  C10        2.4730  -40.3340   20.7320 C.3   999  HBQ999      0.0030
     11  C11        3.4850  -36.8280   21.1970 C.2   999  HBQ999      0.4061
     12  C12        3.9460  -35.4710   23.1440 C.3   999  HBQ999      0.1707
     13  C13        3.1790  -35.5870   24.4780 C.3   999  HBQ999      0.0474
     14  C14        4.0380  -34.0420   22.9010 C.3   999  HBQ999      0.0474
     15  F1        -1.7080  -35.8350   22.3820 F     999  HBQ999     -0.2044
     16  N1         2.4440  -37.3480   20.3480 N.am  999  HBQ999     -0.2236
     17  N2         1.3340  -36.9110   17.8480 N.2   999  HBQ999     -0.3375
     18  O1         3.1730  -37.9210   16.8630 O.2   999  HBQ999     -0.2125
     19  O2         2.9990  -36.0870   22.2220 O.3   999  HBQ999     -0.4383
     20  O3         4.7030  -37.0970   20.9730 O.2   999  HBQ999     -0.2262
@<TRIPOS>BOND
     1    18     1    2
     2    17     1    2
     3    17     4    2
     4     1     2    1
     5     5     4    1
     6     5     6    2
     7     4     3    1
     8     2     9    1
     9     2    16    1
    10     9    10    1
    11     6     7    1
    12     3    16    1
    13     3     8    1
    14    16    11   am
    15    20    11    2
    16    11    19    1
    17     7     8    2
    18     7    15    1
    19    19    12    1
    20    14    12    1
    21    12    13    1
