@<TRIPOS>MOLECULE
2opr_HBQ_A_1.pdb
 20 21 0 0 0
SMALL
GASTEIGER

@<TRIPOS>ATOM
      1  C1        -0.2160  -35.3590   21.5530 C.1   999  HBQ999      0.1981
      2  C2        -0.0270  -35.9560   22.9800 C.3   999  HBQ999      0.1974
      3  C3        -1.6380  -34.2730   23.8640 C.3   999  HBQ999      0.1572
      4  C4        -2.0510  -34.0300   22.4920 C.2   999  HBQ999      0.1441
      5  C5        -3.2760  -33.3670   22.2200 C.2   999  HBQ999      0.0328
      6  C6        -4.0940  -32.9420   23.3000 C.2   999  HBQ999      0.0317
      7  C7        -3.6690  -33.1900   24.6070 C.2   999  HBQ999      0.1380
      8  C8        -2.4770  -33.8420   24.9230 C.2   999  HBQ999      0.0303
      9  C9        -0.8300  -37.2250   23.1560 C.3   999  HBQ999      0.0383
     10  C10       -0.4980  -37.9510   24.4170 C.3   999  HBQ999      0.0030
     11  C11        0.6700  -34.5570   24.9300 C.2   999  HBQ999      0.4061
     12  C12        1.1360  -33.0060   26.6560 C.3   999  HBQ999      0.1707
     13  C13       -0.0300  -32.8870   27.6520 C.3   999  HBQ999      0.0474
     14  C14        1.6720  -31.6840   26.5480 C.3   999  HBQ999      0.0474
     15  F1        -4.4560  -32.7360   25.6360 F     999  HBQ999     -0.2044
     16  N1        -0.3520  -34.9620   24.0410 N.am  999  HBQ999     -0.2236
     17  N2        -1.2130  -34.4550   21.4280 N.2   999  HBQ999     -0.3375
     18  O1         0.5060  -35.6900   20.6220 O.2   999  HBQ999     -0.2125
     19  O2         0.4460  -33.3460   25.4440 O.3   999  HBQ999     -0.4383
     20  O3         1.6480  -35.3010   25.1490 O.2   999  HBQ999     -0.2262
@<TRIPOS>BOND
     1    18     1    2
     2    17     1    2
     3    17     4    2
     4     1     2    1
     5     5     4    1
     6     5     6    2
     7     4     3    1
     8     2     9    1
     9     2    16    1
    10     9    10    1
    11     6     7    1
    12     3    16    1
    13     3     8    1
    14    16    11   am
    15     7     8    2
    16     7    15    1
    17    11    20    2
    18    11    19    1
    19    19    12    1
    20    14    12    1
    21    12    13    1
