@<TRIPOS>MOLECULE
2ops_HBQ_A_1.pdb
 20 21 0 0 0
SMALL
GASTEIGER

@<TRIPOS>ATOM
      1  C1        -0.1990  -36.1590   21.7470 C.1   999  HBQ999      0.1981
      2  C2         0.0660  -36.6510   23.1690 C.3   999  HBQ999      0.1974
      3  C3        -1.6260  -35.0090   24.0140 C.3   999  HBQ999      0.1572
      4  C4        -2.0930  -34.8930   22.6610 C.2   999  HBQ999      0.1441
      5  C5        -3.3580  -34.3380   22.3960 C.2   999  HBQ999      0.0328
      6  C6        -4.1610  -33.9010   23.4840 C.2   999  HBQ999      0.0317
      7  C7        -3.6740  -34.0290   24.7740 C.2   999  HBQ999      0.1380
      8  C8        -2.4490  -34.5650   25.0710 C.2   999  HBQ999      0.0303
      9  C9        -0.6700  -37.9680   23.3870 C.3   999  HBQ999      0.0383
     10  C10       -0.0880  -38.7670   24.4900 C.3   999  HBQ999      0.0030
     11  C11        0.6860  -35.1240   25.1010 C.2   999  HBQ999      0.4061
     12  C12        1.0300  -33.7400   27.0120 C.3   999  HBQ999      0.1707
     13  C13       -0.0610  -33.0620   27.8550 C.3   999  HBQ999      0.0474
     14  C14        1.9870  -32.7000   26.7770 C.3   999  HBQ999      0.0474
     15  F1        -4.4540  -33.5960   25.8030 F     999  HBQ999     -0.2044
     16  N1        -0.3030  -35.6040   24.1940 N.am  999  HBQ999     -0.2236
     17  N2        -1.2620  -35.3310   21.6060 N.2   999  HBQ999     -0.3375
     18  O1         0.5190  -36.5000   20.8200 O.2   999  HBQ999     -0.2125
     19  O2         0.2990  -34.0410   25.7960 O.3   999  HBQ999     -0.4383
     20  O3         1.7710  -35.7100   25.2040 O.2   999  HBQ999     -0.2262
@<TRIPOS>BOND
     1    18     1    2
     2    17     1    2
     3    17     4    2
     4     1     2    1
     5     5     4    1
     6     5     6    2
     7     4     3    1
     8     2     9    1
     9     2    16    1
    10     9    10    1
    11     6     7    1
    12     3    16    1
    13     3     8    1
    14    16    11   am
    15     7     8    2
    16     7    15    1
    17    11    20    2
    18    11    19    1
    19    19    12    1
    20    14    12    1
    21    12    13    1
