@<TRIPOS>MOLECULE
2opx_DXC_A_1.pdb
 28 31 0 0 0
SMALL
GASTEIGER

@<TRIPOS>ATOM
      1  C1       -55.1830   16.6870  -14.3970 C.3   1001  DXC1001     0.1520
      2  C2       -55.4170   17.7430  -15.5000 C.3   1001  DXC1001     0.0329
      3  C3       -55.7950   19.1160  -14.8790 C.3   1001  DXC1001     0.0025
      4  C4       -57.0520   19.0160  -13.9200 C.3   1001  DXC1001     0.0002
      5  C5       -56.8360   17.8900  -12.8790 C.3   1001  DXC1001     0.0026
      6  C6       -56.4380   16.5340  -13.5120 C.3   1001  DXC1001     0.0329
      7  C7       -56.0080   20.1850  -15.9780 C.3   1001  DXC1001     0.0001
      8  C8       -57.3380   20.0450  -16.7310 C.3   1001  DXC1001     0.0000
      9  C9       -58.5680   20.0070  -15.8070 C.3   1001  DXC1001     0.0002
     10  C10      -58.4150   18.8590  -14.7470 C.3   1001  DXC1001     0.0025
     11  C11      -59.9060   19.8330  -16.5760 C.3   1001  DXC1001     0.0024
     12  C12      -61.1900   19.8030  -15.6730 C.3   1001  DXC1001     0.0282
     13  C13      -60.9950   18.6270  -14.6550 C.3   1001  DXC1001     0.1519
     14  C14      -59.6700   18.7710  -13.8350 C.3   1001  DXC1001     0.0329
     15  C15      -60.2680   20.8160  -17.6710 C.3   1001  DXC1001     0.0001
     16  C16      -61.6830   20.3900  -18.0230 C.3   1001  DXC1001     0.0001
     17  C17      -62.2860   19.6010  -16.8310 C.3   1001  DXC1001     0.0024
     18  C18      -57.0420   20.2840  -13.0410 C.3   1001  DXC1001     0.0000
     19  C19      -63.8350   19.9520  -16.6670 C.3   1001  DXC1001     0.0006
     20  O1       -60.9400   17.3640  -15.3380 O.3   1001  DXC1001    -0.2232
     21  O2       -54.8440   15.4270  -14.9890 O.3   1001  DXC1001    -0.2232
     22  C20      -61.2900   21.1510  -14.8600 C.3   1001  DXC1001     0.0025
     23  C21      -64.5120   19.1890  -15.5150 C.3   1001  DXC1001     0.0118
     24  C22      -65.6190   18.2170  -16.0010 C.3   1001  DXC1001     0.1141
     25  C23      -66.6760   18.8830  -16.9140 C.2   1001  DXC1001     0.3649
     26  O3       -66.5440   18.8060  -18.1730 O.co2 1001  DXC1001    -0.2457
     27  O4       -67.6430   19.4970  -16.3800 O.co2 1001  DXC1001    -0.2457
     28  C24      -64.1220   21.4730  -16.5710 C.3   1001  DXC1001     0.0000
@<TRIPOS>BOND
     1    26    25   ar
     2    16    15    1
     3    16    17    1
     4    15    11    1
     5    25    27   ar
     6    25    24    1
     7    17    19    1
     8    17    12    1
     9     8     7    1
    10     8     9    1
    11    19    28    1
    12    19    23    1
    13    11     9    1
    14    11    12    1
    15    24    23    1
    16     7     3    1
    17     9    10    1
    18    12    22    1
    19    12    13    1
    20     2     3    1
    21     2     1    1
    22    20    13    1
    23    21     1    1
    24     3     4    1
    25    10     4    1
    26    10    14    1
    27    13    14    1
    28     1     6    1
    29     4    18    1
    30     4     5    1
    31     6     5    1
