@<TRIPOS>MOLECULE
2opy_CO9_A_1.pdb
 32 35 0 0 0
SMALL
GASTEIGER

@<TRIPOS>ATOM
      1  C1       -16.0130  -21.6030   -0.5070 C.3   101  CO9101      0.0318
      2  N1       -15.8870  -19.2000    0.0770 N.3   101  CO9101     -0.1217
      3  O1       -13.4710  -19.8500   -5.5660 O.2   101  CO9101     -0.2673
      4  C2       -15.3910  -20.2460   -0.8210 C.3   101  CO9101      0.1803
      5  N2       -14.8290  -19.9790   -3.1910 N.2   101  CO9101     -0.3662
      6  O2       -13.6600  -17.0960   -7.4970 O.2   101  CO9101     -0.2715
      7  C3       -15.6800  -19.8770   -2.2450 C.2   101  CO9101      0.2705
      8  N3       -15.2030  -19.3050   -6.8670 N.am  101  CO9101     -0.2675
      9  O3       -11.5850  -16.3600  -11.2160 O.co2 101  CO9101     -0.2437
     10  C4       -15.3870  -19.5710   -4.3420 C.2   101  CO9101      0.2092
     11  N4       -12.1310  -18.4170   -8.4490 N.am  101  CO9101     -0.1939
     12  O4       -11.8710  -18.5660  -11.2190 O.co2 101  CO9101     -0.2437
     13  C5       -14.6560  -19.5700   -5.6260 C.2   101  CO9101      0.2787
     14  N5        -8.2050  -20.5510  -10.3910 N.2   101  CO9101     -0.2482
     15  O5       -16.8310  -19.3990   -2.7340 O.2   101  CO9101     -0.4458
     16  C6       -16.6210  -19.0390   -7.2240 C.3   101  CO9101      0.0943
     17  C7       -16.7400  -19.4340   -8.7130 C.3   101  CO9101      0.0237
     18  C8       -15.3830  -18.9390   -9.2710 C.3   101  CO9101      0.0310
     19  C9       -14.4180  -19.2460   -8.1150 C.3   101  CO9101      0.1538
     20  C10      -13.3780  -18.1660   -8.0110 C.2   101  CO9101      0.2599
     21  C11      -11.3170  -17.3860   -9.0940 C.3   101  CO9101      0.2018
     22  C12       -9.8060  -17.6140   -8.7860 C.3   101  CO9101      0.0575
     23  C13       -9.2850  -18.9840   -9.2280 C.2   101  CO9101     -0.0136
     24  C14       -8.4750  -19.2130  -10.2800 C.2   101  CO9101      0.0907
     25  C15       -8.8410  -21.2490   -9.3960 C.2   101  CO9101      0.0665
     26  C16       -8.8990  -22.6230   -9.0570 C.2   101  CO9101      0.0153
     27  C17       -9.6530  -23.0390   -7.9540 C.2   101  CO9101      0.0009
     28  C18      -10.3600  -22.0940   -7.1740 C.2   101  CO9101     -0.0038
     29  C19      -10.3150  -20.7400   -7.4940 C.2   101  CO9101     -0.0164
     30  C20       -9.5560  -20.2970   -8.6090 C.3   101  CO9101      0.0819
     31  C21      -11.5980  -17.3970  -10.5920 C.2   101  CO9101      0.3845
     32  C22      -16.6630  -19.2010   -4.0500 C.3   101  CO9101      0.2709
@<TRIPOS>BOND
     1    12    31   ar
     2     9    31   ar
     3    31    21    1
     4    14    24    1
     5    14    25    2
     6    24    23    2
     7    25    26    1
     8    25    30    1
     9    18    17    1
    10    18    19    1
    11    23    22    1
    12    23    30    1
    13    21    22    1
    14    21    11    1
    15    26    27    2
    16    17    16    1
    17    30    29    1
    18    11    20   am
    19    19    20    1
    20    19     8    1
    21    20     6    2
    22    27    28    1
    23    29    28    2
    24    16     8    1
    25     8    13   am
    26    13     3    2
    27    13    10    1
    28    10    32    1
    29    10     5    2
    30    32    15    1
    31     5     7    2
    32    15     7    1
    33     7     4    1
    34     4     1    1
    35     4     2    1
