@<TRIPOS>MOLECULE
2opz_III_E_1.pdb
 31 32 0 0 0
SMALL
GASTEIGER

@<TRIPOS>ATOM
      1  N         79.1730   30.9440    3.8850 N.3     1  ALA1       -0.1231
      2  CA        77.7060   30.7750    4.1080 C.3     1  ALA1        0.1694
      3  C         77.0210   32.1090    3.8900 C.2     1  ALA1        0.2592
      4  O         77.6230   33.0430    3.3390 O.2     1  ALA1       -0.2718
      5  CB        77.4350   30.3340    5.4870 C.3     1  ALA1        0.0304
      6  N         75.7720   32.2200    4.3360 N.am    2  VAL2       -0.1966
      7  CA        75.0720   33.4680    4.1130 C.3     2  VAL2        0.1712
      8  C         74.3220   34.0650    5.2900 C.2     2  VAL2        0.2458
      9  O         73.7900   33.3530    6.1520 O.2     2  VAL2       -0.2730
     10  CB        74.0960   33.3250    2.9250 C.3     2  VAL2        0.0289
     11  CG1       73.4210   34.6590    2.5830 C.3     2  VAL2        0.0023
     12  CG2       74.8300   32.8370    1.7100 C.3     2  VAL2        0.0023
     13  N         74.2890   35.4030    5.3340 N.am    3  PRO3       -0.2716
     14  CA        73.6110   36.1600    6.3860 C.3     3  PRO3        0.1536
     15  C         72.0860   36.2070    6.1810 C.2     3  PRO3        0.2599
     16  O         71.5960   36.0620    5.0310 O.2     3  PRO3       -0.2715
     17  CB        74.2250   37.5570    6.2560 C.3     3  PRO3        0.0310
     18  CG        75.5200   37.2940    5.6620 C.3     3  PRO3        0.0237
     19  CD        75.2050   36.2820    4.5920 C.3     3  PRO3        0.0939
     20  N         71.3460   36.4360    7.2750 N.am    4  PHE4       -0.1938
     21  CA        69.8840   36.5690    7.2150 C.3     4  PHE4        0.2021
     22  C         69.4400   37.2190    8.5270 C.2     4  PHE4        0.3845
     23  O         70.2360   37.0870    9.4830 O.co2   4  PHE4       -0.2437
     24  CB        69.1900   35.2020    7.0260 C.3     4  PHE4        0.0596
     25  CG        69.1160   34.3670    8.2830 C.ar    4  PHE4       -0.0199
     26  CD1       68.1700   34.6390    9.2800 C.ar    4  PHE4       -0.0042
     27  CD2       69.9870   33.2980    8.4710 C.ar    4  PHE4       -0.0042
     28  CE1       68.0860   33.8670   10.4400 C.ar    4  PHE4       -0.0003
     29  CE2       69.9150   32.5130    9.6340 C.ar    4  PHE4       -0.0003
     30  CZ        68.9630   32.7950   10.6150 C.ar    4  PHE4       -0.0000
     31  OXT       68.3340   37.8200    8.5940 O.co2   4  PHE4       -0.2437
@<TRIPOS>BOND
     1    12    10    1
     2    11    10    1
     3    10     7    1
     4     4     3    2
     5     1     2    1
     6     3     2    1
     7     3     6   am
     8     2     5    1
     9     7     6    1
    10     7     8    1
    11    19    13    1
    12    19    18    1
    13    16    15    2
    14     8    13   am
    15     8     9    2
    16    13    14    1
    17    18    17    1
    18    15    14    1
    19    15    20   am
    20    17    14    1
    21    24    21    1
    22    24    25    1
    23    21    20    1
    24    21    22    1
    25    25    27   ar
    26    25    26   ar
    27    27    29   ar
    28    22    31   ar
    29    22    23   ar
    30    26    28   ar
    31    29    30   ar
    32    28    30   ar
