@<TRIPOS>MOLECULE
2oq2_A3P_A_1.pdb
 27 29 0 0 0
SMALL
GASTEIGER

@<TRIPOS>ATOM
      1  P1        18.4950   19.5070   34.8760 P.3   999  A3P999      0.5327
      2  O1P       19.0000   20.0390   33.5490 O.2   999  A3P999     -0.2224
      3  O2P       17.3110   18.5860   34.7000 O.3   999  A3P999     -0.1145
      4  O3P       18.2610   20.5390   35.9360 O.3   999  A3P999     -0.1145
      5  P2        21.4860   15.8070   31.9460 P.3   999  A3P999      0.5327
      6  O4P       20.3460   14.8950   32.3750 O.3   999  A3P999     -0.1145
      7  O5P       21.1800   16.7450   30.8030 O.2   999  A3P999     -0.2224
      8  O6P       22.8340   15.1340   31.8790 O.3   999  A3P999     -0.1145
      9  O5'       21.6310   16.7970   33.2050 O.3   999  A3P999     -0.2675
     10  C5'       21.7660   16.2740   34.5240 C.3   999  A3P999      0.1859
     11  C4'       21.8410   17.4110   35.5340 C.3   999  A3P999      0.1796
     12  O4'       23.1940   17.8820   35.6060 O.3   999  A3P999     -0.3136
     13  C3'       21.0280   18.6440   35.1680 C.3   999  A3P999      0.1928
     14  O3'       19.6470   18.5690   35.5070 O.3   999  A3P999     -0.2673
     15  C2'       21.7740   19.7140   35.9500 C.3   999  A3P999      0.2543
     16  O2'       21.4540   19.6680   37.3410 O.3   999  A3P999     -0.2131
     17  C1'       23.2220   19.3080   35.7500 C.3   999  A3P999      0.3185
     18  N9        23.6350   19.9430   34.4730 N.pl3 999  A3P999     -0.1439
     19  C8        23.8180   19.2970   33.2970 C.3   999  A3P999      0.3377
     20  N7        24.1840   20.1490   32.3150 N.2   999  A3P999     -0.2095
     21  C5        24.2290   21.3750   32.8600 C.2   999  A3P999      0.2526
     22  C6        24.5380   22.7340   32.3610 C.2   999  A3P999      0.4393
     23  N6        24.8650   22.9180   31.0610 N.pl3 999  A3P999      0.2180
     24  N1        24.4650   23.7590   33.2470 N.2   999  A3P999      0.0021
     25  C2        24.1360   23.5710   34.5460 C.3   999  A3P999      0.5254
     26  N3        23.8380   22.3630   35.0650 N.2   999  A3P999     -0.0055
     27  C4        23.8690   21.2440   34.2810 C.2   999  A3P999      0.3518
@<TRIPOS>BOND
     1     7     5    2
     2    23    22    1
     3     8     5    1
     4     5     6    1
     5     5     9    1
     6    20    21    2
     7    20    19    1
     8    22    21    1
     9    22    24    2
    10    21    27    1
    11     9    10    1
    12    24    25    1
    13    19    18    1
    14     2     1    2
    15    27    18    1
    16    27    26    2
    17    18    17    1
    18    10    11    1
    19    25    26    1
    20     3     1    1
    21     1    14    1
    22     1     4    1
    23    13    14    1
    24    13    11    1
    25    13    15    1
    26    11    12    1
    27    12    17    1
    28    17    15    1
    29    15    16    1
