@<TRIPOS>MOLECULE
2oq6_OGA_A_1.pdb
 10 9 0 0 0
SMALL
GASTEIGER

@<TRIPOS>ATOM
      1  C1       -29.1670  -21.2260  -23.6550 C.2   600  OGA600      0.4419
      2  C2       -27.8010  -21.6540  -23.1310 C.2   600  OGA600      0.3455
      3  C4       -25.4040  -22.0740  -23.4840 C.3   600  OGA600      0.2290
      4  C5       -24.3420  -22.0250  -24.5990 C.2   600  OGA600      0.3866
      5  O1       -29.2040  -20.9130  -24.8580 O.co2 600  OGA600     -0.2354
      6  O2       -30.1300  -21.1970  -22.8020 O.co2 600  OGA600     -0.2354
      7  O2'      -27.7900  -21.9630  -21.9460 O.2   600  OGA600     -0.2611
      8  O3       -23.1620  -21.9840  -24.2120 O.co2 600  OGA600     -0.2437
      9  N1       -26.7420  -21.6810  -23.9370 N.am  600  OGA600     -0.1838
     10  O4       -24.7070  -22.0800  -25.7910 O.co2 600  OGA600     -0.2437
@<TRIPOS>BOND
     1    10     4   ar
     2     5     1   ar
     3     4     8   ar
     4     4     3    1
     5     9     3    1
     6     9     2   am
     7     1     2    1
     8     1     6   ar
     9     2     7    2
