@<TRIPOS>MOLECULE
2oq7_OGA_A_1.pdb
 10 9 0 0 0
SMALL
GASTEIGER

@<TRIPOS>ATOM
      1  C1       -29.2790  -21.0090  -23.8570 C.2   601  OGA601      0.4422
      2  C2       -27.8720  -21.4200  -23.3290 C.2   601  OGA601      0.3494
      3  C4       -25.5550  -21.7690  -23.5920 C.2   601  OGA601      0.1751
      4  C5       -24.3640  -21.5560  -24.4990 C.2   601  OGA601      0.4043
      5  O1       -29.4530  -20.7020  -25.0520 O.co2 601  OGA601     -0.2353
      6  O2       -30.1930  -21.0010  -23.0030 O.co2 601  OGA601     -0.2353
      7  O2'      -27.7580  -21.7180  -22.1460 O.2   601  OGA601     -0.2607
      8  O3       -23.2630  -21.3470  -23.8910 O.co2 601  OGA601     -0.2390
      9  N1       -26.8390  -21.4150  -24.1330 N.am  601  OGA601     -0.1615
     10  O4       -24.5600  -21.6730  -25.7360 O.co2 601  OGA601     -0.2390
@<TRIPOS>BOND
     1    10     4   ar
     2     5     1   ar
     3     4     8   ar
     4     4     3    1
     5     9     3    2
     6     9     2    1
     7     1     2    1
     8     1     6   ar
     9     2     7    2
