@<TRIPOS>MOLECULE
2oqa_NAG_A_1.pdb
 15 15 0 0 0
SMALL
GASTEIGER

@<TRIPOS>ATOM
      1  C1         6.6660  -21.0010  -10.0910 C.3   1001  NAG1001     0.2917
      2  C2         6.0200  -21.8740   -9.0420 C.3   1001  NAG1001     0.1871
      3  C3         7.3130  -22.0190   -8.2890 C.3   1001  NAG1001     0.2095
      4  C4         8.3250  -22.7580   -9.1800 C.3   1001  NAG1001     0.2136
      5  C5         8.4200  -22.1440  -10.6020 C.3   1001  NAG1001     0.1835
      6  C6         9.2230  -22.9950  -11.5680 C.3   1001  NAG1001     0.2142
      7  C7         3.7230  -21.7200   -8.1740 C.2   1001  NAG1001     0.2421
      8  C8         2.8700  -21.1240   -7.0860 C.3   1001  NAG1001     0.0964
      9  N2         4.9600  -21.2200   -8.2950 N.am  1001  NAG1001    -0.1991
     10  O1         6.0030  -19.7900  -10.3680 O.3   1001  NAG1001    -0.1879
     11  O3         7.0650  -22.6800   -7.0770 O.3   1001  NAG1001    -0.2183
     12  O4         9.5890  -22.6950   -8.5510 O.3   1001  NAG1001    -0.2176
     13  O5         7.1320  -21.8560  -11.1260 O.3   1001  NAG1001    -0.3242
     14  O6         9.7320  -22.1740  -12.6080 O.3   1001  NAG1001    -0.2176
     15  O7         3.2650  -22.6180   -8.9080 O.2   1001  NAG1001    -0.2733
@<TRIPOS>BOND
     1    14     6    1
     2     6     5    1
     3    13     5    1
     4    13     1    1
     5     5     4    1
     6    10     1    1
     7     1     2    1
     8     4    12    1
     9     4     3    1
    10     2     9    1
    11     2     3    1
    12    15     7    2
    13     9     7   am
    14     3    11    1
    15     7     8    1
