@<TRIPOS>MOLECULE
2oqi_GGO_B_1.pdb
 28 31 0 0 0
SMALL
GASTEIGER

@<TRIPOS>ATOM
      1  C5        36.0190    4.9470   63.8040 C.3   901  GGO901      0.0981
      2  C6        36.7930    3.7360   63.1500 C.3   901  GGO901      0.0479
      3  C7        38.2660    3.5840   63.6100 C.ar  901  GGO901     -0.0173
      4  C8        38.6440    2.7550   64.7590 C.ar  901  GGO901     -0.0009
      5  C10       40.9510    3.3700   64.3700 C.ar  901  GGO901      0.1764
      6  C15       39.2530    4.2700   62.9180 C.ar  901  GGO901      0.0360
      7  C20       30.4630    6.3970   62.5960 C.ar  901  GGO901      0.0093
      8  C21       30.2460    7.6920   63.1090 C.ar  901  GGO901      0.0300
      9  C22       28.9460    8.1770   63.1790 C.ar  901  GGO901      0.1672
     10  C24       27.8480    7.4260   62.7390 C.ar  901  GGO901      0.1696
     11  C26       28.0050    6.1380   62.2260 C.ar  901  GGO901      0.0612
     12  N         31.1100    4.1880   64.1890 N.3   901  GGO901     -0.1307
     13  C         32.1800    5.0560   63.8270 C.3   901  GGO901      0.1161
     14  C3        33.5170    4.3210   63.7240 C.3   901  GGO901      0.1127
     15  N4        34.6320    5.1740   63.2450 N.am  901  GGO901     -0.2777
     16  C9        39.9980    2.6420   65.1280 C.ar  901  GGO901      0.0399
     17  O         42.2860    3.3800   64.5610 O.3   901  GGO901     -0.4346
     18  C12       42.7350    4.2780   63.5300 C.3   901  GGO901      0.4294
     19  O13       41.6550    4.7680   62.7430 O.3   901  GGO901     -0.4346
     20  C14       40.5830    4.1490   63.3080 C.ar  901  GGO901      0.1761
     21  C16       34.4480    6.1560   62.2600 C.2   901  GGO901      0.2261
     22  O17       35.3270    6.5710   61.5370 O.2   901  GGO901     -0.2749
     23  C18       32.9980    6.7410   62.0970 C.3   901  GGO901      0.0912
     24  C19       31.8550    5.7840   62.5080 C.3   901  GGO901      0.0530
     25  F         28.7790    9.3890   63.6880 F     901  GGO901     -0.2018
     26  F25       26.6130    7.8980   62.8320 F     901  GGO901     -0.2017
     27  C27       29.3160    5.6470   62.1760 C.ar  901  GGO901      0.1386
     28  F28       29.4760    4.4030   61.6940 F     901  GGO901     -0.2044
@<TRIPOS>BOND
     1    22    21    2
     2    28    27    1
     3    23    21    1
     4    23    24    1
     5    27    11   ar
     6    27     7   ar
     7    11    10   ar
     8    21    15   am
     9    24     7    1
    10    24    13    1
    11     7     8   ar
    12    10    26    1
    13    10     9   ar
    14    19    20    1
    15    19    18    1
    16     6    20   ar
    17     6     3   ar
    18     8     9   ar
    19     2     3    1
    20     2     1    1
    21     9    25    1
    22    15    14    1
    23    15     1    1
    24    20     5   ar
    25    18    17    1
    26     3     4   ar
    27    14    13    1
    28    13    12    1
    29     5    17    1
    30     5    16   ar
    31     4    16   ar
