@<TRIPOS>MOLECULE
2oqv_MA9_A_1.pdb
 32 35 0 0 0
SMALL
GASTEIGER

@<TRIPOS>ATOM
      1  C5        12.5690   57.4790   17.5540 C.ar  901  MA9901      0.1058
      2  C6        11.4670   57.7700   18.3790 C.ar  901  MA9901      0.0183
      3  C7        11.4500   57.3370   19.7170 C.ar  901  MA9901      0.0014
      4  C8        12.5340   56.6130   20.2430 C.ar  901  MA9901      0.0013
      5  C10       14.8090   55.5780   19.7760 C.2   901  MA9901      0.0704
      6  C15       17.9610   52.7550   23.7730 C.3   901  MA9901      0.0568
      7  C17       18.0880   52.9420   26.2240 C.ar  901  MA9901      0.0090
      8  C21       18.7540   51.6110   28.5400 C.ar  901  MA9901      0.1696
      9  C24       18.8120   53.6040   27.1950 C.ar  901  MA9901      0.1386
     10  C26       16.3830   54.2760   24.9170 C.3   901  MA9901      0.1425
     11  C28       16.3720   55.2100   23.7150 C.3   901  MA9901      0.2213
     12  F25       19.1690   54.8820   26.9980 F     901  MA9901     -0.2044
     13  C23       19.1460   52.9380   28.3750 C.ar  901  MA9901      0.0612
     14  F22       19.0530   50.9540   29.6600 F     901  MA9901     -0.2017
     15  C19       18.0500   50.9510   27.5590 C.ar  901  MA9901      0.1672
     16  F         17.6860   49.6740   27.7350 F     901  MA9901     -0.2018
     17  C18       17.7110   51.6120   26.3960 C.ar  901  MA9901      0.0300
     18  C16       17.7720   53.6660   24.9780 C.3   901  MA9901      0.0504
     19  C14       18.1300   53.6560   22.5790 C.3   901  MA9901      0.2024
     20  N27       16.0770   54.9990   26.1310 N.3   901  MA9901     -0.1282
     21  N         16.9490   54.5150   22.5490 N.pl3 901  MA9901     -0.1926
     22  C12       16.4010   54.6950   21.2820 C.2   901  MA9901      0.3031
     23  C11       15.2530   55.4690   21.0830 C.3   901  MA9901      0.1620
     24  N29       17.0250   54.0970   20.2190 N.2   901  MA9901     -0.0407
     25  C30       16.5550   54.2230   18.9620 C.3   901  MA9901      0.3911
     26  N31       15.4550   54.9600   18.7490 N.2   901  MA9901     -0.2225
     27  C9        13.6190   56.3440   19.4030 C.ar  901  MA9901      0.0152
     28  C32       13.6290   56.7660   18.0840 C.ar  901  MA9901      0.0195
     29  S         12.7010   57.9180   16.0130 S.O2  901  MA9901      0.0104
     30  O         13.7310   58.9330   15.8900 O.2   901  MA9901     -0.1686
     31  O4        11.4230   58.4190   15.5510 O.2   901  MA9901     -0.1686
     32  C         13.1240   56.5650   15.1150 C.3   901  MA9901      0.1816
@<TRIPOS>BOND
     1    32    29    1
     2    31    29    2
     3    30    29    2
     4    29     1    1
     5     1    28   ar
     6     1     2   ar
     7    28    27   ar
     8     2     3   ar
     9    26    25    1
    10    26     5    2
    11    25    24    1
    12    27     5    1
    13    27     4   ar
    14     3     4   ar
    15     5    23    1
    16    24    22    2
    17    23    22    1
    18    22    21    1
    19    21    19    1
    20    21    11    1
    21    19     6    1
    22    11    10    1
    23     6    18    1
    24    10    18    1
    25    10    20    1
    26    18     7    1
    27     7    17   ar
    28     7     9   ar
    29    17    15   ar
    30    12     9    1
    31     9    13   ar
    32    15    16    1
    33    15     8   ar
    34    13     8   ar
    35     8    14    1
