@<TRIPOS>MOLECULE
2or4_QUS_A_1.pdb
 13 13 0 0 0
SMALL
GASTEIGER

@<TRIPOS>ATOM
      1  C01       16.9240   44.6790   40.8720 C.2   1801  QUS1801     0.3838
      2  C02       15.9250   44.8060   41.9340 C.3   1801  QUS1801     0.2184
      3  C03       14.4980   44.9880   41.5020 C.3   1801  QUS1801     0.1793
      4  C04       13.6090   46.7560   39.9830 C.1   1801  QUS1801     0.3141
      5  C05       14.1960   48.4700   41.1510 C.1   1801  QUS1801     0.4071
      6  NP3       16.3300   45.2530   43.2150 N.3   1801  QUS1801    -0.1188
      7  N14       14.6580   46.2750   40.7880 N.am  1801  QUS1801    -0.0527
      8  N15       13.4370   48.0850   40.1350 N.2   1801  QUS1801    -0.2120
      9  O16       17.7780   45.5660   40.9910 O.co2 1801  QUS1801    -0.2440
     10  O17       16.8880   43.8860   39.8720 O.co2 1801  QUS1801    -0.2440
     11  O18       13.0320   45.9570   39.2750 O.2   1801  QUS1801    -0.1893
     12  O19       14.3230   49.5500   41.6820 O.2   1801  QUS1801    -0.1667
     13  O20       15.0390   47.3800   41.6260 O.3   1801  QUS1801    -0.2752
@<TRIPOS>BOND
     1    11     4    2
     2    10     1   ar
     3     4     8    2
     4     4     7   am
     5     8     5    2
     6     7     3    1
     7     7    13    1
     8     1     9   ar
     9     1     2    1
    10     5    13    1
    11     5    12    2
    12     3     2    1
    13     2     6    1
