@<TRIPOS>MOLECULE
2ord_PLP_A_1.pdb
 16 16 0 0 0
SMALL
GASTEIGER

@<TRIPOS>ATOM
      1  N1        20.6680   43.9660   26.9240 N.ar  401  PLP401     -0.2452
      2  C2        21.2740   42.8660   27.4440 C.ar  401  PLP401      0.0982
      3  C2A       20.9140   41.5130   26.9150 C.3   401  PLP401      0.0555
      4  C3        22.2420   43.0340   28.4480 C.ar  401  PLP401      0.2120
      5  O3        22.7360   41.9210   29.0710 O.3   401  PLP401     -0.2852
      6  C4        22.5810   44.3120   28.9180 C.ar  401  PLP401      0.0822
      7  C4A       23.5420   44.4820   30.0650 C.2   401  PLP401      0.2372
      8  O4A       23.2400   44.0080   31.1630 O.2   401  PLP401     -0.2830
      9  C5        21.9300   45.4320   28.3820 C.ar  401  PLP401      0.0333
     10  C6        21.0030   45.2460   27.3710 C.ar  401  PLP401      0.0969
     11  C5A       22.2200   46.8340   28.8910 C.3   401  PLP401      0.1819
     12  O4P       23.4800   47.2280   28.3720 O.3   401  PLP401     -0.2653
     13  P         24.2290   48.5360   29.0040 P.3   401  PLP401      0.5329
     14  O1P       24.5560   48.1560   30.4610 O.3   401  PLP401     -0.1145
     15  O2P       23.3120   49.7030   29.0380 O.3   401  PLP401     -0.1145
     16  O3P       25.4710   48.6810   28.1130 O.2   401  PLP401     -0.2224
@<TRIPOS>BOND
     1     3     2    1
     2     1    10   ar
     3     1     2   ar
     4    10     9   ar
     5     2     4   ar
     6    16    13    2
     7    12    11    1
     8    12    13    1
     9     9    11    1
    10     9     6   ar
    11     4     6   ar
    12     4     5    1
    13     6     7    1
    14    13    15    1
    15    13    14    1
    16     7     8    2
