@<TRIPOS>MOLECULE
2ore_SAH_D_1.pdb
 26 28 0 0 0
SMALL
GASTEIGER

@<TRIPOS>ATOM
      1  N         68.5180    2.5540   58.8060 N.3   301  SAH301     -0.1208
      2  CA        68.6200    3.3980   60.0870 C.3   301  SAH301      0.1952
      3  CB        67.5460    3.4290   61.1290 C.3   301  SAH301      0.0422
      4  CG        66.0340    3.2870   61.0490 C.3   301  SAH301      0.0597
      5  SD        65.3230    3.6350   62.6030 S.3   301  SAH301     -0.1375
      6  C         69.9440    3.7310   60.9140 C.2   301  SAH301      0.3819
      7  O         70.6740    2.7760   61.2480 O.co2 301  SAH301     -0.2441
      8  OXT       70.4100    4.9040   61.2620 O.co2 301  SAH301     -0.2441
      9  C5'       65.8090    2.4410   63.7620 C.3   301  SAH301      0.0899
     10  C4'       64.6940    2.4640   64.8540 C.3   301  SAH301      0.1630
     11  O4'       65.0980    1.3790   65.6360 O.3   301  SAH301     -0.3153
     12  C3'       64.7160    3.6430   65.7440 C.3   301  SAH301      0.2168
     13  O3'       63.4960    4.2850   65.5150 O.3   301  SAH301     -0.2175
     14  C2'       64.8610    3.0350   67.1840 C.3   301  SAH301      0.2569
     15  O2'       64.0170    3.6620   68.1310 O.3   301  SAH301     -0.2130
     16  C1'       64.5530    1.5430   66.9820 C.3   301  SAH301      0.3185
     17  N9        65.0970    0.6230   67.7960 N.pl3 301  SAH301     -0.1439
     18  C8        66.3290    0.4710   68.4260 C.3   301  SAH301      0.3377
     19  N7        66.4720   -0.6100   69.1230 N.2   301  SAH301     -0.2095
     20  C5        65.2280   -1.2850   68.9680 C.2   301  SAH301      0.2526
     21  C6        64.7040   -2.5490   69.4790 C.2   301  SAH301      0.4393
     22  N6        65.3900   -3.3650   70.2950 N.pl3 301  SAH301      0.2180
     23  N1        63.4360   -2.9110   69.0530 N.2   301  SAH301      0.0021
     24  C2        62.6610   -2.1310   68.2280 C.3   301  SAH301      0.5254
     25  N3        63.1160   -0.9130   67.7640 N.2   301  SAH301     -0.0055
     26  C4        64.3840   -0.5530   68.1550 C.2   301  SAH301      0.3518
@<TRIPOS>BOND
     1     1     2    1
     2     2     6    1
     3     2     3    1
     4     6     7   ar
     5     6     8   ar
     6     4     3    1
     7     4     5    1
     8     5     9    1
     9     9    10    1
    10    10    11    1
    11    10    12    1
    12    13    12    1
    13    11    16    1
    14    12    14    1
    15    16    14    1
    16    16    17    1
    17    14    15    1
    18    25    26    2
    19    25    24    1
    20    17    26    1
    21    17    18    1
    22    26    20    1
    23    24    23    1
    24    18    19    1
    25    20    19    2
    26    20    21    1
    27    23    21    2
    28    21    22    1
