@<TRIPOS>MOLECULE
2orj_BM3_A_1.pdb
 15 15 0 0 0
SMALL
GASTEIGER

@<TRIPOS>ATOM
      1  C1        28.7640  -14.4590    9.5910 C.2     1  BM31        0.3397
      2  O1        28.5930  -13.8180    8.4810 O.2     1  BM31       -0.2481
      3  C2        27.5660  -14.8770   10.4180 C.3     1  BM31        0.2261
      4  N2        27.7040  -16.1460   11.1370 N.am    1  BM31       -0.1930
      5  C7        26.8880  -17.1850   10.8850 C.2     1  BM31        0.2424
      6  O7        26.0030  -17.1320   10.0470 O.2     1  BM31       -0.2733
      7  C8        27.1040  -18.4500   11.6770 C.3     1  BM31        0.0964
      8  C3        27.5230  -13.7070   11.4230 C.3     1  BM31        0.2164
      9  O3        26.5270  -13.9470   12.4210 O.3     1  BM31       -0.2178
     10  C4        28.8810  -13.4460   12.1160 C.3     1  BM31        0.2267
     11  O4        28.7790  -12.3050   12.9990 O.3     1  BM31       -0.2163
     12  C5        30.0370  -13.2870   11.1230 C.3     1  BM31        0.2343
     13  C6        31.3760  -13.1420   11.8130 C.3     1  BM31        0.2281
     14  O6        32.3050  -12.7920   10.7880 O.3     1  BM31       -0.2163
     15  O5        30.0810  -14.4210   10.2360 O.3     1  BM31       -0.4455
@<TRIPOS>BOND
     1     2     1    2
     2     1    15    1
     3     1     3    1
     4     6     5    2
     5    15    12    1
     6     3     4    1
     7     3     8    1
     8    14    13    1
     9     5     4   am
    10     5     7    1
    11    12    13    1
    12    12    10    1
    13     8    10    1
    14     8     9    1
    15    10    11    1
