@<TRIPOS>MOLECULE
2ork_IPD_B_1.pdb
 16 16 0 0 0
SMALL
GASTEIGER

@<TRIPOS>ATOM
      1  C1        28.7440   18.7160  -25.0230 C.3   995  IPD995      0.1919
      2  C2        29.1360   20.1150  -25.5180 C.3   995  IPD995      0.2148
      3  C3        27.9400   21.0370  -25.8060 C.3   995  IPD995      0.2174
      4  C4        26.9790   21.1160  -24.6160 C.3   995  IPD995      0.2175
      5  C5        26.5590   19.7060  -24.1970 C.3   995  IPD995      0.2174
      6  C6        27.7730   18.8370  -23.8470 C.3   995  IPD995      0.2148
      7  P1        30.4110   16.5600  -24.8880 P.3   995  IPD995      0.5327
      8  O1        29.9220   18.0670  -24.5310 O.3   995  IPD995     -0.2673
      9  O2        29.9490   20.7300  -24.5090 O.3   995  IPD995     -0.2176
     10  O3        28.3830   22.3750  -26.0750 O.3   995  IPD995     -0.2175
     11  O4        25.8390   21.8920  -24.9950 O.3   995  IPD995     -0.2175
     12  O5        25.6580   19.8150  -23.0800 O.3   995  IPD995     -0.2175
     13  O6        27.3730   17.5270  -23.4260 O.3   995  IPD995     -0.2176
     14  O7        31.8140   16.5320  -24.3240 O.3   995  IPD995     -0.1145
     15  O8        29.4310   15.6560  -24.1780 O.3   995  IPD995     -0.1145
     16  O9        30.3660   16.4880  -26.3970 O.2   995  IPD995     -0.2224
@<TRIPOS>BOND
     1    16     7    2
     2    10     3    1
     3     3     2    1
     4     3     4    1
     5     2     1    1
     6     2     9    1
     7     1     8    1
     8     1     6    1
     9    11     4    1
    10     7     8    1
    11     7    14    1
    12     7    15    1
    13     4     5    1
    14     5     6    1
    15     5    12    1
    16     6    13    1
