@<TRIPOS>MOLECULE
2orl_4NL_A_1.pdb
 15 15 0 0 0
SMALL
GASTEIGER

@<TRIPOS>ATOM
      1  C2         0.8640  -13.0290    0.6620 C.ar  105  4NL105     -0.0376
      2  C6        -0.1990  -11.8280    2.4470 C.ar  105  4NL105     -0.0376
      3  C3        -0.0470  -12.4980   -0.2370 C.ar  105  4NL105     -0.0184
      4  C4        -1.0340  -11.6330    0.2050 C.ar  105  4NL105      0.1170
      5  C5        -1.1100  -11.2970    1.5480 C.ar  105  4NL105     -0.0184
      6  C1         0.7880  -12.6940    2.0050 C.ar  105  4NL105      0.0248
      7  N1         1.7470  -13.2380    2.9400 N.pl3 105  4NL105     -0.3580
      8  O1        -1.9680  -11.1020   -0.7080 O.3   105  4NL105     -0.5068
      9  H2         0.0090  -12.7760   -1.3240 H     105  4NL105      0.0655
     10  H6         1.4230  -13.6710    3.8140 H     105  4NL105      0.1423
     11  H3        -1.9150  -10.6030    1.9080 H     105  4NL105      0.0655
     12  H5        -2.5590  -10.4570   -0.2390 H     105  4NL105      0.2921
     13  H4        -0.2660  -11.5640    3.5370 H     105  4NL105      0.0637
     14  H1         1.6580  -13.7370    0.3040 H     105  4NL105      0.0637
     15  H7         2.7530  -13.1810    2.7370 H     105  4NL105      0.1423
@<TRIPOS>BOND
     1     9     3    1
     2     8    12    1
     3     8     4    1
     4     3     4   ar
     5     3     1   ar
     6     4     5   ar
     7    14     1    1
     8     1     6   ar
     9     5    11    1
    10     5     2   ar
    11     6     2   ar
    12     6     7    1
    13     2    13    1
    14    15     7    1
    15     7    10    1
