@<TRIPOS>MOLECULE
2oro_HEM_A_1.pdb
 43 50 0 0 0
SMALL
GASTEIGER

@<TRIPOS>ATOM
      1 FE         68.3160   -9.1260   56.3070 Fe    600  HEM600      0.0000
      2  CHA       71.7090   -9.3210   55.7150 C.2   600  HEM600      0.0000
      3  CHB       68.5990   -5.7470   56.7660 C.2   600  HEM600      0.0000
      4  CHC       64.8970   -8.9330   56.5180 C.2   600  HEM600      0.0000
      5  CHD       68.1480  -12.5420   56.4710 C.2   600  HEM600      0.0000
      6  NA        69.8130   -7.8170   56.2060 N.2   600  HEM600      0.0000
      7  C1A       71.1590   -8.0530   55.9310 C.2   600  HEM600      0.0000
      8  C2A       71.9000   -6.8240   55.9050 C.2   600  HEM600      0.0000
      9  C3A       71.0470   -5.8400   56.2420 C.2   600  HEM600      0.0000
     10  C4A       69.7560   -6.4470   56.4430 C.2   600  HEM600      0.0000
     11  CMA       71.4050   -4.3630   56.3580 C.3   600  HEM600      0.0000
     12  CAA       73.3460   -6.6470   55.4630 C.3   600  HEM600      0.0000
     13  CBA       73.3650   -5.8950   54.1390 C.3   600  HEM600      0.0000
     14  CGA       74.7550   -5.7850   53.5440 C.2   600  HEM600      0.0000
     15  O1A       74.9930   -6.3770   52.4690 O.co2 600  HEM600      0.0000
     16  O2A       75.6090   -5.1060   54.1490 O.co2 600  HEM600      0.0000
     17  NB        67.0200   -7.6540   56.5820 N.ar  600  HEM600      0.0000
     18  C1B       67.3260   -6.3200   56.8130 C.ar  600  HEM600      0.0000
     19  C2B       66.1370   -5.5650   57.0850 C.ar  600  HEM600      0.0000
     20  C3B       65.0850   -6.4070   57.0410 C.ar  600  HEM600      0.0000
     21  C4B       65.6300   -7.7300   56.6870 C.ar  600  HEM600      0.0000
     22  CMB       66.0730   -4.0660   57.3200 C.3   600  HEM600      0.0000
     23  CAB       63.7710   -5.9780   57.2250 C.3   600  HEM600      0.0000
     24  CBB       62.6680   -6.7860   57.8320 C.3   600  HEM600      0.0000
     25  NC        66.8570  -10.4570   56.4050 N.2   600  HEM600      0.0000
     26  C1C       65.4760  -10.2120   56.3790 C.2   600  HEM600      0.0000
     27  C2C       64.7420  -11.4620   56.3810 C.2   600  HEM600      0.0000
     28  C3C       65.6690  -12.4700   56.4530 C.2   600  HEM600      0.0000
     29  C4C       66.9650  -11.8340   56.4820 C.2   600  HEM600      0.0000
     30  CMC       63.2240  -11.5840   56.3880 C.3   600  HEM600      0.0000
     31  CAC       65.4940  -13.8460   56.4360 C.3   600  HEM600      0.0000
     32  CBC       64.3010  -14.6350   56.8790 C.3   600  HEM600      0.0000
     33  ND        69.6050  -10.6070   56.0710 N.ar  600  HEM600      0.0000
     34  C1D       69.3860  -11.9670   56.2300 C.ar  600  HEM600      0.0000
     35  C2D       70.5930  -12.7340   55.9580 C.ar  600  HEM600      0.0000
     36  C3D       71.5350  -11.8410   55.6780 C.ar  600  HEM600      0.0000
     37  C4D       70.9650  -10.5210   55.7990 C.ar  600  HEM600      0.0000
     38  CMD       70.7450  -14.2640   55.8640 C.3   600  HEM600      0.0000
     39  CAD       72.9310  -12.1270   55.1810 C.3   600  HEM600      0.0000
     40  CBD       73.9350  -12.1980   56.3190 C.3   600  HEM600      0.0000
     41  CGD       75.3610  -12.3230   55.8210 C.2   600  HEM600      0.0000
     42  O1D       76.1450  -13.0700   56.4440 O.co2 600  HEM600      0.0000
     43  O2D       75.6960  -11.6720   54.8050 O.co2 600  HEM600      0.0000
@<TRIPOS>BOND
     1    15    14   ar
     2    14    13    1
     3    14    16   ar
     4    13    12    1
     5    43    41   ar
     6    39    36    1
     7    39    40    1
     8    12     8    1
     9    36    37   ar
    10    36    35   ar
    11     2    37    2
    12     2     7    1
    13    37    33   ar
    14    41    40    1
    15    41    42   ar
    16    38    35    1
    17     8     7    1
    18     8     9    2
    19     7     6    2
    20    35    34   ar
    21    33    34   ar
    22    33     1    1
    23     6     1    1
    24     6    10    1
    25    34     5    2
    26     9    11    1
    27     9    10    1
    28     1    25    1
    29     1    17    1
    30    26    27    1
    31    26    25    1
    32    26     4    2
    33    27    30    1
    34    27    28    2
    35    25    29    2
    36    31    28    1
    37    31    32    1
    38    10     3    2
    39    28    29    1
    40     5    29    1
    41     4    21    1
    42    17    21   ar
    43    17    18   ar
    44    21    20   ar
    45     3    18    1
    46    18    19   ar
    47    20    19   ar
    48    20    23    1
    49    19    22    1
    50    23    24    1
