@<TRIPOS>MOLECULE
2oro_228_A_1.pdb
 31 35 0 0 0
SMALL
GASTEIGER

@<TRIPOS>ATOM
      1  C28       70.5390   -4.5470   50.7200 C.ar  601  228601      0.0360
      2  C27       69.6740   -4.5750   51.8290 C.ar  601  228601      0.1761
      3  O31       68.5580   -5.3050   52.0700 O.3   601  228601     -0.4346
      4  C30       67.9580   -4.7450   53.2460 C.3   601  228601      0.4294
      5  O29       68.9660   -3.9460   53.8740 O.3   601  228601     -0.4346
      6  C26       69.9410   -3.7640   52.9440 C.ar  601  228601      0.1764
      7  C25       71.0760   -2.9330   52.9470 C.ar  601  228601      0.0399
      8  C24       71.9380   -2.9080   51.8390 C.ar  601  228601     -0.0009
      9  C23       71.6680   -3.7140   50.7220 C.ar  601  228601     -0.0172
     10  C22       72.5730   -3.6410   49.4860 C.3   601  228601      0.0499
     11  C21       73.9190   -4.3470   49.7050 C.3   601  228601      0.1199
     12  N20       73.7320   -5.8060   49.8170 N.am  601  228601     -0.2037
     13  C18       74.0080   -6.6370   48.8050 C.2   601  228601      0.2594
     14  O19       74.4250   -6.2740   47.7050 O.2   601  228601     -0.2716
     15  C17       73.7640   -8.1280   49.0880 C.3   601  228601      0.1531
     16  C16       75.0250   -8.7170   49.7290 C.3   601  228601      0.0310
     17  C15       74.4440   -9.8090   50.6060 C.3   601  228601      0.0237
     18  C14       73.3120   -9.0440   51.2800 C.3   601  228601      0.0933
     19  N13       72.7080   -8.3570   50.1190 N.pl3 601  228601     -0.2794
     20  C1        71.3770   -8.1800   49.9780 C.2   601  228601      0.1811
     21  N1        70.5830   -8.4460   51.0330 N.2   601  228601     -0.3147
     22  C6        70.7900   -7.7400   48.7740 C.3   601  228601      0.1311
     23  C5        69.3970   -7.5980   48.7270 C.2   601  228601      0.1093
     24  C12       68.7100   -7.0920   47.4610 C.3   601  228601      0.0630
     25  N4        68.6540   -7.8840   49.8160 N.2   601  228601     -0.3342
     26  C3        69.2400   -8.3040   50.9630 C.1   601  228601      0.2216
     27  N7        68.5110   -8.5300   52.0510 N.ar  601  228601     -0.2101
     28  C8        67.1840   -8.4620   52.1490 C.ar  601  228601      0.1145
     29  C9        66.8560   -8.7650   53.3980 C.ar  601  228601      0.1204
     30  NFE       67.9810   -9.0190   54.0730 N.ar  601  228601     -0.2214
     31  C11       68.9940   -8.8780   53.2370 C.ar  601  228601      0.1934
@<TRIPOS>BOND
     1    24    23    1
     2    14    13    2
     3    23    22    1
     4    23    25    2
     5    22    20    1
     6    13    15    1
     7    13    12   am
     8    15    16    1
     9    15    19    1
    10    10    11    1
    11    10     9    1
    12    11    12    1
    13    16    17    1
    14    25    26    2
    15    20    19    1
    16    20    21    2
    17    19    18    1
    18    17    18    1
    19     1     9   ar
    20     1     2   ar
    21     9     8   ar
    22    26    21    2
    23    26    27    1
    24     2     3    1
    25     2     6   ar
    26     8     7   ar
    27    27    28   ar
    28    27    31   ar
    29     3     4    1
    30    28    29   ar
    31     6     7   ar
    32     6     5    1
    33    31    30   ar
    34     4     5    1
    35    29    30   ar
