@<TRIPOS>MOLECULE
2orp_HEM_A_1.pdb
 43 50 0 0 0
SMALL
GASTEIGER

@<TRIPOS>ATOM
      1 FE         68.0400   -9.5030   56.3440 Fe    600  HEM600      0.0000
      2  CHA       71.4640   -9.6760   55.7630 C.2   600  HEM600      0.0000
      3  CHB       68.2810   -6.0790   56.6040 C.2   600  HEM600      0.0000
      4  CHC       64.6400   -9.2960   56.6340 C.2   600  HEM600      0.0000
      5  CHD       67.8670  -12.9170   56.3140 C.2   600  HEM600      0.0000
      6  NA        69.5200   -8.1790   56.2220 N.2   600  HEM600      0.0000
      7  C1A       70.8850   -8.4100   55.9780 C.2   600  HEM600      0.0000
      8  C2A       71.6210   -7.1640   55.9910 C.2   600  HEM600      0.0000
      9  C3A       70.7460   -6.1750   56.2290 C.2   600  HEM600      0.0000
     10  C4A       69.4410   -6.7940   56.3780 C.2   600  HEM600      0.0000
     11  CMA       71.0930   -4.6910   56.3800 C.3   600  HEM600      0.0000
     12  CAA       73.1340   -7.0190   56.0420 C.3   600  HEM600      0.0000
     13  CBA       73.9420   -6.9840   54.7690 C.3   600  HEM600      0.0000
     14  CGA       75.4380   -7.0210   55.0520 C.2   600  HEM600      0.0000
     15  O1A       75.9340   -6.1160   55.7590 O.co2 600  HEM600      0.0000
     16  O2A       76.1140   -7.9570   54.5800 O.co2 600  HEM600      0.0000
     17  NB        66.7490   -8.0340   56.6470 N.ar  600  HEM600      0.0000
     18  C1B       67.0310   -6.6650   56.7360 C.ar  600  HEM600      0.0000
     19  C2B       65.8470   -5.9110   57.0190 C.ar  600  HEM600      0.0000
     20  C3B       64.7920   -6.7670   57.0100 C.ar  600  HEM600      0.0000
     21  C4B       65.3660   -8.1090   56.7820 C.ar  600  HEM600      0.0000
     22  CMB       65.8210   -4.4250   57.3630 C.3   600  HEM600      0.0000
     23  CAB       63.4680   -6.3490   57.0270 C.3   600  HEM600      0.0000
     24  CBB       62.3140   -7.0150   57.5800 C.3   600  HEM600      0.0000
     25  NC        66.5920  -10.8150   56.4480 N.2   600  HEM600      0.0000
     26  C1C       65.2230  -10.5600   56.4720 C.2   600  HEM600      0.0000
     27  C2C       64.4650  -11.7850   56.4070 C.2   600  HEM600      0.0000
     28  C3C       65.3620  -12.8120   56.3950 C.2   600  HEM600      0.0000
     29  C4C       66.6820  -12.1960   56.4290 C.2   600  HEM600      0.0000
     30  CMC       62.9330  -11.8270   56.3650 C.3   600  HEM600      0.0000
     31  CAC       65.1420  -14.1940   56.2630 C.3   600  HEM600      0.0000
     32  CBC       64.0090  -14.9280   56.7960 C.3   600  HEM600      0.0000
     33  ND        69.3550  -10.9610   56.0450 N.ar  600  HEM600      0.0000
     34  C1D       69.1090  -12.3330   56.1010 C.ar  600  HEM600      0.0000
     35  C2D       70.3190  -13.0900   55.8660 C.ar  600  HEM600      0.0000
     36  C3D       71.3280  -12.1940   55.6550 C.ar  600  HEM600      0.0000
     37  C4D       70.7360  -10.8750   55.7890 C.ar  600  HEM600      0.0000
     38  CMD       70.4050  -14.6240   55.9030 C.3   600  HEM600      0.0000
     39  CAD       72.8200  -12.4900   55.4730 C.3   600  HEM600      0.0000
     40  CBD       73.3880  -12.7240   56.8780 C.3   600  HEM600      0.0000
     41  CGD       74.8980  -12.9110   56.8970 C.2   600  HEM600      0.0000
     42  O1D       75.4740  -13.2920   55.8560 O.co2 600  HEM600      0.0000
     43  O2D       75.5080  -12.6760   57.9600 O.co2 600  HEM600      0.0000
@<TRIPOS>BOND
     1    16    14   ar
     2    13    14    1
     3    13    12    1
     4    14    15   ar
     5    39    36    1
     6    39    40    1
     7    36    37   ar
     8    36    35   ar
     9     2    37    2
    10     2     7    1
    11    37    33   ar
    12    42    41   ar
    13    35    38    1
    14    35    34   ar
    15     7     8    1
    16     7     6    2
    17     8    12    1
    18     8     9    2
    19    33    34   ar
    20    33     1    1
    21    34     5    2
    22     6     1    1
    23     6    10    1
    24     9    10    1
    25     9    11    1
    26    31    28    1
    27    31    32    1
    28     5    29    1
    29     1    25    1
    30     1    17    1
    31    30    27    1
    32    10     3    2
    33    28    27    2
    34    28    29    1
    35    27    26    1
    36    29    25    2
    37    25    26    1
    38    26     4    2
    39     3    18    1
    40     4    21    1
    41    17    18   ar
    42    17    21   ar
    43    18    19   ar
    44    21    20   ar
    45    40    41    1
    46    41    43   ar
    47    20    19   ar
    48    20    23    1
    49    19    22    1
    50    23    24    1
