@<TRIPOS>MOLECULE
2orp_R86_A_1.pdb
 37 40 0 0 0
SMALL
GASTEIGER

@<TRIPOS>ATOM
      1  C48       67.4220   -4.6070   52.7380 C.3   601  R86601      0.2525
      2  O47       68.7260   -4.6930   53.3220 O.3   601  R86601     -0.4714
      3  C44       69.6900   -4.3140   52.4280 C.ar  601  R86601      0.1387
      4  C45       70.2610   -5.2680   51.5700 C.ar  601  R86601      0.0366
      5  C46       71.2850   -4.9030   50.6810 C.ar  601  R86601     -0.0011
      6  C43       70.1420   -2.9810   52.3880 C.ar  601  R86601      0.0366
      7  C42       71.1710   -2.6150   51.4980 C.ar  601  R86601     -0.0011
      8  C41       71.7460   -3.5800   50.6470 C.ar  601  R86601     -0.0202
      9  C38       72.9080   -3.1880   49.7250 C.3   601  R86601      0.0498
     10  C37       74.2210   -3.8670   50.1440 C.3   601  R86601      0.1198
     11  N35       74.4970   -5.0500   49.2970 N.am  601  R86601     -0.2050
     12  C33       75.0090   -6.1900   49.7760 C.2   601  R86601      0.2431
     13  O34       75.3240   -6.3620   50.9530 O.2   601  R86601     -0.2733
     14  C32       75.2520   -7.2830   48.7120 C.3   601  R86601      0.1083
     15  C25       74.7740   -8.7260   49.0520 C.3   601  R86601      0.1043
     16  C26       73.2580   -8.9210   48.8020 C.3   601  R86601      0.1131
     17  N24       75.2170   -9.1860   50.4120 N.am  601  R86601     -0.2772
     18  C27       76.4510   -9.7280   50.5570 C.2   601  R86601      0.2252
     19  O28       77.1850   -9.8320   49.5700 O.2   601  R86601     -0.2749
     20  C29       76.9450  -10.2090   51.9380 C.3   601  R86601      0.0767
     21  C31       78.0780   -9.3010   52.4200 C.3   601  R86601      0.0096
     22  C30       77.4200  -11.6610   51.8360 C.3   601  R86601      0.0096
     23  C23       74.3070   -9.0630   51.5940 C.3   601  R86601      0.1148
     24  C22       72.9640   -9.6940   51.2530 C.3   601  R86601      0.1144
     25  N21       72.4170   -9.0460   50.0350 N.pl3 601  R86601     -0.2824
     26  C13       71.0590   -8.6230   50.0200 C.2   601  R86601      0.1808
     27  N12       70.2820   -8.8370   51.1080 N.2   601  R86601     -0.3147
     28  C14       70.4800   -8.0800   48.8620 C.3   601  R86601      0.1310
     29  C15       69.1140   -7.7910   48.8750 C.2   601  R86601      0.1093
     30  C17       68.4470   -7.1720   47.6490 C.3   601  R86601      0.0630
     31  N16       68.3840   -8.0370   49.9820 N.2   601  R86601     -0.3342
     32  C11       68.9560   -8.5530   51.0920 C.1   601  R86601      0.2216
     33  N3        68.2270   -8.7600   52.1840 N.ar  601  R86601     -0.2101
     34  C4        66.9100   -8.5970   52.2990 C.ar  601  R86601      0.1145
     35  C5        66.5650   -8.9570   53.5260 C.ar  601  R86601      0.1204
     36  NFE       67.6690   -9.3390   54.1740 N.ar  601  R86601     -0.2214
     37  C2        68.6840   -9.2180   53.3410 C.ar  601  R86601      0.1934
@<TRIPOS>BOND
     1    30    29    1
     2    14    15    1
     3    14    12    1
     4    16    15    1
     5    16    25    1
     6    28    29    1
     7    28    26    1
     8    29    31    2
     9    15    17    1
    10    11    12   am
    11    11    10    1
    12    19    18    2
    13     9    10    1
    14     9     8    1
    15    12    13    2
    16    31    32    2
    17    26    25    1
    18    26    27    2
    19    25    24    1
    20    17    18   am
    21    17    23    1
    22    18    20    1
    23     8     5   ar
    24     8     7   ar
    25     5     4   ar
    26    32    27    2
    27    32    33    1
    28    24    23    1
    29     7     6   ar
    30     4     3   ar
    31    22    20    1
    32    20    21    1
    33    33    34   ar
    34    33    37   ar
    35    34    35   ar
    36     6     3   ar
    37     3     2    1
    38     1     2    1
    39    37    36   ar
    40    35    36   ar
