@<TRIPOS>MOLECULE
2orq_MSR_A_1.pdb
 12 13 0 0 0
SMALL
GASTEIGER

@<TRIPOS>ATOM
      1  C12       69.9750   -8.7770   50.6390 C.ar  601  MSR601      0.0208
      2  C13       70.7580   -8.5500   49.4990 C.ar  601  MSR601      0.0435
      3  C14       70.1430   -8.2480   48.2770 C.ar  601  MSR601      0.1958
      4  O17       70.9060   -8.0590   47.1730 O.3   601  MSR601     -0.2866
      5  C15       68.7400   -8.1640   48.1920 C.ar  601  MSR601      0.0435
      6  C16       67.9530   -8.3910   49.3320 C.ar  601  MSR601      0.0208
      7  C11       68.5650   -8.7050   50.5670 C.ar  601  MSR601      0.0657
      8  N3        67.8190   -9.0010   51.6530 N.ar  601  MSR601     -0.2864
      9  C4        66.4820   -8.9990   51.7360 C.ar  601  MSR601      0.1022
     10  C5        66.1430   -9.3730   52.9640 C.ar  601  MSR601      0.1196
     11  NFE       67.2600   -9.6060   53.6510 N.ar  601  MSR601     -0.2220
     12  C2        68.2850   -9.3770   52.8430 C.ar  601  MSR601      0.1828
@<TRIPOS>BOND
     1     4     3    1
     2     5     3   ar
     3     5     6   ar
     4     3     2   ar
     5     6     7   ar
     6     2     1   ar
     7     7     1   ar
     8     7     8    1
     9     8     9   ar
    10     8    12   ar
    11     9    10   ar
    12    12    11   ar
    13    10    11   ar
