@<TRIPOS>MOLECULE
2orq_HEM_A_1.pdb
 43 50 0 0 0
SMALL
GASTEIGER

@<TRIPOS>ATOM
      1 FE         67.6560   -9.7950   55.9160 Fe    600  HEM600      0.0000
      2  CHA       71.0420   -9.9700   55.2040 C.2   600  HEM600      0.0000
      3  CHB       67.9290   -6.3850   56.2480 C.2   600  HEM600      0.0000
      4  CHC       64.2790   -9.5630   56.1880 C.2   600  HEM600      0.0000
      5  CHD       67.5070  -13.2100   55.8810 C.2   600  HEM600      0.0000
      6  NA        69.1380   -8.4910   55.7780 N.2   600  HEM600      0.0000
      7  C1A       70.4830   -8.7250   55.4780 C.2   600  HEM600      0.0000
      8  C2A       71.2150   -7.4880   55.4470 C.2   600  HEM600      0.0000
      9  C3A       70.3540   -6.4960   55.7400 C.2   600  HEM600      0.0000
     10  C4A       69.0710   -7.1090   55.9390 C.2   600  HEM600      0.0000
     11  CMA       70.6850   -5.0150   55.9150 C.3   600  HEM600      0.0000
     12  CAA       72.7050   -7.3420   55.2280 C.3   600  HEM600      0.0000
     13  CBA       73.0710   -7.2570   53.7610 C.3   600  HEM600      0.0000
     14  CGA       74.5210   -6.8620   53.5540 C.2   600  HEM600      0.0000
     15  O1A       74.7650   -5.8300   52.8910 O.co2 600  HEM600      0.0000
     16  O2A       75.4150   -7.5800   54.0560 O.co2 600  HEM600      0.0000
     17  NB        66.3890   -8.3100   56.2490 N.ar  600  HEM600      0.0000
     18  C1B       66.6880   -6.9690   56.4090 C.ar  600  HEM600      0.0000
     19  C2B       65.5130   -6.2000   56.6350 C.ar  600  HEM600      0.0000
     20  C3B       64.4580   -7.0210   56.5880 C.ar  600  HEM600      0.0000
     21  C4B       65.0020   -8.3680   56.3470 C.ar  600  HEM600      0.0000
     22  CMB       65.4630   -4.6860   56.8250 C.3   600  HEM600      0.0000
     23  CAB       63.1600   -6.5180   56.6400 C.3   600  HEM600      0.0000
     24  CBB       61.9920   -7.1780   57.1350 C.3   600  HEM600      0.0000
     25  NC        66.2160  -11.1050   55.9950 N.2   600  HEM600      0.0000
     26  C1C       64.8540  -10.8430   56.0090 C.2   600  HEM600      0.0000
     27  C2C       64.1070  -12.0780   55.9310 C.2   600  HEM600      0.0000
     28  C3C       65.0030  -13.0900   55.9090 C.2   600  HEM600      0.0000
     29  C4C       66.3080  -12.4820   55.9500 C.2   600  HEM600      0.0000
     30  CMC       62.5870  -12.1570   55.9220 C.3   600  HEM600      0.0000
     31  CAC       64.7810  -14.4710   55.8420 C.3   600  HEM600      0.0000
     32  CBC       63.6090  -15.1680   56.3850 C.3   600  HEM600      0.0000
     33  ND        68.9650  -11.2540   55.5960 N.ar  600  HEM600      0.0000
     34  C1D       68.7450  -12.6150   55.6630 C.ar  600  HEM600      0.0000
     35  C2D       69.9630  -13.3580   55.3940 C.ar  600  HEM600      0.0000
     36  C3D       70.9240  -12.4450   55.1410 C.ar  600  HEM600      0.0000
     37  C4D       70.3230  -11.1510   55.2870 C.ar  600  HEM600      0.0000
     38  CMD       70.1360  -14.8730   55.4660 C.3   600  HEM600      0.0000
     39  CAD       72.3690  -12.6980   54.7300 C.3   600  HEM600      0.0000
     40  CBD       73.1980  -13.5480   55.6900 C.3   600  HEM600      0.0000
     41  CGD       73.6390  -12.7900   56.9300 C.2   600  HEM600      0.0000
     42  O1D       72.8060  -12.0640   57.5150 O.co2 600  HEM600      0.0000
     43  O2D       74.8200  -12.9180   57.3210 O.co2 600  HEM600      0.0000
@<TRIPOS>BOND
     1    15    14   ar
     2    14    13    1
     3    14    16   ar
     4    13    12    1
     5    39    36    1
     6    39    40    1
     7    36    37   ar
     8    36    35   ar
     9     2    37    2
    10     2     7    1
    11    12     8    1
    12    37    33   ar
    13    35    38    1
    14    35    34   ar
    15     8     7    1
    16     8     9    2
    17     7     6    2
    18    33    34   ar
    19    33     1    1
    20    34     5    2
    21    40    41    1
    22     9    11    1
    23     9    10    1
    24     6     1    1
    25     6    10    1
    26    31    28    1
    27    31    32    1
    28     5    29    1
    29    28    27    2
    30    28    29    1
    31     1    25    1
    32     1    17    1
    33    30    27    1
    34    27    26    1
    35    10     3    2
    36    29    25    2
    37    25    26    1
    38    26     4    2
    39     4    21    1
    40     3    18    1
    41    17    21   ar
    42    17    18   ar
    43    21    20   ar
    44    18    19   ar
    45    20    19   ar
    46    20    23    1
    47    19    22    1
    48    23    24    1
    49    41    43   ar
    50    41    42   ar
