@<TRIPOS>MOLECULE
2orq_MR1_A_1.pdb
 11 12 0 0 0
SMALL
GASTEIGER

@<TRIPOS>ATOM
      1  C36       70.8060   -4.8000   51.0980 C.ar  602  MR1602      0.0374
      2  C35       69.5320   -4.6690   51.6820 C.ar  602  MR1602      0.1762
      3  O39       68.5710   -5.5930   51.9480 O.3   602  MR1602     -0.4346
      4  C38       67.6220   -4.9390   52.8050 C.3   602  MR1602      0.4294
      5  O37       67.8280   -3.5310   52.6170 O.3   602  MR1602     -0.4346
      6  C34       69.0660   -3.4000   52.0680 C.ar  602  MR1602      0.1764
      7  C33       69.8750   -2.2650   51.8630 C.ar  602  MR1602      0.0399
      8  C32       71.1480   -2.3980   51.2790 C.ar  602  MR1602      0.0005
      9  C31       71.6130   -3.6680   50.8980 C.ar  602  MR1602      0.0000
     10  C30       73.0060   -3.8220   50.2830 C.3   602  MR1602      0.1357
     11  N         72.8840   -4.0390   48.8330 N.3   602  MR1602     -0.1262
@<TRIPOS>BOND
     1    11    10    1
     2    10     9    1
     3     9     1   ar
     4     9     8   ar
     5     1     2   ar
     6     8     7   ar
     7     2     3    1
     8     2     6   ar
     9     7     6   ar
    10     3     4    1
    11     6     5    1
    12     5     4    1
