@<TRIPOS>MOLECULE
2orr_333_A_1.pdb
 28 32 0 0 0
SMALL
GASTEIGER

@<TRIPOS>ATOM
      1  C36       69.7250   -4.4230   50.2660 C.ar  601  333601      0.0777
      2  C35       69.1420   -4.8460   51.4740 C.ar  601  333601      0.1795
      3  O39       68.1950   -5.7890   51.7240 O.3   601  333601     -0.4345
      4  C38       68.0890   -5.8990   53.1470 C.3   601  333601      0.4294
      5  O37       68.8250   -4.7990   53.7030 O.3   601  333601     -0.4346
      6  C34       69.5660   -4.2820   52.6880 C.ar  601  333601      0.1766
      7  C33       70.5800   -3.3070   52.6890 C.ar  601  333601      0.0433
      8  C32       71.1680   -2.8880   51.4840 C.ar  601  333601      0.0409
      9  C31       70.7390   -3.4410   50.2660 C.ar  601  333601      0.1514
     10  O28       71.2660   -2.9640   49.0850 O.3   601  333601     -0.4267
     11  C23       71.4970   -3.9210   48.1150 C.2   601  333601      0.2961
     12  N22       71.4620   -5.2500   48.3970 N.2   601  333601     -0.2828
     13  C24       71.7590   -3.5070   46.8070 C.2   601  333601      0.0944
     14  C25       71.9700   -4.4810   45.8290 C.2   601  333601      0.1194
     15  N26       71.9210   -5.7750   46.1510 N.2   601  333601     -0.1510
     16  C21       71.6650   -6.1740   47.4210 C.1   601  333601      0.2599
     17  O17       71.5980   -7.5170   47.6930 O.3   601  333601     -0.3832
     18  C14       70.8040   -7.8190   48.7740 C.ar  601  333601      0.1604
     19  C15       69.4080   -7.9540   48.6290 C.ar  601  333601      0.0401
     20  C16       68.6150   -8.2940   49.7360 C.ar  601  333601      0.0207
     21  C13       71.3970   -8.0220   50.0330 C.ar  601  333601      0.0401
     22  C12       70.6060   -8.3660   51.1360 C.ar  601  333601      0.0207
     23  C11       69.2100   -8.5100   51.0000 C.ar  601  333601      0.0657
     24  N3        68.4590   -8.8630   52.0680 N.ar  601  333601     -0.2864
     25  C4        67.1290   -9.0200   52.1050 C.ar  601  333601      0.1022
     26  C5        66.7900   -9.3600   53.3450 C.ar  601  333601      0.1196
     27  NFE       67.8990   -9.4170   54.0810 N.ar  601  333601     -0.2220
     28  C2        68.9160   -9.1080   53.2950 C.ar  601  333601      0.1828
@<TRIPOS>BOND
     1    14    15    1
     2    14    13    2
     3    15    16    2
     4    13    11    1
     5    16    17    1
     6    16    12    2
     7    17    18    1
     8    11    12    2
     9    11    10    1
    10    19    18   ar
    11    19    20   ar
    12    18    21   ar
    13    10     9    1
    14    20    23   ar
    15    21    22   ar
    16     9     1   ar
    17     9     8   ar
    18     1     2   ar
    19    23    22   ar
    20    23    24    1
    21     2     3    1
    22     2     6   ar
    23     8     7   ar
    24     3     4    1
    25    24    25   ar
    26    24    28   ar
    27    25    26   ar
    28     6     7   ar
    29     6     5    1
    30     4     5    1
    31    28    27   ar
    32    26    27   ar
