@<TRIPOS>MOLECULE
2orr_HEM_A_1.pdb
 43 50 0 0 0
SMALL
GASTEIGER

@<TRIPOS>ATOM
      1 FE         68.3410   -9.6940   56.2190 Fe    600  HEM600      0.0000
      2  CHA       71.7790   -9.8790   55.4210 C.2   600  HEM600      0.0000
      3  CHB       68.6430   -6.3600   56.6540 C.2   600  HEM600      0.0000
      4  CHC       64.9040   -9.4680   56.6070 C.2   600  HEM600      0.0000
      5  CHD       68.1700  -13.0430   56.2310 C.2   600  HEM600      0.0000
      6  NA        69.8750   -8.4180   56.0750 N.2   600  HEM600      0.0000
      7  C1A       71.2230   -8.6270   55.7220 C.2   600  HEM600      0.0000
      8  C2A       71.9310   -7.3510   55.6220 C.2   600  HEM600      0.0000
      9  C3A       71.0540   -6.3800   55.9760 C.2   600  HEM600      0.0000
     10  C4A       69.7850   -7.0400   56.2640 C.2   600  HEM600      0.0000
     11  CMA       71.3490   -4.8860   56.1130 C.3   600  HEM600      0.0000
     12  CAA       73.3710   -7.1790   55.1880 C.3   600  HEM600      0.0000
     13  CBA       73.4310   -6.9210   53.6950 C.3   600  HEM600      0.0000
     14  CGA       74.8510   -6.7980   53.1820 C.2   600  HEM600      0.0000
     15  O1A       75.0400   -6.7730   51.9440 O.co2 600  HEM600      0.0000
     16  O2A       75.7790   -6.7280   54.0170 O.co2 600  HEM600      0.0000
     17  NB        67.0500   -8.2580   56.6560 N.ar  600  HEM600      0.0000
     18  C1B       67.3790   -6.9090   56.8240 C.ar  600  HEM600      0.0000
     19  C2B       66.1960   -6.0970   57.0210 C.ar  600  HEM600      0.0000
     20  C3B       65.1360   -6.9400   56.9330 C.ar  600  HEM600      0.0000
     21  C4B       65.6790   -8.3030   56.7640 C.ar  600  HEM600      0.0000
     22  CMB       66.1690   -4.5780   57.2530 C.3   600  HEM600      0.0000
     23  CAB       63.8310   -6.5520   56.7690 C.3   600  HEM600      0.0000
     24  CBB       62.7370   -6.8660   57.6360 C.3   600  HEM600      0.0000
     25  NC        66.8440  -10.9690   56.3650 N.2   600  HEM600      0.0000
     26  C1C       65.4770  -10.7390   56.4100 C.2   600  HEM600      0.0000
     27  C2C       64.7300  -11.9970   56.3000 C.2   600  HEM600      0.0000
     28  C3C       65.6480  -13.0080   56.2700 C.2   600  HEM600      0.0000
     29  C4C       66.9620  -12.3620   56.3330 C.2   600  HEM600      0.0000
     30  CMC       63.2180  -12.0640   56.1080 C.3   600  HEM600      0.0000
     31  CAC       65.4050  -14.3900   56.1340 C.3   600  HEM600      0.0000
     32  CBC       64.1690  -15.0160   56.5840 C.3   600  HEM600      0.0000
     33  ND        69.6650  -11.1360   55.8210 N.ar  600  HEM600      0.0000
     34  C1D       69.4090  -12.5000   55.9500 C.ar  600  HEM600      0.0000
     35  C2D       70.6100  -13.3080   55.6540 C.ar  600  HEM600      0.0000
     36  C3D       71.6090  -12.4150   55.4130 C.ar  600  HEM600      0.0000
     37  C4D       71.0220  -11.0750   55.4770 C.ar  600  HEM600      0.0000
     38  CMD       70.7210  -14.8500   55.6660 C.3   600  HEM600      0.0000
     39  CAD       73.1010  -12.6880   55.4390 C.3   600  HEM600      0.0000
     40  CBD       73.5110  -12.7890   56.9200 C.3   600  HEM600      0.0000
     41  CGD       75.0030  -12.9880   57.1120 C.2   600  HEM600      0.0000
     42  O1D       75.4800  -12.8540   58.2620 O.co2 600  HEM600      0.0000
     43  O2D       75.6990  -13.2770   56.1150 O.co2 600  HEM600      0.0000
@<TRIPOS>BOND
     1    15    14   ar
     2    14    13    1
     3    14    16   ar
     4    13    12    1
     5    12     8    1
     6    36    39    1
     7    36    37   ar
     8    36    35   ar
     9     2    37    2
    10     2     7    1
    11    39    40    1
    12    37    33   ar
    13     8     7    1
    14     8     9    2
    15    35    38    1
    16    35    34   ar
    17     7     6    2
    18    33    34   ar
    19    33     1    1
    20    34     5    2
    21     9    11    1
    22     9    10    1
    23     6     1    1
    24     6    10    1
    25    30    27    1
    26    43    41   ar
    27    31    28    1
    28    31    32    1
    29     1    25    1
    30     1    17    1
    31     5    29    1
    32    10     3    2
    33    28    27    2
    34    28    29    1
    35    27    26    1
    36    29    25    2
    37    25    26    1
    38    26     4    2
    39     4    21    1
    40     3    18    1
    41    17    21   ar
    42    17    18   ar
    43    21    20   ar
    44    23    20    1
    45    23    24    1
    46    18    19   ar
    47    40    41    1
    48    20    19   ar
    49    19    22    1
    50    41    42   ar
