@<TRIPOS>MOLECULE
2ors_HEM_A_1.pdb
 43 50 0 0 0
SMALL
GASTEIGER

@<TRIPOS>ATOM
      1 FE         68.5350   -9.8690   56.5680 Fe    600  HEM600      0.0000
      2  CHA       71.9410  -10.0830   55.9270 C.2   600  HEM600      0.0000
      3  CHB       68.8530   -6.4940   57.0060 C.2   600  HEM600      0.0000
      4  CHC       65.1160   -9.6270   56.7780 C.2   600  HEM600      0.0000
      5  CHD       68.3210  -13.2760   56.5430 C.2   600  HEM600      0.0000
      6  NA        70.0590   -8.5790   56.4960 N.2   600  HEM600      0.0000
      7  C1A       71.4050   -8.8160   56.1900 C.2   600  HEM600      0.0000
      8  C2A       72.1530   -7.5640   56.1550 C.2   600  HEM600      0.0000
      9  C3A       71.2830   -6.5710   56.4680 C.2   600  HEM600      0.0000
     10  C4A       69.9950   -7.2010   56.6930 C.2   600  HEM600      0.0000
     11  CMA       71.5790   -5.0710   56.5680 C.3   600  HEM600      0.0000
     12  CAA       73.6280   -7.3690   55.8180 C.3   600  HEM600      0.0000
     13  CBA       73.8050   -7.2940   54.3150 C.3   600  HEM600      0.0000
     14  CGA       75.1250   -6.6700   53.9150 C.2   600  HEM600      0.0000
     15  O1A       75.1090   -5.7060   53.1180 O.co2 600  HEM600      0.0000
     16  O2A       76.1770   -7.1430   54.3960 O.co2 600  HEM600      0.0000
     17  NB        67.2590   -8.3980   56.8810 N.ar  600  HEM600      0.0000
     18  C1B       67.5730   -7.0520   57.0600 C.ar  600  HEM600      0.0000
     19  C2B       66.3930   -6.2560   57.2050 C.ar  600  HEM600      0.0000
     20  C3B       65.3440   -7.0960   57.1250 C.ar  600  HEM600      0.0000
     21  C4B       65.8760   -8.4490   56.9430 C.ar  600  HEM600      0.0000
     22  CMB       66.3430   -4.7260   57.3600 C.3   600  HEM600      0.0000
     23  CAB       64.0400   -6.6540   57.0730 C.3   600  HEM600      0.0000
     24  CBB       62.9390   -7.2040   57.8040 C.3   600  HEM600      0.0000
     25  NC        67.0430  -11.1640   56.6100 N.2   600  HEM600      0.0000
     26  C1C       65.6770  -10.9040   56.6270 C.2   600  HEM600      0.0000
     27  C2C       64.9080  -12.1400   56.5860 C.2   600  HEM600      0.0000
     28  C3C       65.8020  -13.1640   56.6030 C.2   600  HEM600      0.0000
     29  C4C       67.1300  -12.5500   56.6150 C.2   600  HEM600      0.0000
     30  CMC       63.3820  -12.2140   56.5260 C.3   600  HEM600      0.0000
     31  CAC       65.5750  -14.5500   56.5710 C.3   600  HEM600      0.0000
     32  CBC       64.3640  -15.2220   57.0180 C.3   600  HEM600      0.0000
     33  ND        69.8290  -11.3490   56.2590 N.ar  600  HEM600      0.0000
     34  C1D       69.5770  -12.7190   56.3300 C.ar  600  HEM600      0.0000
     35  C2D       70.7930  -13.5030   56.0780 C.ar  600  HEM600      0.0000
     36  C3D       71.7790  -12.6030   55.8660 C.ar  600  HEM600      0.0000
     37  C4D       71.1900  -11.2710   55.9670 C.ar  600  HEM600      0.0000
     38  CMD       70.9540  -15.0410   56.1150 C.3   600  HEM600      0.0000
     39  CAD       73.2790  -12.9040   55.7670 C.3   600  HEM600      0.0000
     40  CBD       73.8370  -12.9990   57.1910 C.3   600  HEM600      0.0000
     41  CGD       75.3480  -13.1760   57.2340 C.2   600  HEM600      0.0000
     42  O1D       75.9420  -12.8930   58.2960 O.co2 600  HEM600      0.0000
     43  O2D       75.9420  -13.5960   56.2140 O.co2 600  HEM600      0.0000
@<TRIPOS>BOND
     1    15    14   ar
     2    14    13    1
     3    14    16   ar
     4    13    12    1
     5    39    36    1
     6    39    40    1
     7    12     8    1
     8    36    37   ar
     9    36    35   ar
    10     2    37    2
    11     2     7    1
    12    37    33   ar
    13    35    38    1
    14    35    34   ar
    15     8     7    1
    16     8     9    2
    17     7     6    2
    18    43    41   ar
    19    33    34   ar
    20    33     1    1
    21    34     5    2
    22     9    11    1
    23     9    10    1
    24     6     1    1
    25     6    10    1
    26    30    27    1
    27     5    29    1
    28     1    25    1
    29     1    17    1
    30    31    28    1
    31    31    32    1
    32    27    28    2
    33    27    26    1
    34    28    29    1
    35    25    29    2
    36    25    26    1
    37    26     4    2
    38    10     3    2
    39     4    21    1
    40    17    21   ar
    41    17    18   ar
    42    21    20   ar
    43     3    18    1
    44    18    19   ar
    45    23    20    1
    46    23    24    1
    47    20    19   ar
    48    40    41    1
    49    19    22    1
    50    41    42   ar
