@<TRIPOS>MOLECULE
2ors_391_A_1.pdb
 29 33 0 0 0
SMALL
GASTEIGER

@<TRIPOS>ATOM
      1  C36       69.7240   -4.1890   50.5190 C.ar  601  391601      0.0777
      2  C35       69.2350   -4.5120   51.8170 C.ar  601  391601      0.1795
      3  O39       68.1340   -5.2080   52.2070 O.3   601  391601     -0.4345
      4  C38       68.2230   -5.3570   53.6370 C.3   601  391601      0.4294
      5  O37       69.2810   -4.4930   54.0810 O.3   601  391601     -0.4346
      6  C34       69.9590   -4.1020   52.9680 C.ar  601  391601      0.1766
      7  C33       71.1770   -3.3720   52.8180 C.ar  601  391601      0.0433
      8  C32       71.6700   -3.0520   51.5220 C.ar  601  391601      0.0409
      9  C31       70.9460   -3.4560   50.3590 C.ar  601  391601      0.1511
     10  O28       71.3970   -3.0790   49.0930 O.3   601  391601     -0.4295
     11  C23       72.1000   -4.0690   48.4120 C.2   601  391601      0.2777
     12  N22       71.6760   -5.3670   48.4720 N.2   601  391601     -0.2770
     13  C24       73.2280   -3.7390   47.6320 C.3   601  391601      0.1555
     14  C25       73.8770   -4.7890   46.9480 C.2   601  391601      0.1128
     15  C27       75.1130   -4.4940   46.0910 C.3   601  391601      0.0632
     16  N26       73.4120   -6.0710   47.0480 N.2   601  391601     -0.3191
     17  C21       72.3170   -6.3690   47.8030 C.1   601  391601      0.3168
     18  O17       71.8480   -7.6730   47.8560 O.3   601  391601     -0.3749
     19  C14       71.0760   -7.9660   48.9720 C.ar  601  391601      0.1613
     20  C15       69.6490   -7.9170   48.8830 C.ar  601  391601      0.0402
     21  C16       68.8470   -8.2640   50.0050 C.ar  601  391601      0.0207
     22  C13       71.6890   -8.3730   50.2000 C.ar  601  391601      0.0402
     23  C12       70.8850   -8.7190   51.3210 C.ar  601  391601      0.0207
     24  C11       69.4490   -8.6730   51.2450 C.ar  601  391601      0.0657
     25  N3        68.6730   -9.0220   52.3340 N.ar  601  391601     -0.2864
     26  C4        67.3230   -9.0380   52.4070 C.ar  601  391601      0.1022
     27  C5        66.9650   -9.4310   53.6230 C.ar  601  391601      0.1196
     28  NFE       68.0710   -9.6650   54.3280 N.ar  601  391601     -0.2220
     29  C2        69.1130   -9.4170   53.5420 C.ar  601  391601      0.1828
@<TRIPOS>BOND
     1    15    14    1
     2    14    16    2
     3    14    13    1
     4    16    17    2
     5    13    11    1
     6    17    18    1
     7    17    12    2
     8    18    19    1
     9    11    12    2
    10    11    10    1
    11    20    19   ar
    12    20    21   ar
    13    19    22   ar
    14    10     9    1
    15    21    24   ar
    16    22    23   ar
    17     9     1   ar
    18     9     8   ar
    19     1     2   ar
    20    24    23   ar
    21    24    25    1
    22     8     7   ar
    23     2     3    1
    24     2     6   ar
    25     3     4    1
    26    25    26   ar
    27    25    29   ar
    28    26    27   ar
    29     7     6   ar
    30     6     5    1
    31    29    28   ar
    32    27    28   ar
    33     4     5    1
