@<TRIPOS>MOLECULE
2ort_HEM_A_1.pdb
 43 50 0 0 0
SMALL
GASTEIGER

@<TRIPOS>ATOM
      1 FE         68.0410   -9.3780   55.7120 Fe    600  HEM600      0.0000
      2  CHA       71.4540   -9.6520   55.0500 C.2   600  HEM600      0.0000
      3  CHB       68.3700   -5.9900   56.0730 C.2   600  HEM600      0.0000
      4  CHC       64.6460   -9.1310   56.0210 C.2   600  HEM600      0.0000
      5  CHD       67.8140  -12.8260   55.7650 C.2   600  HEM600      0.0000
      6  NA        69.5670   -8.1210   55.5900 N.2   600  HEM600      0.0000
      7  C1A       70.9220   -8.3770   55.2660 C.2   600  HEM600      0.0000
      8  C2A       71.6680   -7.1410   55.1940 C.2   600  HEM600      0.0000
      9  C3A       70.8150   -6.1390   55.5200 C.2   600  HEM600      0.0000
     10  C4A       69.5230   -6.7340   55.7680 C.2   600  HEM600      0.0000
     11  CMA       71.1640   -4.6520   55.6340 C.3   600  HEM600      0.0000
     12  CAA       73.1380   -6.9810   54.8510 C.3   600  HEM600      0.0000
     13  CBA       73.4050   -6.7640   53.3710 C.3   600  HEM600      0.0000
     14  CGA       74.8870   -6.7160   53.0500 C.2   600  HEM600      0.0000
     15  O1A       75.2380   -6.4900   51.8710 O.co2 600  HEM600      0.0000
     16  O2A       75.7030   -6.9080   53.9790 O.co2 600  HEM600      0.0000
     17  NB        66.7810   -7.8860   56.0400 N.ar  600  HEM600      0.0000
     18  C1B       67.0970   -6.5420   56.1960 C.ar  600  HEM600      0.0000
     19  C2B       65.9210   -5.7660   56.4700 C.ar  600  HEM600      0.0000
     20  C3B       64.8520   -6.5980   56.4210 C.ar  600  HEM600      0.0000
     21  C4B       65.3920   -7.9380   56.1700 C.ar  600  HEM600      0.0000
     22  CMB       65.9000   -4.2550   56.7320 C.3   600  HEM600      0.0000
     23  CAB       63.5280   -6.1700   56.4380 C.3   600  HEM600      0.0000
     24  CBB       62.4650   -6.8230   57.1680 C.3   600  HEM600      0.0000
     25  NC        66.5640  -10.6890   55.8040 N.2   600  HEM600      0.0000
     26  C1C       65.2050  -10.4180   55.8540 C.2   600  HEM600      0.0000
     27  C2C       64.4380  -11.6470   55.8140 C.2   600  HEM600      0.0000
     28  C3C       65.3150  -12.6840   55.8580 C.2   600  HEM600      0.0000
     29  C4C       66.6300  -12.0800   55.8240 C.2   600  HEM600      0.0000
     30  CMC       62.9150  -11.6830   55.7410 C.3   600  HEM600      0.0000
     31  CAC       65.0790  -14.0640   55.9120 C.3   600  HEM600      0.0000
     32  CBC       63.8510  -14.7630   56.2740 C.3   600  HEM600      0.0000
     33  ND        69.3250  -10.8960   55.4240 N.ar  600  HEM600      0.0000
     34  C1D       69.0670  -12.2670   55.5550 C.ar  600  HEM600      0.0000
     35  C2D       70.2790  -13.0460   55.3560 C.ar  600  HEM600      0.0000
     36  C3D       71.2850  -12.1650   55.0870 C.ar  600  HEM600      0.0000
     37  C4D       70.6980  -10.8390   55.1360 C.ar  600  HEM600      0.0000
     38  CMD       70.4420  -14.5460   55.5620 C.3   600  HEM600      0.0000
     39  CAD       72.7860  -12.4800   55.0450 C.3   600  HEM600      0.0000
     40  CBD       73.2410  -12.3830   56.5010 C.3   600  HEM600      0.0000
     41  CGD       74.6850  -12.8010   56.7180 C.2   600  HEM600      0.0000
     42  O1D       75.1770  -12.6080   57.8510 O.co2 600  HEM600      0.0000
     43  O2D       75.3240  -13.3200   55.7710 O.co2 600  HEM600      0.0000
@<TRIPOS>BOND
     1    15    14   ar
     2    14    13    1
     3    14    16   ar
     4    13    12    1
     5    12     8    1
     6    39    36    1
     7    39    40    1
     8     2    37    2
     9     2     7    1
    10    36    37   ar
    11    36    35   ar
    12    37    33   ar
    13     8     7    1
    14     8     9    2
    15     7     6    2
    16    35    34   ar
    17    35    38    1
    18    33    34   ar
    19    33     1    1
    20     9    11    1
    21     9    10    1
    22    34     5    2
    23     6     1    1
    24     6    10    1
    25     1    25    1
    26     1    17    1
    27    30    27    1
    28     5    29    1
    29    10     3    2
    30    43    41   ar
    31    25    29    2
    32    25    26    1
    33    27    26    1
    34    27    28    2
    35    29    28    1
    36    26     4    2
    37    28    31    1
    38    31    32    1
    39     4    21    1
    40    17    21   ar
    41    17    18   ar
    42     3    18    1
    43    21    20   ar
    44    18    19   ar
    45    20    23    1
    46    20    19   ar
    47    23    24    1
    48    19    22    1
    49    40    41    1
    50    41    42   ar
