@<TRIPOS>MOLECULE
2ort_342_A_1.pdb
 28 32 0 0 0
SMALL
GASTEIGER

@<TRIPOS>ATOM
      1  C36       69.3760   -4.0970   49.4250 C.ar  601  342601      0.0373
      2  C35       68.8010   -4.3150   50.6910 C.ar  601  342601      0.1762
      3  O39       67.7030   -5.0260   51.0600 O.3   601  342601     -0.4346
      4  C38       67.6900   -5.0350   52.4980 C.3   601  342601      0.4294
      5  O37       68.6400   -4.0540   52.9270 O.3   601  342601     -0.4346
      6  C34       69.3870   -3.7410   51.8350 C.ar  601  342601      0.1764
      7  C33       70.5490   -2.9590   51.7040 C.ar  601  342601      0.0399
      8  C32       71.1220   -2.7450   50.4380 C.ar  601  342601      0.0004
      9  C31       70.5370   -3.3160   49.2950 C.ar  601  342601     -0.0029
     10  C27       71.1720   -3.0780   47.9080 C.3   601  342601      0.0993
     11  N23       71.4010   -4.3510   47.1800 N.3   601  342601     -0.2659
     12  C22       72.3550   -5.2150   47.9310 C.3   601  342601      0.1164
     13  C24       71.9490   -4.0400   45.8330 C.3   601  342601      0.0726
     14  C25       72.1650   -5.3410   45.0450 C.3   601  342601      0.0211
     15  C26       73.0810   -6.3000   45.8240 C.3   601  342601      0.0464
     16  C21       72.5030   -6.5880   47.2190 C.3   601  342601      0.1818
     17  O17       71.2010   -7.2590   47.0360 O.3   601  342601     -0.4777
     18  C14       70.4960   -7.5830   48.1800 C.ar  601  342601      0.1385
     19  C15       69.0920   -7.5620   48.1270 C.ar  601  342601      0.0384
     20  C16       68.3320   -7.8960   49.2580 C.ar  601  342601      0.0207
     21  C13       71.1400   -7.9390   49.3870 C.ar  601  342601      0.0384
     22  C12       70.3820   -8.2710   50.5200 C.ar  601  342601      0.0207
     23  C11       68.9700   -8.2520   50.4680 C.ar  601  342601      0.0657
     24  N3        68.2400   -8.5860   51.5560 N.ar  601  342601     -0.2864
     25  C4        66.9050   -8.6060   51.6500 C.ar  601  342601      0.1022
     26  C5        66.5830   -8.9750   52.8840 C.ar  601  342601      0.1196
     27  NFE       67.7060   -9.1860   53.5600 N.ar  601  342601     -0.2220
     28  C2        68.7200   -8.9470   52.7440 C.ar  601  342601      0.1828
@<TRIPOS>BOND
     1    14    15    1
     2    14    13    1
     3    15    16    1
     4    13    11    1
     5    17    16    1
     6    17    18    1
     7    11    10    1
     8    11    12    1
     9    16    12    1
    10    10     9    1
    11    19    18   ar
    12    19    20   ar
    13    18    21   ar
    14    20    23   ar
    15     9     1   ar
    16     9     8   ar
    17    21    22   ar
    18     1     2   ar
    19     8     7   ar
    20    23    22   ar
    21    23    24    1
    22     2     3    1
    23     2     6   ar
    24     3     4    1
    25    24    25   ar
    26    24    28   ar
    27    25    26   ar
    28     7     6   ar
    29     6     5    1
    30     4     5    1
    31    28    27   ar
    32    26    27   ar
