@<TRIPOS>MOLECULE
2orv_4TA_A_1.pdb
 33 34 0 0 0
SMALL
GASTEIGER

@<TRIPOS>ATOM
      1  C5M       32.5850   18.9680   63.8150 C.3   801  4TA801      0.0462
      2  C5        33.2700   19.7880   64.8800 C.2   801  4TA801      0.0891
      3  C6        33.8240   19.1550   65.9790 C.2   801  4TA801      0.0877
      4  N1        34.4270   19.8670   66.9320 N.am  801  4TA801     -0.1794
      5  C1B       35.0420   19.2230   68.1170 C.3   801  4TA801      0.2090
      6  C2B       34.0440   18.3760   68.8910 C.3   801  4TA801      0.0874
      7  C3B       34.9860   17.4840   69.6610 C.3   801  4TA801      0.1857
      8  O3B       35.3300   18.0440   70.9230 O.3   801  4TA801     -0.2203
      9  C4B       36.2680   17.3850   68.8600 C.3   801  4TA801      0.1773
     10  C5B       36.2680   15.9450   68.3510 C.3   801  4TA801      0.1812
     11  O5'       37.1470   15.7600   67.2640 O.3   801  4TA801     -0.3112
     12  PD        37.7030   14.2920   66.8470 P.3   801  4TA801      0.2189
     13  O2D       39.0630   14.5960   66.0430 O.3   801  4TA801     -0.4371
     14  O1D       36.4630   13.4320   66.0070 O.2   801  4TA801     -0.5170
     15  OCD       37.9790   13.5730   68.2500 O.3   801  4TA801     -0.2701
     16  PC        38.7230   12.1700   68.4830 P.3   801  4TA801      0.2237
     17  O1C       40.4860   12.2480   68.3420 O.2   801  4TA801     -0.5168
     18  O2C       38.3710   11.6850   69.9290 O.3   801  4TA801     -0.4369
     19  OBC       37.9950   11.3100   67.3100 O.3   801  4TA801     -0.2698
     20  PB        37.6480    9.7470   67.3060 P.3   801  4TA801      0.2277
     21  O2B       37.1190    9.2550   65.7050 O.2   801  4TA801     -0.5168
     22  O1B       38.9930    9.0680   67.8710 O.3   801  4TA801     -0.4368
     23  OAB       36.3740    9.6140   68.2730 O.3   801  4TA801     -0.2258
     24  PA        35.8690    8.2290   68.9530 P.3   801  4TA801      0.5373
     25  O1A       37.0000    7.5490   69.8840 O.3   801  4TA801     -0.1143
     26  O2A       34.3560    8.5380   69.8710 O.3   801  4TA801     -0.1143
     27  OA        35.4470    7.2940   67.7320 O.2   801  4TA801     -0.2221
     28  O4'       36.1880   18.4010   67.8550 O.3   801  4TA801     -0.3339
     29  C2        34.5090   21.2780   66.8330 C.1   801  4TA801      0.2844
     30  O2        35.1100   21.9210   67.7260 O.2   801  4TA801     -0.1918
     31  N3        33.9790   21.9300   65.7870 N.2   801  4TA801     -0.2455
     32  C4        33.3600   21.2750   64.7880 C.1   801  4TA801      0.2134
     33  O4        32.8460   21.9070   63.8170 O.2   801  4TA801     -0.2088
@<TRIPOS>BOND
     1     1     2    1
     2    33    32    2
     3    32     2    1
     4    32    31    2
     5     2     3    2
     6    21    20    2
     7    31    29    2
     8     3     4    1
     9    14    12    2
    10    13    12    1
    11    29     4   am
    12    29    30    2
    13    12    11    1
    14    12    15    1
    15     4     5    1
    16    11    10    1
    17    20    19    1
    18    20    22    1
    19    20    23    1
    20    19    16    1
    21    27    24    2
    22    28     5    1
    23    28     9    1
    24     5     6    1
    25    15    16    1
    26    23    24    1
    27    17    16    2
    28    10     9    1
    29    16    18    1
    30     9     7    1
    31     6     7    1
    32    24    26    1
    33    24    25    1
    34     7     8    1
