@<TRIPOS>MOLECULE
2os1_BB2_A_1.pdb
 27 27 0 0 0
SMALL
GASTEIGER

@<TRIPOS>ATOM
      1  C5        16.5330   49.8700   25.7500 C.3   400  BB2400      0.0995
      2  C3        17.2140   50.8600   24.7970 C.2   400  BB2400      0.2842
      3  O4        17.8430   51.7940   25.3280 O.2   400  BB2400     -0.2698
      4  N1        17.1160   50.6960   23.4850 N.am  400  BB2400      0.0385
      5  O2        17.6260   51.4390   22.6490 O.2   400  BB2400     -0.1531
      6  C6        15.0390   50.3320   26.0020 C.3   400  BB2400      0.0874
      7  C12       14.4230   49.7990   27.3140 C.2   400  BB2400      0.2418
      8  O13       14.4590   48.6120   27.6230 O.2   400  BB2400     -0.2733
      9  C7        14.2170   49.7610   24.7810 C.3   400  BB2400      0.0096
     10  C8        12.7270   50.1480   24.8690 C.3   400  BB2400      0.0005
     11  C9        11.9390   49.5980   23.6890 C.3   400  BB2400      0.0000
     12  C10       10.5690   50.2510   23.5410 C.3   400  BB2400      0.0000
     13  C11        9.5160   49.5860   24.3510 C.3   400  BB2400      0.0000
     14  N14       13.8590   50.7240   28.0830 N.am  400  BB2400     -0.1978
     15  C15       13.0350   50.4600   29.2660 C.3   400  BB2400      0.1712
     16  C16       13.4170   51.2850   30.5190 C.3   400  BB2400      0.0289
     17  C18       14.5680   52.2440   30.2770 C.3   400  BB2400      0.0023
     18  C17       13.7640   50.2900   31.6240 C.3   400  BB2400      0.0023
     19  C19       11.5620   50.7200   28.8760 C.2   400  BB2400      0.2458
     20  O20       11.2700   51.7720   28.3010 O.2   400  BB2400     -0.2730
     21  N21       10.6410   49.7800   29.1810 N.am  400  BB2400     -0.2727
     22  C22        9.2180   49.9300   28.8560 C.3   400  BB2400      0.1402
     23  C23       10.9170   48.4760   29.8760 C.3   400  BB2400      0.0939
     24  C24        9.5580   47.8230   29.9620 C.3   400  BB2400      0.0237
     25  C25        8.7200   48.4840   28.9060 C.3   400  BB2400      0.0296
     26  C26        8.4360   50.8070   29.8460 C.2   400  BB2400      0.2269
     27  O27        8.4130   52.0540   29.6260 O.2   400  BB2400     -0.2865
@<TRIPOS>BOND
     1     5     4    2
     2     4     2    1
     3    12    11    1
     4    12    13    1
     5    11    10    1
     6     9    10    1
     7     9     6    1
     8     2     3    2
     9     2     1    1
    10     1     6    1
    11     6     7    1
    12     7     8    2
    13     7    14   am
    14    14    15    1
    15    20    19    2
    16    22    25    1
    17    22    21    1
    18    22    26    1
    19    19    21   am
    20    19    15    1
    21    25    24    1
    22    21    23    1
    23    15    16    1
    24    27    26    2
    25    23    24    1
    26    17    16    1
    27    16    18    1
