@<TRIPOS>MOLECULE
2os2_OGA_A_1.pdb
 10 9 0 0 0
SMALL
GASTEIGER

@<TRIPOS>ATOM
      1  C1       -29.2220  -21.0260  -23.9950 C.2   500  OGA500      0.4419
      2  C2       -27.8500  -21.3900  -23.3980 C.2   500  OGA500      0.3455
      3  C4       -25.4950  -21.7220  -23.5340 C.3   500  OGA500      0.2290
      4  C5       -24.3910  -21.7810  -24.5310 C.2   500  OGA500      0.3866
      5  O1       -29.3070  -20.7340  -25.2060 O.co2 500  OGA500     -0.2354
      6  O2       -30.1830  -21.0340  -23.1890 O.co2 500  OGA500     -0.2354
      7  O2'      -27.8020  -21.6530  -22.2000 O.2   500  OGA500     -0.2611
      8  O3       -23.2340  -21.7150  -24.0470 O.co2 500  OGA500     -0.2437
      9  N1       -26.7630  -21.3910  -24.1450 N.am  500  OGA500     -0.1838
     10  O4       -24.7160  -21.8930  -25.7350 O.co2 500  OGA500     -0.2437
@<TRIPOS>BOND
     1    10     4   ar
     2     5     1   ar
     3     4     8   ar
     4     4     3    1
     5     9     3    1
     6     9     2   am
     7     1     2    1
     8     1     6   ar
     9     2     7    2
