@<TRIPOS>MOLECULE
2os3_BB2_A_1.pdb
 27 27 0 0 0
SMALL
GASTEIGER

@<TRIPOS>ATOM
      1  C5       -21.9070  -84.6250   52.6020 C.3   400  BB2400      0.0995
      2  C3       -20.9500  -83.4500   52.3440 C.2   400  BB2400      0.2842
      3  O4       -19.8390  -83.7400   51.8470 O.2   400  BB2400     -0.2698
      4  N1       -21.3200  -82.2110   52.6430 N.am  400  BB2400      0.0385
      5  O2       -20.6230  -81.2150   52.4760 O.2   400  BB2400     -0.1531
      6  C6       -21.6130  -85.2400   54.0320 C.3   400  BB2400      0.0874
      7  C12      -22.1240  -86.6870   54.2400 C.2   400  BB2400      0.2418
      8  O13      -23.2750  -87.0340   53.9880 O.2   400  BB2400     -0.2733
      9  C7       -22.3570  -84.3070   55.0650 C.3   400  BB2400      0.0096
     10  C8       -22.1230  -84.8070   56.5040 C.3   400  BB2400      0.0005
     11  C9       -22.8250  -83.9490   57.5390 C.3   400  BB2400      0.0000
     12  C10      -22.2590  -84.1600   58.9440 C.3   400  BB2400      0.0000
     13  C11      -22.5600  -85.5040   59.5270 C.3   400  BB2400      0.0000
     14  N14      -21.2190  -87.5180   54.7230 N.am  400  BB2400     -0.1978
     15  C15      -21.4310  -88.9200   55.0770 C.3   400  BB2400      0.1712
     16  C16      -20.3910  -89.8540   54.4020 C.3   400  BB2400      0.0289
     17  C18      -20.3210  -89.6190   52.9050 C.3   400  BB2400      0.0023
     18  C17      -20.7760  -91.3110   54.6950 C.3   400  BB2400      0.0023
     19  C19      -21.3470  -89.0000   56.6200 C.2   400  BB2400      0.2458
     20  O20      -20.3530  -88.5450   57.1900 O.2   400  BB2400     -0.2730
     21  N21      -22.3610  -89.5670   57.2920 N.am  400  BB2400     -0.2727
     22  C22      -22.3600  -89.6890   58.7590 C.3   400  BB2400      0.1402
     23  C23      -23.6060  -90.1410   56.6800 C.3   400  BB2400      0.0939
     24  C24      -24.3900  -90.6430   57.8740 C.3   400  BB2400      0.0237
     25  C25      -23.8390  -89.9230   59.0750 C.3   400  BB2400      0.0296
     26  C26      -21.5040  -90.8490   59.2900 C.2   400  BB2400      0.2269
     27  O27      -20.9520  -90.6980   60.4190 O.2   400  BB2400     -0.2865
@<TRIPOS>BOND
     1     3     2    2
     2     2     1    1
     3     2     4    1
     4     5     4    2
     5     1     6    1
     6    17    16    1
     7     8     7    2
     8     6     7    1
     9     6     9    1
    10     7    14   am
    11    16    18    1
    12    16    15    1
    13    14    15    1
    14     9    10    1
    15    15    19    1
    16    10    11    1
    17    19    20    2
    18    19    21   am
    19    23    21    1
    20    23    24    1
    21    21    22    1
    22    11    12    1
    23    24    25    1
    24    22    25    1
    25    22    26    1
    26    12    13    1
    27    26    27    2
