@<TRIPOS>MOLECULE
2os9_INS_A_1.pdb
 12 12 0 0 0
SMALL
GASTEIGER

@<TRIPOS>ATOM
      1  C1        27.6770  -13.6400   11.2180 C.3   631  INS631      0.2175
      2  C2        27.6530  -14.7060   10.0560 C.3   631  INS631      0.2175
      3  C3        28.6950  -14.3490    8.9630 C.3   631  INS631      0.2175
      4  C4        30.0880  -14.0470    9.5230 C.3   631  INS631      0.2175
      5  C5        30.0520  -12.9170   10.6150 C.3   631  INS631      0.2175
      6  C6        29.1190  -13.3710   11.7880 C.3   631  INS631      0.2175
      7  O1        26.8030  -14.0810   12.3460 O.3   631  INS631     -0.2175
      8  O2        27.8970  -16.0700   10.4990 O.3   631  INS631     -0.2175
      9  O3        28.8190  -15.4510    8.0370 O.3   631  INS631     -0.2175
     10  O4        30.9250  -13.7080    8.4080 O.3   631  INS631     -0.2175
     11  O5        31.3680  -12.6770   11.1430 O.3   631  INS631     -0.2175
     12  O6        29.0640  -12.3490   12.8320 O.3   631  INS631     -0.2175
@<TRIPOS>BOND
     1     9     3    1
     2    10     4    1
     3     3     4    1
     4     3     2    1
     5     4     5    1
     6     2     8    1
     7     2     1    1
     8     5    11    1
     9     5     6    1
    10     1     6    1
    11     1     7    1
    12     6    12    1
