@<TRIPOS>MOLECULE
2osc_MUH_A_1.pdb
 33 36 0 0 0
SMALL
GASTEIGER

@<TRIPOS>ATOM
      1  C9        53.3200   -0.3770   71.1290 C.ar   50  MUH50       0.0750
      2  C10       53.4820   -0.1600   72.5790 C.ar   50  MUH50       0.0328
      3  C11       53.2700   -1.2700   73.5490 C.ar   50  MUH50       0.0694
      4  C12       52.8680   -2.5990   73.0480 C.ar   50  MUH50      -0.0065
      5  C13       52.7180   -2.8080   71.5970 C.ar   50  MUH50      -0.0016
      6  C14       52.9460   -1.7080   70.6400 C.ar   50  MUH50       0.0164
      7  C15       52.6000   -3.6530   74.0220 C.3    50  MUH50       0.0324
      8  N3        53.4690    0.6270   70.1660 N.am   50  MUH50      -0.1754
      9  C8        53.7270    1.9500   70.3340 C.2    50  MUH50       0.2690
     10  C16       52.6710    2.6070   68.0590 C.ar   50  MUH50       0.0046
     11  C17       53.7060    2.7160   69.0950 C.ar   50  MUH50       0.0553
     12  C18       54.8110    3.6460   68.9570 C.ar   50  MUH50       0.0084
     13  C19       54.9260    4.5270   67.7790 C.ar   50  MUH50       0.0716
     14  C20       53.8860    4.4150   66.7290 C.ar   50  MUH50       0.0039
     15  C6        52.7710    3.4570   66.8730 C.ar   50  MUH50       0.0001
     16  C7        56.0880    5.5470   67.7160 C.3    50  MUH50       0.4186
     17  F3        56.4190    5.9800   66.5040 F      50  MUH50      -0.1659
     18  F1        57.2070    5.0290   68.1820 F      50  MUH50      -0.1659
     19  F2        55.7310    6.6020   68.4700 F      50  MUH50      -0.1659
     20  N4        53.4930   -1.0900   74.9440 N.pl3  50  MUH50      -0.1944
     21  C21       52.8920   -0.7450   77.3580 C.ar   50  MUH50       0.0511
     22  C22       51.7720   -0.4130   78.2530 C.ar   50  MUH50       0.0059
     23  C23       50.4000   -0.1300   77.8440 C.ar   50  MUH50       0.0208
     24  C24       50.1420   -0.1910   76.4120 C.ar   50  MUH50       0.1004
     25  N5        51.2020   -0.5090   75.5460 N.ar   50  MUH50      -0.2273
     26  C5        52.5270   -0.7810   75.9310 C.ar   50  MUH50       0.1531
     27  C1        54.6940   -1.0350   79.2310 C.ar   50  MUH50       0.0399
     28  C2        56.0760   -1.2390   79.5000 C.ar   50  MUH50       0.1022
     29  N1        56.9980   -1.4290   78.5000 N.ar   50  MUH50      -0.2224
     30  C3        56.6870   -1.4410   77.1590 C.ar   50  MUH50       0.1989
     31  N2        55.3620   -1.2450   76.8620 N.ar   50  MUH50      -0.2239
     32  C4        54.3190   -1.0360   77.8380 C.ar   50  MUH50       0.0873
     33  O1        53.9770    2.5240   71.3930 O.2    50  MUH50      -0.2680
@<TRIPOS>BOND
     1    17    16    1
     2    14    15   ar
     3    14    13   ar
     4    15    10   ar
     5    16    13    1
     6    16    18    1
     7    16    19    1
     8    13    12   ar
     9    10    11   ar
    10    12    11   ar
    11    11     9    1
    12     8     9   am
    13     8     1    1
    14     9    33    2
    15     6     1   ar
    16     6     5   ar
    17     1     2   ar
    18     5     4   ar
    19     2     3   ar
    20     4     3   ar
    21     4     7    1
    22     3    20    1
    23    20    26    1
    24    25    26   ar
    25    25    24   ar
    26    26    21   ar
    27    24    23   ar
    28    31    30   ar
    29    31    32   ar
    30    30    29   ar
    31    21    32    1
    32    21    22   ar
    33    32    27   ar
    34    23    22   ar
    35    29    28   ar
    36    27    28   ar
