@<TRIPOS>MOLECULE
2osf_S24_A_1.pdb
 12 12 0 0 0
SMALL
GASTEIGER

@<TRIPOS>ATOM
      1  C2        -8.4610   11.3100    7.7220 C.ar  264  S24264      0.0132
      2  C4       -10.3560   12.6620    8.3700 C.ar  264  S24264      0.1990
      3  C5       -11.2280   11.6660    8.0980 C.ar  264  S24264      0.0845
      4  C6       -10.7400   10.4730    7.6490 C.ar  264  S24264      0.2050
      5  C7        -8.8560    7.7580    8.1210 C.2   264  S24264      0.4187
      6  O2        -8.0020    7.4110    8.8900 O.co2 264  S24264     -0.2328
      7  O4       -11.6240    9.5160    7.3430 O.3   264  S24264     -0.2859
      8  O1        -9.8140    7.1660    8.1840 O.co2 264  S24264     -0.2328
      9  S1        -8.7380    8.9010    6.8510 S.3   264  S24264      0.0003
     10  C1        -9.3840   10.3140    7.4360 C.ar  264  S24264      0.0746
     11  O3       -10.8080   13.8010    8.9110 O.3   264  S24264     -0.2865
     12  C3        -8.9970   12.4750    8.2100 C.ar  264  S24264      0.0428
@<TRIPOS>BOND
     1     9    10    1
     2     9     5    1
     3     7     4    1
     4    10     4   ar
     5    10     1   ar
     6     4     3   ar
     7     1    12   ar
     8     3     2   ar
     9     5     8   ar
    10     5     6   ar
    11    12     2   ar
    12     2    11    1
