@<TRIPOS>MOLECULE
2osu_DON_A_1.pdb
 12 11 0 0 0
SMALL
GASTEIGER

@<TRIPOS>ATOM
      1  O         14.9020    9.1380    4.5440 O.co2 401  DON401     -0.2441
      2  C         15.0710    9.7290    3.4520 C.2   401  DON401      0.3819
      3  OXT       14.8570    9.2540    2.2990 O.co2 401  DON401     -0.2441
      4  CA        15.5570   11.1870    3.5520 C.3   401  DON401      0.1948
      5  N         14.4160   12.0010    3.9660 N.3   401  DON401     -0.1208
      6  CB        16.6850   11.3740    4.5910 C.3   401  DON401      0.0384
      7  C1E       16.5330   12.6880    5.4070 C.3   401  DON401      0.0682
      8  C1D       17.8360   13.4640    5.4310 C.2   401  DON401      0.1699
      9  O1J       18.8080   12.9790    5.9910 O.2   401  DON401     -0.2945
     10  C1C       17.8780   14.7020    4.7950 C.3   401  DON401      0.1749
     11  N1B       18.9550   15.4710    4.7370 N.3   401  DON401     -0.1046
     12  N1A       20.0030   16.2660    4.6430 N.3   401  DON401     -0.0200
@<TRIPOS>BOND
     1     3     2   ar
     2     2     4    1
     3     2     1   ar
     4     4     5    1
     5     4     6    1
     6     6     7    1
     7    12    11    1
     8    11    10    1
     9    10     8    1
    10     7     8    1
    11     8     9    2
