@<TRIPOS>MOLECULE
2osx_16C_A_1.pdb
 21 20 0 0 0
SMALL
GASTEIGER

@<TRIPOS>ATOM
      1  O19       32.5810   -2.8660    8.1670 O.2   603  16C603     -0.2733
      2  C19       31.4850   -2.3180    8.2600 C.2   603  16C603      0.2415
      3  N2        30.4010   -2.9340    8.7520 N.am  603  16C603     -0.2015
      4  C2        30.4040   -4.3310    9.2210 C.3   603  16C603      0.1626
      5  C1        29.5000   -4.4070   10.4540 C.3   603  16C603      0.2065
      6  O1        28.3040   -3.7530   10.1840 O.3   603  16C603     -0.2184
      7  C3        29.9220   -5.2750    8.1180 C.3   603  16C603      0.1961
      8  C4        30.7980   -5.1610    6.9050 C.2   603  16C603      0.0034
      9  C5        31.0900   -6.1730    6.0940 C.2   603  16C603     -0.0282
     10  C6        31.9690   -5.9830    4.8770 C.3   603  16C603      0.0258
     11  C7        31.3120   -6.5110    3.6080 C.3   603  16C603      0.0047
     12  C8        32.2010   -6.3650    2.3780 C.3   603  16C603      0.0004
     13  O3        29.9050   -6.6240    8.6250 O.3   603  16C603     -0.2164
     14  C20       31.2170   -0.8850    7.8430 C.3   603  16C603      0.0868
     15  C21       31.8270   -0.5110    6.5050 C.3   603  16C603      0.0096
     16  C22       31.5020   -1.4230    5.3250 C.3   603  16C603      0.0005
     17  C23       31.9580   -0.8510    3.9960 C.3   603  16C603      0.0000
     18  C24       31.7540   -1.7930    2.8200 C.3   603  16C603      0.0000
     19  C25       32.2610   -1.2340    1.5020 C.3   603  16C603      0.0000
     20  C26       32.0640   -2.1980    0.3270 C.3   603  16C603      0.0000
     21  C27       33.2710   -2.3060   -0.6050 C.3   603  16C603      0.0000
@<TRIPOS>BOND
     1    21    20    1
     2    20    19    1
     3    19    18    1
     4    12    11    1
     5    18    17    1
     6    11    10    1
     7    17    16    1
     8    10     9    1
     9    16    15    1
    10     9     8    2
    11    15    14    1
    12     8     7    1
    13    14     2    1
    14     7    13    1
    15     7     4    1
    16     1     2    2
    17     2     3   am
    18     3     4    1
    19     4     5    1
    20     6     5    1
