@<TRIPOS>MOLECULE
2osx_GAL_A_1.pdb
 11 11 0 0 0
SMALL
GASTEIGER

@<TRIPOS>ATOM
      1  C1        22.3700   -5.1140    9.7350 C.3   601  GAL601      0.1777
      2  C2        21.0750   -5.8030   10.0970 C.3   601  GAL601      0.2141
      3  C3        20.2700   -5.9680    8.8080 C.3   601  GAL601      0.2173
      4  C4        20.0140   -4.5970    8.1740 C.3   601  GAL601      0.2142
      5  C5        21.3900   -3.9870    7.9130 C.3   601  GAL601      0.1810
      6  C6        21.3880   -2.6110    7.2750 C.3   601  GAL601      0.2141
      7  O2        21.3540   -7.0630   10.6940 O.3   601  GAL601     -0.2176
      8  O3        19.0320   -6.6420    9.0460 O.3   601  GAL601     -0.2175
      9  O4        19.2240   -3.8290    9.0770 O.3   601  GAL601     -0.2176
     10  O5        22.1070   -3.8730    9.1400 O.3   601  GAL601     -0.3481
     11  O6        20.6670   -1.6930    8.0660 O.3   601  GAL601     -0.2176
@<TRIPOS>BOND
     1     6     5    1
     2     6    11    1
     3     5     4    1
     4     5    10    1
     5     4     3    1
     6     4     9    1
     7     3     8    1
     8     3     2    1
     9    10     1    1
    10     1     2    1
    11     2     7    1
