@<TRIPOS>MOLECULE
2osx_BGC_A_1.pdb
 11 11 0 0 0
SMALL
GASTEIGER

@<TRIPOS>ATOM
      1  C2        26.2450   -2.9520   11.0260 C.3   602  BGC602      0.2141
      2  C3        24.8460   -3.3480   11.4850 C.3   602  BGC602      0.2173
      3  C4        24.4350   -4.5220   10.6260 C.3   602  BGC602      0.2142
      4  C5        25.4010   -5.6700   10.9190 C.3   602  BGC602      0.1810
      5  C6        25.0340   -7.0210   10.2970 C.3   602  BGC602      0.2141
      6  C1        27.2070   -4.1400   10.9980 C.3   602  BGC602      0.1777
      7  O2        26.7460   -1.9420   11.8760 O.3   602  BGC602     -0.2176
      8  O3        23.9290   -2.2510   11.3780 O.3   602  BGC602     -0.2175
      9  O4        23.0910   -4.8630   10.9080 O.3   602  BGC602     -0.2176
     10  O5        26.6610   -5.2850   10.3940 O.3   602  BGC602     -0.3481
     11  O6        25.0920   -6.9810    8.8720 O.3   602  BGC602     -0.2176
@<TRIPOS>BOND
     1    11     5    1
     2     5     4    1
     3    10     4    1
     4    10     6    1
     5     3     9    1
     6     3     4    1
     7     3     2    1
     8     6     1    1
     9     1     2    1
    10     1     7    1
    11     8     2    1
