@<TRIPOS>MOLECULE
2osy_GAL_A_1.pdb
 11 11 0 0 0
SMALL
GASTEIGER

@<TRIPOS>ATOM
      1  C1        28.2630   59.2400  -26.6700 C.3   601  GAL601      0.1777
      2  C2        29.1220   60.2200  -25.8570 C.3   601  GAL601      0.2141
      3  C3        30.6050   60.0960  -26.1960 C.3   601  GAL601      0.2173
      4  C4        31.0010   58.6210  -26.1350 C.3   601  GAL601      0.2142
      5  C5        30.0810   57.8320  -27.0750 C.3   601  GAL601      0.1810
      6  C6        30.4760   56.3860  -27.2510 C.3   601  GAL601      0.2141
      7  O2        28.6600   61.5670  -25.9140 O.3   601  GAL601     -0.2176
      8  O3        31.3790   60.8280  -25.2420 O.3   601  GAL601     -0.2175
      9  O4        30.9430   58.2100  -24.7870 O.3   601  GAL601     -0.2176
     10  O5        28.7700   57.9120  -26.5930 O.3   601  GAL601     -0.3481
     11  O6        30.2920   55.7050  -26.0440 O.3   601  GAL601     -0.2176
@<TRIPOS>BOND
     1     6     5    1
     2     6    11    1
     3     5    10    1
     4     5     4    1
     5     1    10    1
     6     1     2    1
     7     3     4    1
     8     3     2    1
     9     3     8    1
    10     4     9    1
    11     7     2    1
