@<TRIPOS>MOLECULE
2osy_GLC_A_1.pdb
 11 11 0 0 0
SMALL
GASTEIGER

@<TRIPOS>ATOM
      1  C1        23.2820   58.3540  -28.0500 C.3   600  GLC600      0.1777
      2  C2        23.9810   57.2830  -27.1830 C.3   600  GLC600      0.2141
      3  C3        25.0360   57.8810  -26.2380 C.3   600  GLC600      0.2173
      4  C4        25.9200   58.8340  -27.0430 C.3   600  GLC600      0.2142
      5  C5        25.0410   59.9640  -27.6200 C.3   600  GLC600      0.1810
      6  C6        25.7650   61.0740  -28.3680 C.3   600  GLC600      0.2141
      7  O2        23.0620   56.4790  -26.4470 O.3   600  GLC600     -0.2176
      8  O3        25.8180   56.8300  -25.6710 O.3   600  GLC600     -0.2175
      9  O4        26.9240   59.3060  -26.1600 O.3   600  GLC600     -0.2176
     10  O5        24.1130   59.4260  -28.5470 O.3   600  GLC600     -0.3481
     11  O6        26.3730   60.5830  -29.5360 O.3   600  GLC600     -0.2176
@<TRIPOS>BOND
     1    11     6    1
     2    10     1    1
     3    10     5    1
     4     6     5    1
     5     1     2    1
     6     5     4    1
     7     2     7    1
     8     2     3    1
     9     4     3    1
    10     4     9    1
    11     3     8    1
