@<TRIPOS>MOLECULE
2ot0_III_E_1.pdb
 39 40 0 0 0
SMALL
GASTEIGER

@<TRIPOS>ATOM
      1  N        -50.3860  -36.5940   56.3550 N.3   498  ASP498     -0.1225
      2  CA       -50.1820  -36.5150   57.8330 C.3   498  ASP498      0.1805
      3  C        -48.7540  -36.1500   58.2100 C.2   498  ASP498      0.2598
      4  O        -47.8150  -36.4000   57.4550 O.2   498  ASP498     -0.2718
      5  CB       -50.5240  -37.8510   58.5030 C.3   498  ASP498      0.1424
      6  CG       -52.0070  -38.0170   58.7630 C.2   498  ASP498      0.3668
      7  OD1      -52.3780  -38.9850   59.4600 O.co2 498  ASP498     -0.2456
      8  OD2      -52.8040  -37.1870   58.2750 O.co2 498  ASP498     -0.2456
      9  N        -48.6040  -35.5620   59.3920 N.am  499  GLU499     -0.1965
     10  CA       -47.2950  -35.1840   59.9070 C.3   499  GLU499      0.1733
     11  C        -47.0800  -36.0120   61.1710 C.2   499  GLU499      0.2616
     12  O        -45.9780  -36.0600   61.7240 O.2   499  GLU499     -0.2715
     13  CB       -47.2600  -33.6950   60.2560 C.3   499  GLU499      0.0429
     14  CG       -47.8640  -32.7890   59.1950 C.3   499  GLU499      0.1163
     15  CD       -47.5780  -31.3170   59.4460 C.2   499  GLU499      0.3649
     16  OE1      -48.3290  -30.4700   58.9200 O.co2 499  GLU499     -0.2457
     17  OE2      -46.5970  -31.0030   60.1560 O.co2 499  GLU499     -0.2457
     18  N        -48.1560  -36.6610   61.6130 N.am  500  TRP500     -0.1960
     19  CA       -48.1370  -37.4970   62.8090 C.3   500  TRP500      0.1768
     20  C        -47.3170  -38.7780   62.6430 C.2   500  TRP500      0.2619
     21  O        -46.4810  -39.1040   63.4890 O.2   500  TRP500     -0.2715
     22  CB       -49.5710  -37.8530   63.2250 C.3   500  TRP500      0.0553
     23  CG       -50.2460  -36.7990   64.0640 C.2   500  TRP500     -0.0136
     24  CD1      -50.4270  -35.4830   63.7430 C.2   500  TRP500      0.0907
     25  CD2      -50.8160  -36.9740   65.3720 C.3   500  TRP500      0.0819
     26  NE1      -51.0710  -34.8270   64.7670 N.2   500  TRP500     -0.2482
     27  CE2      -51.3220  -35.7170   65.7790 C.2   500  TRP500      0.0665
     28  CE3      -50.9470  -38.0710   66.2390 C.2   500  TRP500     -0.0164
     29  CZ2      -51.9510  -35.5240   67.0180 C.2   500  TRP500      0.0153
     30  CZ3      -51.5720  -37.8800   67.4720 C.2   500  TRP500     -0.0038
     31  CH2      -52.0660  -36.6130   67.8490 C.2   500  TRP500      0.0009
     32  N        -47.5470  -39.5060   61.5560 N.am  501  ASP501     -0.1971
     33  CA       -46.8130  -40.7440   61.3390 C.3   501  ASP501      0.1709
     34  C        -45.7950  -40.6110   60.2100 C.2   501  ASP501      0.2293
     35  O        -44.7410  -39.9940   60.4810 O.2   501  ASP501     -0.2864
     36  CB       -47.7910  -41.8830   61.0450 C.3   501  ASP501      0.1436
     37  CG       -47.2430  -43.2370   61.4510 C.2   501  ASP501      0.3671
     38  OD1      -46.6710  -43.3390   62.5590 O.co2 501  ASP501     -0.2456
     39  OD2      -47.3940  -44.2020   60.6710 O.co2 501  ASP501     -0.2456
@<TRIPOS>BOND
     1     1     2    1
     2     4     3    2
     3     2     3    1
     4     2     5    1
     5     3     9   am
     6     8     6   ar
     7     5     6    1
     8     6     7   ar
     9    16    15   ar
    10    14    15    1
    11    14    13    1
    12     9    10    1
    13    15    17   ar
    14    10    13    1
    15    10    11    1
    16    34    35    2
    17    34    33    1
    18    39    37   ar
    19    36    33    1
    20    36    37    1
    21    11    18   am
    22    11    12    2
    23    33    32    1
    24    37    38   ar
    25    32    20   am
    26    18    19    1
    27    20    19    1
    28    20    21    2
    29    19    22    1
    30    22    23    1
    31    24    23    2
    32    24    26    1
    33    23    25    1
    34    26    27    2
    35    25    27    1
    36    25    28    1
    37    27    29    1
    38    28    30    2
    39    29    31    2
    40    30    31    1
