@<TRIPOS>MOLECULE
2ot1_N3P_A_1.pdb
 25 27 0 0 0
SMALL
GASTEIGER

@<TRIPOS>ATOM
      1  CAF       47.5660   38.8070   58.9000 C.ar  3001  N3P3001     0.0000
      2  CAG       47.7180   39.8330   59.8280 C.ar  3001  N3P3001     0.0000
      3  CAH       42.2150   47.6450   55.8350 C.ar  3001  N3P3001     0.0127
      4  CAI       42.7480   47.1460   53.4850 C.ar  3001  N3P3001     0.0127
      5  CAJ       42.9230   46.4980   56.2400 C.ar  3001  N3P3001     0.0175
      6  CAK       43.4560   45.9990   53.8890 C.ar  3001  N3P3001     0.0175
      7  CAL       46.8800   39.0400   57.7110 C.ar  3001  N3P3001     0.0001
      8  CAM       47.1820   41.0910   59.5710 C.ar  3001  N3P3001     0.0000
      9  CAN       45.6550   40.5310   56.2680 C.ar  3001  N3P3001     0.0376
     10  CAO       45.9590   42.5810   58.1220 C.ar  3001  N3P3001     0.0076
     11  CAR       44.6960   44.2380   56.7460 C.2   3001  N3P3001     0.2719
     12  CAS       42.1370   47.9530   54.4660 C.ar  3001  N3P3001     0.0578
     13  CAT       43.5390   45.6740   55.2670 C.ar  3001  N3P3001     0.0737
     14  CAU       45.1150   41.7900   56.0050 C.ar  3001  N3P3001     0.1534
     15  CAV       45.2670   42.8120   56.9330 C.ar  3001  N3P3001     0.0898
     16  CAW       46.3450   40.2990   57.4500 C.ar  3001  N3P3001     0.0030
     17  CAX       46.4970   41.3270   58.3830 C.ar  3001  N3P3001     0.0003
     18  NAP       44.2150   44.5400   55.5330 N.am  3001  N3P3001    -0.1754
     19  OAA       44.6990   45.0510   57.6900 O.2   3001  N3P3001    -0.2679
     20  OAB       43.0150   39.9850   55.0530 O.3   3001  N3P3001    -0.1039
     21  OAC       42.9550   41.3510   52.8880 O.2   3001  N3P3001    -0.2114
     22  OAD       45.0400   39.9430   53.4620 O.3   3001  N3P3001    -0.1039
     23  OAQ       44.5030   42.0690   54.8210 O.3   3001  N3P3001    -0.3996
     24 CLA        41.2500   49.3570   53.9730 Cl    3001  N3P3001    -0.0822
     25  PAY       43.8320   40.7850   54.1140 P.3   3001  N3P3001     0.5887
@<TRIPOS>BOND
     1    21    25    2
     2    22    25    1
     3     4     6   ar
     4     4    12   ar
     5     6    13   ar
     6    24    12    1
     7    25    23    1
     8    25    20    1
     9    12     3   ar
    10    23    14    1
    11    13    18    1
    12    13     5   ar
    13    18    11   am
    14     3     5   ar
    15    14     9   ar
    16    14    15   ar
    17     9    16   ar
    18    11    15    1
    19    11    19    2
    20    15    10   ar
    21    16     7   ar
    22    16    17   ar
    23     7     1   ar
    24    10    17   ar
    25    17     8   ar
    26     1     2   ar
    27     8     2   ar
