@<TRIPOS>MOLECULE
2ot7_OGA_A_1.pdb
 10 9 0 0 0
SMALL
GASTEIGER

@<TRIPOS>ATOM
      1  C1       -29.0710  -21.3390  -23.9570 C.2   500  OGA500      0.4419
      2  C2       -27.7220  -21.8720  -23.4390 C.2   500  OGA500      0.3455
      3  C4       -25.4080  -22.5040  -23.7390 C.3   500  OGA500      0.2290
      4  C5       -24.2470  -22.2060  -24.6930 C.2   500  OGA500      0.3866
      5  O1       -29.1810  -21.0270  -25.1750 O.co2 500  OGA500     -0.2354
      6  O2       -29.9930  -21.2470  -23.0750 O.co2 500  OGA500     -0.2354
      7  O2'      -27.6530  -22.1410  -22.2400 O.2   500  OGA500     -0.2611
      8  O3       -23.1600  -21.8870  -24.1710 O.co2 500  OGA500     -0.2437
      9  N1       -26.6860  -22.0060  -24.2440 N.am  500  OGA500     -0.1838
     10  O4       -24.4620  -22.3370  -25.9050 O.co2 500  OGA500     -0.2437
@<TRIPOS>BOND
     1    10     4   ar
     2     5     1   ar
     3     4     8   ar
     4     4     3    1
     5     9     3    1
     6     9     2   am
     7     1     2    1
     8     1     6   ar
     9     2     7    2
