@<TRIPOS>MOLECULE
2ot8_III_C_1.pdb
 26 25 0 0 0
SMALL
GASTEIGER

@<TRIPOS>ATOM
      1  N        100.4770  -35.9550   47.7160 N.3    51  GLU51      -0.1231
      2  CA       101.3150  -35.4690   46.5780 C.3    51  GLU51       0.1699
      3  C        100.5060  -34.5670   45.6280 C.2    51  GLU51       0.2592
      4  O        100.6310  -34.6550   44.4030 O.2    51  GLU51      -0.2718
      5  CB       101.9630  -36.6530   45.8350 C.3    51  GLU51       0.0402
      6  CG       102.9920  -37.4440   46.6700 C.3    51  GLU51       0.1161
      7  CD       103.7380  -38.5290   45.8790 C.2    51  GLU51       0.3649
      8  OE1      104.1490  -39.5380   46.4960 O.co2  51  GLU51      -0.2457
      9  OE2      103.9270  -38.3770   44.6530 O.co2  51  GLU51      -0.2457
     10  N         99.6770  -33.7040   46.2130 N.am   52  LYS52      -0.1966
     11  CA        98.9080  -32.7160   45.4540 C.3    52  LYS52       0.1728
     12  C         99.7690  -31.4940   45.1250 C.2    52  LYS52       0.2616
     13  O        100.7780  -31.2440   45.7930 O.2    52  LYS52      -0.2715
     14  CB        97.6500  -32.2830   46.2250 C.3    52  LYS52       0.0311
     15  CG        97.9070  -31.4120   47.4620 C.3    52  LYS52       0.0038
     16  CD        96.8170  -30.3550   47.6500 C.3    52  LYS52       0.0206
     17  CE        97.2880  -29.2230   48.5650 C.3    52  LYS52       0.1093
     18  NZ        96.4380  -27.9990   48.4770 N.3    52  LYS52      -0.1314
     19  N         99.3680  -30.7430   44.0960 N.am   53  ASN53      -0.1972
     20  CA       100.0410  -29.4900   43.7060 C.3    53  ASN53       0.1688
     21  C         99.1420  -28.5740   42.8780 C.2    53  ASN53       0.2292
     22  O         98.4460  -27.7150   43.4180 O.2    53  ASN53      -0.2864
     23  CB       101.3720  -29.7560   42.9730 C.3    53  ASN53       0.1181
     24  CG       101.1850  -30.3530   41.5790 C.2    53  ASN53       0.2629
     25  OD1      101.7300  -29.8420   40.6000 O.2    53  ASN53      -0.2716
     26  ND2      100.4290  -31.4430   41.4870 N.am   53  ASN53      -0.0877
@<TRIPOS>BOND
     1    25    24    2
     2    26    24   am
     3    24    23    1
     4    21    22    2
     5    21    20    1
     6    23    20    1
     7    20    19    1
     8    19    12   am
     9     4     3    2
    10     9     7   ar
    11    12    11    1
    12    12    13    2
    13    11    10    1
    14    11    14    1
    15     3    10   am
    16     3     2    1
    17     5     2    1
    18     5     6    1
    19     7     8   ar
    20     7     6    1
    21    14    15    1
    22     2     1    1
    23    15    16    1
    24    16    17    1
    25    18    17    1
