@<TRIPOS>MOLECULE
2otc_PAO_A_1.pdb
 16 15 0 0 0
SMALL
GASTEIGER

@<TRIPOS>ATOM
      1  N         39.9500   40.3470   36.4410 N.3   334  PAO334     -0.1208
      2  CA        39.0520   40.3920   37.5800 C.3   334  PAO334      0.1944
      3  CB        38.8730   41.8560   38.0220 C.3   334  PAO334      0.0324
      4  CG        37.9990   42.0650   39.2550 C.3   334  PAO334      0.0255
      5  CD        37.7600   43.5400   39.5330 C.3   334  PAO334      0.1152
      6  NE        37.2190   43.7310   40.8650 N.am  334  PAO334     -0.2050
      7  C         37.7020   39.7640   37.2490 C.2   334  PAO334      0.3819
      8  O         37.2770   38.8990   38.0160 O.co2 334  PAO334     -0.2441
      9  OXT       37.0950   40.1240   36.2370 O.co2 334  PAO334     -0.2441
     10  C1        36.3380   44.6860   41.1450 C.2   334  PAO334      0.2488
     11  O1        35.8920   45.4700   40.3060 O.2   334  PAO334     -0.2728
     12  C1P       35.9230   44.7250   42.6020 C.3   334  PAO334      0.1454
     13  P         34.2000   44.2320   42.7430 P.3   334  PAO334      0.1264
     14  O1P       33.9830   42.8050   42.0520 O.3   334  PAO334     -0.3568
     15  O2P       33.2800   45.3170   42.0360 O.2   334  PAO334     -0.4596
     16  O3P       33.7490   44.1240   44.2780 O.3   334  PAO334     -0.3568
@<TRIPOS>BOND
     1     9     7   ar
     2     1     2    1
     3     7     2    1
     4     7     8   ar
     5     2     3    1
     6     3     4    1
     7     4     5    1
     8     5     6    1
     9    11    10    2
    10     6    10   am
    11    10    12    1
    12    15    13    2
    13    14    13    1
    14    12    13    1
    15    13    16    1
