@<TRIPOS>MOLECULE
2otf_2TN_A_1.pdb
 19 19 0 0 0
SMALL
GASTEIGER

@<TRIPOS>ATOM
      1  O1         9.8730   23.9990   -5.0700 O.2   201  2TN201     -0.2713
      2  C11        8.6740   23.7190   -5.3490 C.2   201  2TN201      0.2652
      3  N2         7.9000   22.8760   -4.6400 N.am  201  2TN201     -0.0875
      4  C10        7.9340   24.3210   -6.5560 C.3   201  2TN201      0.1148
      5  C7         7.0580   23.3590   -7.3910 C.ar  201  2TN201     -0.0128
      6  C8         7.5760   22.6650   -8.5320 C.ar  201  2TN201     -0.0007
      7  C9         6.7610   21.7680   -9.2970 C.ar  201  2TN201      0.0366
      8  C4         5.3930   21.5540   -8.9180 C.ar  201  2TN201      0.1387
      9  C5         4.8760   22.2360   -7.7970 C.ar  201  2TN201      0.0366
     10  C6         5.6950   23.1290   -7.0420 C.ar  201  2TN201     -0.0007
     11  O2         4.5640   20.6970   -9.6170 O.3   201  2TN201     -0.4727
     12  C1         4.7380   19.2560   -9.5220 C.3   201  2TN201      0.2395
     13  C2         4.8460   18.5750  -10.8940 C.3   201  2TN201      0.2126
     14  O3         5.8070   19.2460  -11.7370 O.3   201  2TN201     -0.2176
     15  C3         3.4680   18.5450  -11.5690 C.3   201  2TN201      0.1253
     16  N1         3.1630   17.1710  -11.9660 N.3   201  2TN201     -0.2167
     17  C12        2.0030   16.4750  -11.4300 C.3   201  2TN201      0.0730
     18  C14        2.4830   15.2140  -10.7070 C.3   201  2TN201      0.0188
     19  C13        1.0210   16.1110  -12.5520 C.3   201  2TN201      0.0188
@<TRIPOS>BOND
     1    19    17    1
     2    16    15    1
     3    16    17    1
     4    14    13    1
     5    15    13    1
     6    17    18    1
     7    13    12    1
     8    11    12    1
     9    11     8    1
    10     7     8   ar
    11     7     6   ar
    12     8     9   ar
    13     6     5   ar
    14     9    10   ar
    15     5    10   ar
    16     5     4    1
    17     4     2    1
    18     2     1    2
    19     2     3   am
