@<TRIPOS>MOLECULE
2otg_ADP_A_1.pdb
 27 29 0 0 0
SMALL
GASTEIGER

@<TRIPOS>ATOM
      1  PB       -10.3850   -6.7340   21.9020 P.3   999  ADP999      0.5373
      2  O1B       -9.4780   -7.7140   21.1560 O.2   999  ADP999     -0.2221
      3  O2B      -10.2420   -6.7370   23.5400 O.3   999  ADP999     -0.1143
      4  O3B      -12.1020   -6.9540   21.7240 O.3   999  ADP999     -0.1143
      5  PA        -9.9800   -5.4670   19.7030 P.3   999  ADP999      0.2231
      6  O1A      -11.3170   -5.5010   18.9680 O.3   999  ADP999     -0.4370
      7  O2A       -8.5240   -5.3010   18.8760 O.2   999  ADP999     -0.5169
      8  O3A      -10.0700   -5.2730   21.3290 O.3   999  ADP999     -0.2261
      9  O5'       -9.9180   -3.8020   19.8710 O.3   999  ADP999     -0.3111
     10  C5'       -9.7990   -3.0490   18.6590 C.3   999  ADP999      0.1813
     11  C4'       -9.8450   -1.5310   19.0310 C.3   999  ADP999      0.1821
     12  O4'       -8.7660   -1.1300   19.9900 O.3   999  ADP999     -0.3135
     13  C3'       -9.7330   -0.6060   17.7250 C.3   999  ADP999      0.2184
     14  O3'      -10.9460    0.2170   17.5080 O.3   999  ADP999     -0.2174
     15  C2'       -8.4340    0.2810   17.9380 C.3   999  ADP999      0.2570
     16  O2'       -8.7120    1.7080   17.8870 O.3   999  ADP999     -0.2130
     17  C1'       -7.8280   -0.1300   19.3220 C.3   999  ADP999      0.3186
     18  N9        -6.4180   -0.7070   19.1910 N.pl3 999  ADP999     -0.1439
     19  C8        -6.0020   -1.8980   19.7990 C.3   999  ADP999      0.3377
     20  N7        -4.7710   -2.1740   19.5430 N.2   999  ADP999     -0.2095
     21  C5        -4.2750   -1.2300   18.7130 C.2   999  ADP999      0.2526
     22  C6        -2.9780   -1.0450   18.1550 C.2   999  ADP999      0.4393
     23  N6        -1.9910   -2.0190   18.4100 N.pl3 999  ADP999      0.2180
     24  N1        -2.7490    0.0640   17.3240 N.2   999  ADP999      0.0021
     25  C2        -3.7620    0.9970   17.0810 C.3   999  ADP999      0.5254
     26  N3        -5.0320    0.8540   17.6360 N.2   999  ADP999     -0.0055
     27  C4        -5.3190   -0.2430   18.4420 C.2   999  ADP999      0.3518
@<TRIPOS>BOND
     1    25    24    1
     2    25    26    1
     3    24    22    2
     4    14    13    1
     5    26    27    2
     6    13    15    1
     7    13    11    1
     8    16    15    1
     9    15    17    1
    10    22    23    1
    11    22    21    1
    12    27    21    1
    13    27    18    1
    14    10    11    1
    15    10     9    1
    16    21    20    2
    17     7     5    2
    18     6     5    1
    19    11    12    1
    20    18    17    1
    21    18    19    1
    22    17    12    1
    23    20    19    1
    24     5     9    1
    25     5     8    1
    26     2     1    2
    27     8     1    1
    28     4     1    1
    29     1     3    1
