@<TRIPOS>MOLECULE
2oth_NIM_A_1.pdb
 21 22 0 0 0
SMALL
GASTEIGER

@<TRIPOS>ATOM
      1  O4        34.3490    4.1010   -5.4270 O.2   300  NIM300     -0.1261
      2  N2        33.0960    4.3020   -5.7240 N.pl3 300  NIM300      0.0578
      3  O3        32.3090    4.1680   -4.6920 O.2   300  NIM300     -0.1261
      4  C5        32.7040    4.6530   -7.1570 C.ar  300  NIM300      0.1460
      5  C4        31.3040    4.8920   -7.5370 C.ar  300  NIM300      0.0257
      6  C3        30.7980    5.2730   -9.0060 C.ar  300  NIM300      0.0228
      7  C2        31.8230    5.3680   -9.9610 C.ar  300  NIM300      0.1251
      8  N1        31.6780    5.6930  -11.3160 N.pl3 300  NIM300     -0.0975
      9  S1        30.8470    7.1920  -11.7380 S.O2  300  NIM300      0.0751
     10  O1        29.5350    7.2060  -10.8500 O.2   300  NIM300     -0.1528
     11  O2        30.6510    7.6010  -13.3980 O.2   300  NIM300     -0.1528
     12  C1        31.9580    8.1780  -10.6630 C.3   300  NIM300      0.2016
     13  C6        33.6920    4.7700   -8.2180 C.ar  300  NIM300      0.0629
     14  C7        33.2800    5.1170   -9.5810 C.ar  300  NIM300      0.1635
     15  O5        34.1820    5.2670  -10.7510 O.3   300  NIM300     -0.4521
     16  C8        35.4620    4.5890  -10.8100 C.ar  300  NIM300      0.1454
     17  C13       35.5730    3.1690  -11.2840 C.ar  300  NIM300      0.0375
     18  C12       36.8690    2.4790  -11.3360 C.ar  300  NIM300      0.0031
     19  C11       38.0760    3.2090  -10.9120 C.ar  300  NIM300      0.0002
     20  C10       37.9770    4.6580  -10.4340 C.ar  300  NIM300      0.0031
     21  C9        36.6630    5.3200  -10.3930 C.ar  300  NIM300      0.0375
@<TRIPOS>BOND
     1    11     9    2
     2     9     8    1
     3     9    10    2
     4     9    12    1
     5    18    17   ar
     6    18    19   ar
     7     8     7    1
     8    17    16   ar
     9    19    20   ar
    10    16    15    1
    11    16    21   ar
    12    15    14    1
    13    20    21   ar
    14     7    14   ar
    15     7     6   ar
    16    14    13   ar
    17     6     5   ar
    18    13     4   ar
    19     5     4   ar
    20     4     2    1
    21     2     1    2
    22     2     3    2
