@<TRIPOS>MOLECULE
2oth_IMN_A_1.pdb
 25 27 0 0 0
SMALL
GASTEIGER

@<TRIPOS>ATOM
      1  C         26.0590   16.3190  -10.0740 C.ar  301  IMN301      0.0664
      2  C1        26.0650   15.0110   -9.2610 C.ar  301  IMN301      0.0169
      3  C2        24.9490   14.4810   -8.5260 C.ar  301  IMN301      0.0381
      4  C3        23.6890   15.2210   -8.5100 C.ar  301  IMN301      0.1388
      5  C4        23.6090   16.5150   -9.2830 C.ar  301  IMN301      0.0384
      6  C5        24.7800   17.0560  -10.0480 C.ar  301  IMN301      0.0207
      7  C6        21.4590   15.3150   -7.0750 C.3   301  IMN301      0.2525
      8  C7        27.4250   14.4090   -9.4040 C.ar  301  IMN301      0.0027
      9  C8        28.2560   15.3520  -10.2910 C.ar  301  IMN301      0.0411
     10  C9        27.8940   17.6220  -11.5570 C.2   301  IMN301      0.2644
     11  C10       27.2280   18.9900  -12.1650 C.ar  301  IMN301      0.0565
     12  C11       28.1260   19.7390  -12.9500 C.ar  301  IMN301      0.0056
     13  C12       27.7810   20.9570  -13.5790 C.ar  301  IMN301      0.0115
     14  C13       26.5040   21.6310  -13.5230 C.ar  301  IMN301      0.0577
     15  C14       25.5160   20.8900  -12.7060 C.ar  301  IMN301      0.0115
     16  C15       25.8620   19.5930  -12.0290 C.ar  301  IMN301      0.0056
     17  C16       29.7010   15.1110  -10.6780 C.3   301  IMN301      0.0501
     18  C17       27.5780   13.1660   -8.7040 C.3   301  IMN301      0.1415
     19  C18       27.7770   11.6600   -9.3140 C.2   301  IMN301      0.3693
     20  N         27.3720   16.4640  -10.6480 N.ar  301  IMN301     -0.2785
     21  O         22.6000   14.6660   -7.7640 O.3   301  IMN301     -0.4714
     22  O1        29.1370   17.5070  -11.9490 O.2   301  IMN301     -0.2666
     23  O2        28.0810   11.3340  -10.5470 O.co2 301  IMN301     -0.2453
     24  O3        27.5520   10.6420   -8.2880 O.co2 301  IMN301     -0.2453
     25 CL         26.3040   23.2750  -14.4670 Cl    301  IMN301     -0.0822
@<TRIPOS>BOND
     1    25    14    1
     2    13    14   ar
     3    13    12   ar
     4    14    15   ar
     5    12    11   ar
     6    15    16   ar
     7    11    16   ar
     8    11    10    1
     9    22    10    2
    10    10    20   am
    11    17     9    1
    12    20     9   ar
    13    20     1   ar
    14    23    19   ar
    15     9     8   ar
    16     1     6   ar
    17     1     2   ar
    18     6     5   ar
    19     8     2   ar
    20     8    18    1
    21    19    18    1
    22    19    24   ar
    23     5     4   ar
    24     2     3   ar
    25     3     4   ar
    26     4    21    1
    27    21     7    1
