@<TRIPOS>MOLECULE
2ou3_I3A_A_1.pdb
 11 12 0 0 0
SMALL
GASTEIGER

@<TRIPOS>ATOM
      1  O         21.0290   52.4360   26.1080 O.2   163  I3A163     -0.2834
      2  C3'       20.8570   52.0330   24.9600 C.2   163  I3A163      0.2321
      3  C3        21.2060   52.9540   23.8510 C.2   163  I3A163      0.0484
      4  C2        21.1290   52.6200   22.5260 C.2   163  I3A163      0.0981
      5  N         21.5530   53.7090   21.7990 N.2   163  I3A163     -0.2477
      6  C8        21.9000   54.7350   22.6030 C.2   163  I3A163      0.0669
      7  C9        21.7070   54.3240   24.0000 C.3   163  I3A163      0.0891
      8  C4        22.0280   55.1850   25.0610 C.2   163  I3A163     -0.0160
      9  C5        22.4890   56.4450   24.7630 C.2   163  I3A163     -0.0038
     10  C6        22.6880   56.8600   23.4360 C.2   163  I3A163      0.0009
     11  C7        22.3980   56.0050   22.3840 C.2   163  I3A163      0.0153
@<TRIPOS>BOND
     1     5     4    1
     2     5     6    2
     3    11     6    1
     4    11    10    2
     5     4     3    2
     6     6     7    1
     7    10     9    1
     8     3     7    1
     9     3     2    1
    10     7     8    1
    11     9     8    2
    12     2     1    2
