@<TRIPOS>MOLECULE
2ou5_FMN_A_1.pdb
 31 33 0 0 0
SMALL
GASTEIGER

@<TRIPOS>ATOM
      1  N1        32.9530   41.5030   80.7570 N.2   300  FMN300     -0.2887
      2  C2        33.1280   42.8670   80.7610 C.1   300  FMN300      0.3669
      3  O2        34.1550   43.3890   81.2460 O.2   300  FMN300     -0.1744
      4  N3        32.1320   43.6530   80.2410 N.2   300  FMN300     -0.2300
      5  C4        30.9740   43.0960   79.7130 C.1   300  FMN300      0.2513
      6  O4        30.3710   43.7770   78.9010 O.2   300  FMN300     -0.2057
      7  C4A       30.8010   41.7000   79.7060 C.2   300  FMN300      0.2706
      8  N5        29.6660   41.0950   79.1860 N.2   300  FMN300     -0.3841
      9  C5A       29.5630   39.7120   79.1680 C.2   300  FMN300      0.1452
     10  C6        28.4430   39.1070   78.6390 C.2   300  FMN300      0.0252
     11  C7        28.3070   37.7210   78.6120 C.2   300  FMN300     -0.0375
     12  C7M       27.1140   37.1200   77.9030 C.3   300  FMN300      0.0268
     13  C8        29.3330   36.9030   79.0920 C.3   300  FMN300      0.0417
     14  C8M       29.5220   35.5680   78.4140 C.3   300  FMN300      0.0091
     15  C9        30.4710   37.5120   79.6340 C.2   300  FMN300     -0.0049
     16  C9A       30.5820   38.9050   79.6780 C.2   300  FMN300      0.0795
     17  N10       31.6980   39.5230   80.2290 N.pl3 300  FMN300     -0.2545
     18  C10       31.8200   40.9040   80.2160 C.2   300  FMN300      0.2449
     19  C1'       32.6990   38.7630   81.0700 C.3   300  FMN300      0.1336
     20  C2'       34.0030   38.7060   80.2480 C.3   300  FMN300      0.2048
     21  O2'       33.7280   37.9000   79.1410 O.3   300  FMN300     -0.2185
     22  C3'       35.2480   38.2220   81.0340 C.3   300  FMN300      0.2165
     23  O3'       35.0060   37.0150   81.7930 O.3   300  FMN300     -0.2175
     24  C4'       35.7410   39.3360   81.9550 C.3   300  FMN300      0.2147
     25  O4'       35.4090   40.6290   81.4750 O.3   300  FMN300     -0.2176
     26  C5'       37.2500   39.2070   82.0750 C.3   300  FMN300      0.1892
     27  O5'       37.9560   39.3710   80.8240 O.3   300  FMN300     -0.2674
     28  P         39.4990   39.5990   81.0550 P.3   300  FMN300      0.5327
     29  O1P       39.5710   41.0330   81.4850 O.3   300  FMN300     -0.1145
     30  O2P       39.8210   38.5570   82.0820 O.3   300  FMN300     -0.1145
     31  O3P       40.2800   39.4270   79.8310 O.2   300  FMN300     -0.2224
@<TRIPOS>BOND
     1    12    11    1
     2    14    13    1
     3    11    10    2
     4    11    13    1
     5    10     9    1
     6     6     5    2
     7    13    15    1
     8    21    20    1
     9     9     8    2
    10     9    16    1
    11     8     7    2
    12    15    16    2
    13    16    17    1
    14     7     5    1
    15     7    18    1
    16     5     4    2
    17    31    28    2
    18    18    17    1
    19    18     1    2
    20    17    19    1
    21     4     2    2
    22    20    22    1
    23    20    19    1
    24     1     2    2
    25     2     3    2
    26    27    28    1
    27    27    26    1
    28    22    23    1
    29    22    24    1
    30    28    29    1
    31    28    30    1
    32    25    24    1
    33    24    26    1
