@<TRIPOS>MOLECULE
2ou7_ANP_A_1.pdb
 31 33 0 0 0
SMALL
GASTEIGER

@<TRIPOS>ATOM
      1  PG        34.6610    9.7590   31.5500 P.3   500  ANP500      0.4884
      2  O1G       34.6590    8.8020   32.7690 O.3   500  ANP500     -0.1240
      3  O2G       35.4860    9.2370   30.3500 O.2   500  ANP500     -0.2331
      4  O3G       33.4210   10.6710   31.2980 O.3   500  ANP500     -0.1240
      5  PB        37.3470    9.9330   32.7700 P.3   500  ANP500      0.4669
      6  O1B       37.2920    8.3690   32.9030 O.3   500  ANP500     -0.1253
      7  O2B       38.1580   10.5750   31.5850 O.2   500  ANP500     -0.2351
      8  N3B       35.9080   10.6850   32.1970 N.3   500  ANP500     -0.0163
      9  PA        39.6110   10.3650   34.1580 P.3   500  ANP500      0.2220
     10  O1A       40.2220   11.6120   33.4360 O.2   500  ANP500     -0.5170
     11  O2A       39.9740    8.9460   33.6300 O.3   500  ANP500     -0.4370
     12  O3A       38.0160   10.6220   34.0650 O.3   500  ANP500     -0.2360
     13  O5'       40.1120   10.4900   35.6750 O.3   500  ANP500     -0.3111
     14  C5'       41.4730   10.8900   35.8590 C.3   500  ANP500      0.1813
     15  C4'       42.2520   10.3360   37.0790 C.3   500  ANP500      0.1821
     16  O4'       43.1170   11.3920   37.5340 O.3   500  ANP500     -0.3135
     17  C3'       41.4480    9.8440   38.3200 C.3   500  ANP500      0.2184
     18  O3'       41.1780    8.4590   38.3930 O.3   500  ANP500     -0.2174
     19  C2'       42.3490   10.2710   39.4760 C.3   500  ANP500      0.2570
     20  O2'       43.4710    9.4130   39.6010 O.3   500  ANP500     -0.2130
     21  C1'       42.6480   11.6200   38.8440 C.3   500  ANP500      0.3186
     22  N9        42.4180   12.8970   39.5120 N.pl3 500  ANP500     -0.1439
     23  C8        41.5830   13.8960   39.0320 C.3   500  ANP500      0.3377
     24  N7        41.5170   14.9540   39.8000 N.2   500  ANP500     -0.2095
     25  C5        42.3680   14.6330   40.8520 C.2   500  ANP500      0.2526
     26  C6        42.7410   15.3420   42.0020 C.2   500  ANP500      0.4393
     27  N6        42.2580   16.5540   42.2420 N.pl3 500  ANP500      0.2180
     28  N1        43.6000   14.7800   42.8730 N.2   500  ANP500      0.0021
     29  C2        44.0780   13.5540   42.6210 C.3   500  ANP500      0.5254
     30  N3        43.8000   12.7780   41.5620 N.2   500  ANP500     -0.0055
     31  C4        42.9280   13.3820   40.7020 C.2   500  ANP500      0.3518
@<TRIPOS>BOND
     1     3     1    2
     2     4     1    1
     3     1     8    1
     4     1     2    1
     5     7     5    2
     6     8     5    1
     7     5     6    1
     8     5    12    1
     9    10     9    2
    10    11     9    1
    11    12     9    1
    12     9    13    1
    13    13    14    1
    14    14    15    1
    15    15    16    1
    16    15    17    1
    17    16    21    1
    18    17    18    1
    19    17    19    1
    20    21    19    1
    21    21    22    1
    22    23    22    1
    23    23    24    1
    24    19    20    1
    25    22    31    1
    26    24    25    2
    27    31    25    1
    28    31    30    2
    29    25    26    1
    30    30    29    1
    31    26    27    1
    32    26    28    2
    33    29    28    1
