@<TRIPOS>MOLECULE
2ou8_MTN_A_1.pdb
 12 12 0 0 0
SMALL
GASTEIGER

@<TRIPOS>ATOM
      1  O1        -5.2070   18.2490   97.2420 O.3   165  MTN165     -0.1175
      2  N1        -4.0860   18.6870   97.2460 N.4   165  MTN165     -0.1311
      3  C1        -3.3000   18.5650   98.5560 C.3   165  MTN165      0.0909
      4  C2        -1.9800   19.2130   98.1510 C.2   165  MTN165     -0.0160
      5  C3        -2.0860   19.6380   96.7300 C.2   165  MTN165     -0.0205
      6  C4        -0.8670   20.3200   96.1050 C.3   165  MTN165      0.0917
      7  S1        -0.7730   22.1070   96.3630 S.3   165  MTN165     -0.0773
      8  C5        -3.3990   19.3220   96.1340 C.3   165  MTN165      0.0886
      9  C6        -2.9330   18.4230   95.0120 C.3   165  MTN165      0.0227
     10  C7        -4.1430   20.5890   95.7860 C.3   165  MTN165      0.0227
     11  C8        -3.9140   19.4640   99.6690 C.3   165  MTN165      0.0230
     12  C9        -3.1360   17.0780   98.9940 C.3   165  MTN165      0.0230
@<TRIPOS>BOND
     1     9     8    1
     2    10     8    1
     3     6     7    1
     4     6     5    1
     5     8     5    1
     6     8     2    1
     7     5     4    2
     8     1     2    1
     9     2     3    1
    10     4     3    1
    11     3    12    1
    12     3    11    1
