@<TRIPOS>MOLECULE
2ou9_MTN_A_1.pdb
 12 12 0 0 0
SMALL
GASTEIGER

@<TRIPOS>ATOM
      1  O1        18.3690    6.5060   45.5400 O.3   200  MTN200     -0.1175
      2  N1        18.1350    7.3640   46.3500 N.4   200  MTN200     -0.1311
      3  C1        16.9730    8.3130   46.0360 C.3   200  MTN200      0.0909
      4  C2        17.0080    9.2150   47.2650 C.2   200  MTN200     -0.0160
      5  C3        18.1140    8.7570   48.1480 C.2   200  MTN200     -0.0205
      6  C4        18.3400    9.5230   49.4530 C.3   200  MTN200      0.0917
      7  S1        19.5430   10.8690   49.3520 S.3   200  MTN200     -0.0773
      8  C5        18.8410    7.5940   47.5990 C.3   200  MTN200      0.0886
      9  C6        18.5920    6.6140   48.7210 C.3   200  MTN200      0.0227
     10  C7        20.2670    7.9680   47.2670 C.3   200  MTN200      0.0227
     11  C8        17.2990    9.2170   44.8120 C.3   200  MTN200      0.0230
     12  C9        15.6250    7.5460   45.8860 C.3   200  MTN200      0.0230
@<TRIPOS>BOND
     1    11     3    1
     2     1     2    1
     3    12     3    1
     4     3     2    1
     5     3     4    1
     6     2     8    1
     7     4     5    2
     8    10     8    1
     9     8     5    1
    10     8     9    1
    11     5     6    1
    12     7     6    1
