@<TRIPOS>MOLECULE
2oua_AES_A_1.pdb
 12 12 0 0 0
SMALL
GASTEIGER

@<TRIPOS>ATOM
      1  C3        57.2530   76.7950  -97.3980 C.ar  9001  AES9001    -0.0029
      2  C2        57.7910   75.8680  -96.5090 C.ar  9001  AES9001     0.0178
      3  C1        58.1830   76.2720  -95.2350 C.ar  9001  AES9001     0.1034
      4  S         58.8130   75.1000  -94.0990 S.3   9001  AES9001     0.0045
      5  O1S       59.7290   75.7880  -93.1310 O.3   9001  AES9001    -0.0734
      6  O2S       57.6780   74.4740  -93.3440 O.3   9001  AES9001    -0.0734
      7  C6        58.0420   77.6040  -94.8550 C.ar  9001  AES9001     0.0178
      8  C5        57.5060   78.5290  -95.7440 C.ar  9001  AES9001    -0.0029
      9  C4        57.1090   78.1240  -97.0180 C.ar  9001  AES9001    -0.0206
     10  C7        56.5030   79.1360  -97.9940 C.3   9001  AES9001     0.0468
     11  C8        55.1830   79.7120  -97.4760 C.3   9001  AES9001     0.1140
     12  N8        54.2080   78.6300  -97.2750 N.3   9001  AES9001    -0.1310
@<TRIPOS>BOND
     1    10    11    1
     2    10     9    1
     3    11    12    1
     4     1     9   ar
     5     1     2   ar
     6     9     8   ar
     7     2     3   ar
     8     8     7   ar
     9     3     7   ar
    10     3     4    1
    11     4     6    1
    12     4     5    1
