@<TRIPOS>MOLECULE
2oub_2TN_A_1.pdb
 19 19 0 0 0
SMALL
GASTEIGER

@<TRIPOS>ATOM
      1  O1        -9.7010   24.2350    5.2820 O.3   134  2TN134     -0.2018
      2  C11       -8.9220   23.4440    5.8300 C.3   134  2TN134      0.2461
      3  N2        -7.7160   23.6120    5.2710 N.3   134  2TN134     -0.0964
      4  C10       -8.8970   23.4810    7.3240 C.3   134  2TN134      0.0791
      5  C7        -7.9330   22.6070    8.0140 C.ar  134  2TN134     -0.0179
      6  C8        -7.9520   22.6240    9.4150 C.ar  134  2TN134     -0.0010
      7  C9        -7.0990   21.8220   10.2020 C.ar  134  2TN134      0.0366
      8  C4        -6.1930   20.9370    9.6110 C.ar  134  2TN134      0.1387
      9  C5        -6.1450   20.9160    8.2440 C.ar  134  2TN134      0.0366
     10  C6        -6.9930   21.7040    7.4070 C.ar  134  2TN134     -0.0010
     11  O2        -5.4700   20.1870   10.3960 O.3   134  2TN134     -0.4727
     12  C1        -4.5250   19.1940   10.4370 C.3   134  2TN134      0.2395
     13  C2        -5.0960   18.0700   11.3450 C.3   134  2TN134      0.2126
     14  O3        -6.0210   18.7200   12.2920 O.3   134  2TN134     -0.2176
     15  C3        -4.1980   17.1320   12.0920 C.3   134  2TN134      0.1253
     16  N1        -3.3330   16.5250   11.1690 N.3   134  2TN134     -0.2167
     17  C12       -2.1900   15.8000   11.5860 C.3   134  2TN134      0.0730
     18  C14       -2.2400   14.4510   10.8060 C.3   134  2TN134      0.0188
     19  C13       -1.8720   15.6490   13.0750 C.3   134  2TN134      0.0188
@<TRIPOS>BOND
     1     3     2    1
     2     1     2    1
     3     2     4    1
     4     4     5    1
     5    10     5   ar
     6    10     9   ar
     7     5     6   ar
     8     9     8   ar
     9     6     7   ar
    10     8     7   ar
    11     8    11    1
    12    11    12    1
    13    12    13    1
    14    18    17    1
    15    16    17    1
    16    16    15    1
    17    13    15    1
    18    13    14    1
    19    17    19    1
