@<TRIPOS>MOLECULE
2oun_AMP_A_1.pdb
 23 25 0 0 0
SMALL
GASTEIGER

@<TRIPOS>ATOM
      1  P          9.0410    6.2590   45.7450 P.3   401  AMP401      0.5327
      2  O1P        8.9520    7.5490   46.4990 O.3   401  AMP401     -0.1145
      3  O2P       10.1310    6.2040   44.7210 O.2   401  AMP401     -0.2224
      4  O3P        8.9410    5.0360   46.6110 O.3   401  AMP401     -0.1145
      5  O5'        7.7070    6.2050   44.8720 O.3   401  AMP401     -0.2675
      6  C5'        6.6940    7.1850   45.0070 C.3   401  AMP401      0.1860
      7  C4'        6.7080    8.0860   43.8080 C.3   401  AMP401      0.1823
      8  O4'        5.4940    8.8630   43.7950 O.3   401  AMP401     -0.3135
      9  C3'        7.7980    9.1460   43.8210 C.3   401  AMP401      0.2184
     10  O3'        9.0350    8.6210   43.3450 O.3   401  AMP401     -0.2174
     11  C2'        7.2420   10.1770   42.8500 C.3   401  AMP401      0.2570
     12  O2'        7.5370    9.8350   41.5100 O.3   401  AMP401     -0.2130
     13  C1'        5.7350   10.0690   43.1070 C.3   401  AMP401      0.3186
     14  N9         5.1820   11.1620   43.8990 N.pl3 401  AMP401     -0.1439
     15  C8         5.0900   11.2870   45.2640 C.3   401  AMP401      0.3377
     16  N7         4.5110   12.3980   45.6530 N.2   401  AMP401     -0.2095
     17  C5         4.2090   13.0480   44.4640 C.2   401  AMP401      0.2526
     18  C6         3.5770   14.2750   44.1850 C.2   401  AMP401      0.4393
     19  N6         3.1140   15.0990   45.1270 N.pl3 401  AMP401      0.2180
     20  N1         3.4320   14.6280   42.8870 N.2   401  AMP401      0.0021
     21  C2         3.8920   13.7950   41.9380 C.3   401  AMP401      0.5254
     22  N3         4.4950   12.6160   42.0770 N.2   401  AMP401     -0.0055
     23  C4         4.6230   12.2980   43.3770 C.2   401  AMP401      0.3518
@<TRIPOS>BOND
     1    12    11    1
     2    21    22    1
     3    21    20    1
     4    22    23    2
     5    11    13    1
     6    11     9    1
     7    20    18    2
     8    13     8    1
     9    13    14    1
    10    10     9    1
    11    23    14    1
    12    23    17    1
    13     8     7    1
    14     7     9    1
    15     7     6    1
    16    14    15    1
    17    18    17    1
    18    18    19    1
    19    17    16    2
    20     3     1    2
    21     5     6    1
    22     5     1    1
    23    15    16    1
    24     1     2    1
    25     1     4    1
