@<TRIPOS>MOLECULE
2ouq_5GP_A_1.pdb
 24 26 0 0 0
SMALL
GASTEIGER

@<TRIPOS>ATOM
      1  P          8.7960    6.6210   46.2120 P.3   401  5GP401      0.5327
      2  O1P        8.6460    7.8850   46.9780 O.3   401  5GP401     -0.1145
      3  O2P       10.0180    6.6770   45.3640 O.2   401  5GP401     -0.2224
      4  O3P        8.8730    5.4550   47.1530 O.3   401  5GP401     -0.1145
      5  O5'        7.5280    6.4120   45.2700 O.3   401  5GP401     -0.2675
      6  C5'        6.4330    7.3150   45.2830 C.3   401  5GP401      0.1859
      7  C4'        6.6440    8.3470   44.2190 C.3   401  5GP401      0.1801
      8  O4'        5.4560    9.1430   44.0160 O.3   401  5GP401     -0.3326
      9  C3'        7.7110    9.3750   44.5400 C.3   401  5GP401      0.2158
     10  O3'        9.0090    8.8380   44.2980 O.3   401  5GP401     -0.2175
     11  C2'        7.3750   10.4850   43.5560 C.3   401  5GP401      0.2310
     12  O2'        7.9260   10.2100   42.2830 O.3   401  5GP401     -0.2158
     13  C1'        5.8420   10.4010   43.4970 C.3   401  5GP401      0.2293
     14  N9         5.1620   11.4430   44.2540 N.pl3 401  5GP401     -0.2354
     15  C8         5.0120   11.5240   45.6170 C.3   401  5GP401      0.2246
     16  N7         4.3590   12.5880   45.9970 N.2   401  5GP401     -0.2322
     17  C5         4.0590   13.2480   44.8110 C.2   401  5GP401      0.2182
     18  C6         3.3600   14.4610   44.5840 C.1   401  5GP401      0.2372
     19  O6         2.8420   15.2180   45.4130 O.2   401  5GP401     -0.2069
     20  N1         3.2830   14.7630   43.2260 N.2   401  5GP401     -0.2485
     21  C2         3.7980   13.9930   42.2140 C.1   401  5GP401      0.2531
     22  N2         3.6100   14.4490   40.9670 N.pl3 401  5GP401     -0.0226
     23  N3         4.4500   12.8580   42.4140 N.2   401  5GP401     -0.3074
     24  C4         4.5440   12.5510   43.7280 C.2   401  5GP401      0.2300
@<TRIPOS>BOND
     1    22    21    1
     2    21    23    2
     3    21    20    2
     4    12    11    1
     5    23    24    2
     6    20    18    2
     7    13    11    1
     8    13     8    1
     9    13    14    1
    10    11     9    1
    11    24    14    1
    12    24    17    1
    13     8     7    1
    14     7     9    1
    15     7     6    1
    16    14    15    1
    17    10     9    1
    18    18    17    1
    19    18    19    2
    20    17    16    2
    21     5     6    1
    22     5     1    1
    23     3     1    2
    24    15    16    1
    25     1     2    1
    26     1     4    1
