@<TRIPOS>MOLECULE
2our_CMP_A_1.pdb
 22 25 0 0 0
SMALL
GASTEIGER

@<TRIPOS>ATOM
      1  P          7.5730    8.3010   42.8740 P.3   778  CMP778      0.2141
      2  O1P        8.5440    7.2620   42.4290 O.2   778  CMP778     -0.5172
      3  O2P        7.8980    9.1680   44.0400 O.3   778  CMP778     -0.4373
      4  O5'        6.1710    7.5820   43.1750 O.3   778  CMP778     -0.3114
      5  C5'        4.9220    8.2790   43.0040 C.3   778  CMP778      0.1812
      6  C4'        4.9520    9.0110   41.6920 C.3   778  CMP778      0.1793
      7  O4'        3.7690    9.8100   41.4350 O.3   778  CMP778     -0.3136
      8  C3'        6.0590   10.0330   41.6990 C.3   778  CMP778      0.1884
      9  O3'        7.2500    9.2820   41.6440 O.3   778  CMP778     -0.3111
     10  C2'        5.6720   10.9060   40.5200 C.3   778  CMP778      0.2541
     11  O2'        5.9380   10.2790   39.2800 O.3   778  CMP778     -0.2131
     12  C1'        4.1550   10.9890   40.7340 C.3   778  CMP778      0.3185
     13  N9         3.7150   12.1450   41.5170 N.pl3 778  CMP778     -0.1439
     14  C8         3.1270   13.2920   41.0420 C.3   778  CMP778      0.3377
     15  N7         2.8040   14.1500   41.9790 N.2   778  CMP778     -0.2095
     16  C5         3.2130   13.5330   43.1510 C.2   778  CMP778      0.2526
     17  C6         3.1400   13.9250   44.4960 C.2   778  CMP778      0.4393
     18  N6         2.5990   15.0770   44.9040 N.pl3 778  CMP778      0.2180
     19  N1         3.6430   13.0820   45.4250 N.2   778  CMP778      0.0021
     20  C2         4.1770   11.9240   45.0160 C.3   778  CMP778      0.5254
     21  N3         4.2980   11.4400   43.7810 N.2   778  CMP778     -0.0055
     22  C4         3.7900   12.3030   42.8830 C.2   778  CMP778      0.3518
@<TRIPOS>BOND
     1    11    10    1
     2    10    12    1
     3    10     8    1
     4    12     7    1
     5    12    13    1
     6    14    13    1
     7    14    15    1
     8     7     6    1
     9    13    22    1
    10     9     8    1
    11     9     1    1
    12     6     8    1
    13     6     5    1
    14    15    16    2
    15     2     1    2
    16     1     4    1
    17     1     3    1
    18    22    16    1
    19    22    21    2
    20     5     4    1
    21    16    17    1
    22    21    20    1
    23    17    18    1
    24    17    19    2
    25    20    19    1
