@<TRIPOS>MOLECULE
2ouu_35G_A_1.pdb
 23 26 0 0 0
SMALL
GASTEIGER

@<TRIPOS>ATOM
      1  P          7.4900    9.4220   42.9720 P.3   778  35G778      0.2141
      2  O1P        7.8750    8.0950   43.5020 O.3   778  35G778     -0.4373
      3  O2P        7.4430    9.4070   41.4820 O.2   778  35G778     -0.5172
      4  O5'        8.5420   10.5260   43.4560 O.3   778  35G778     -0.3114
      5  C5'        8.1570   11.9060   43.5680 C.3   778  35G778      0.1812
      6  C4'        6.8460   11.9800   44.2960 C.3   778  35G778      0.1771
      7  O4'        6.3040   13.3190   44.4180 O.3   778  35G778     -0.3327
      8  C3'        5.7530   11.2680   43.5430 C.3   778  35G778      0.1857
      9  O3'        6.0680    9.8920   43.5730 O.3   778  35G778     -0.3112
     10  C2'        4.5170   11.7540   44.2810 C.3   778  35G778      0.2282
     11  O2'        4.3490   11.1200   45.5320 O.3   778  35G778     -0.2159
     12  C1'        4.8810   13.2280   44.4980 C.3   778  35G778      0.2292
     13  N9         4.2990   14.1340   43.5090 N.pl3 778  35G778     -0.2354
     14  C8         3.7420   15.3690   43.7440 C.3   778  35G778      0.2246
     15  N7         3.3120   15.9530   42.6560 N.2   778  35G778     -0.2322
     16  C5         3.5980   15.0450   41.6450 C.2   778  35G778      0.2182
     17  C6         3.3670   15.1240   40.2460 C.1   778  35G778      0.2372
     18  O6         2.8450   16.0440   39.6040 O.2   778  35G778     -0.2069
     19  N1         3.8140   13.9780   39.5860 N.2   778  35G778     -0.2485
     20  C2         4.4060   12.8930   40.1980 C.1   778  35G778      0.2531
     21  N2         4.7620   11.8730   39.4090 N.pl3 778  35G778     -0.0226
     22  N3         4.6290   12.8150   41.4970 N.2   778  35G778     -0.3074
     23  C4         4.2030   13.9170   42.1550 C.2   778  35G778      0.2300
@<TRIPOS>BOND
     1    21    20    1
     2    19    20    2
     3    19    17    2
     4    18    17    2
     5    20    22    2
     6    17    16    1
     7     3     1    2
     8    22    23    2
     9    16    23    1
    10    16    15    2
    11    23    13    1
    12    15    14    1
    13     1     4    1
    14     1     2    1
    15     1     9    1
    16     4     5    1
    17    13    14    1
    18    13    12    1
    19     8     9    1
    20     8    10    1
    21     8     6    1
    22     5     6    1
    23    10    12    1
    24    10    11    1
    25     6     7    1
    26     7    12    1
