@<TRIPOS>MOLECULE
2ouy_CMP_A_1.pdb
 22 25 0 0 0
SMALL
GASTEIGER

@<TRIPOS>ATOM
      1  P          7.9200    7.9120   43.6930 P.3   779  CMP779      0.2141
      2  O1P        8.6640    6.7740   43.0910 O.2   779  CMP779     -0.5172
      3  O2P        8.5430    8.6910   44.7920 O.3   779  CMP779     -0.4373
      4  O5'        6.4990    7.3730   44.2190 O.3   779  CMP779     -0.3114
      5  C5'        5.3130    8.1900   44.1580 C.3   779  CMP779      0.1812
      6  C4'        5.2710    8.8830   42.8280 C.3   779  CMP779      0.1793
      7  O4'        4.1320    9.7570   42.6440 O.3   779  CMP779     -0.3136
      8  C3'        6.4450    9.8140   42.6890 C.3   779  CMP779      0.1884
      9  O3'        7.5570    8.9570   42.5140 O.3   779  CMP779     -0.3111
     10  C2'        6.0190   10.6750   41.5070 C.3   779  CMP779      0.2541
     11  O2'        6.2150   10.0250   40.2680 O.3   779  CMP779     -0.2131
     12  C1'        4.5120   10.8180   41.7740 C.3   779  CMP779      0.3185
     13  N9         4.0880   12.0870   42.3750 N.pl3 779  CMP779     -0.1439
     14  C8         3.6030   13.2010   41.7330 C.3   779  CMP779      0.3377
     15  N7         3.2640   14.1760   42.5430 N.2   779  CMP779     -0.2095
     16  C5         3.5520   13.6700   43.8020 C.2   779  CMP779      0.2526
     17  C6         3.3940   14.2050   45.0870 C.2   779  CMP779      0.4393
     18  N6         2.8860   15.4150   45.3320 N.pl3 779  CMP779      0.2180
     19  N1         3.7820   13.4400   46.1310 N.2   779  CMP779      0.0021
     20  C2         4.2800   12.2210   45.8880 C.3   779  CMP779      0.5254
     21  N3         4.4660   11.6080   44.7280 N.2   779  CMP779     -0.0055
     22  C4         4.0750   12.3930   43.7120 C.2   779  CMP779      0.3518
@<TRIPOS>BOND
     1    11    10    1
     2    10    12    1
     3    10     8    1
     4    14    13    1
     5    14    15    1
     6    12    13    1
     7    12     7    1
     8    13    22    1
     9     9     8    1
    10     9     1    1
    11    15    16    2
    12     7     6    1
    13     8     6    1
    14     6     5    1
    15     2     1    2
    16     1     4    1
    17     1     3    1
    18    22    16    1
    19    22    21    2
    20    16    17    1
    21     5     4    1
    22    21    20    1
    23    17    18    1
    24    17    19    2
    25    20    19    1
