@<TRIPOS>MOLECULE
2ouz_C3D_A_1.pdb
 31 35 0 0 0
SMALL
GASTEIGER

@<TRIPOS>ATOM
      1  C1        30.6130   -1.2140   27.6360 C.3   999  C3D999      0.0483
      2  C2        31.1040    0.1650   28.2340 C.3   999  C3D999      0.0307
      3  C3        30.3180    1.3640   27.6310 C.3   999  C3D999      0.0097
      4  C4        28.8310    1.2770   27.9850 C.3   999  C3D999      0.0265
      5  C5        28.2720   -0.1070   27.6530 C.ar  999  C3D999     -0.0226
      6  C6        26.9130   -0.2040   27.4050 C.ar  999  C3D999      0.0375
      7  C7        26.3400   -1.4480   27.1030 C.ar  999  C3D999      0.1954
      8  C8        27.1210   -2.5800   27.0350 C.ar  999  C3D999      0.0417
      9  C9        28.4740   -2.4910   27.2900 C.ar  999  C3D999     -0.0010
     10  C10       29.0710   -1.2620   27.6020 C.ar  999  C3D999     -0.0219
     11  C11       32.6340    0.3000   28.1500 C.ar  999  C3D999     -0.0219
     12  C12       33.4360   -0.0900   29.1840 C.ar  999  C3D999     -0.0043
     13  C13       34.8240    0.0560   29.1090 C.ar  999  C3D999     -0.0003
     14  C14       35.4420    0.6200   28.0390 C.ar  999  C3D999     -0.0000
     15  C15       34.6430    1.0410   27.0100 C.ar  999  C3D999     -0.0003
     16  C16       33.2730    0.8840   27.0610 C.ar  999  C3D999     -0.0043
     17  C17       31.2430   -1.6190   26.2880 C.ar  999  C3D999     -0.0179
     18  C18       30.8560   -1.0220   25.1000 C.ar  999  C3D999     -0.0008
     19  C19       31.4020   -1.4080   23.9250 C.ar  999  C3D999      0.0366
     20  C20       32.4100   -2.3430   23.9080 C.ar  999  C3D999      0.1386
     21  C21       32.8220   -2.9300   25.1000 C.ar  999  C3D999      0.0366
     22  C22       32.2590   -2.5440   26.2920 C.ar  999  C3D999     -0.0008
     23  C24       33.5770   -3.8530   22.3690 C.3   999  C3D999      0.2226
     24  C25       33.9300   -3.8110   20.8910 C.3   999  C3D999      0.1200
     25  C27       33.2670   -4.5360   18.6110 C.3   999  C3D999      0.0722
     26  C28       32.4280   -3.7850   17.5600 C.3   999  C3D999      0.0188
     27  O7        24.9990   -1.5350   26.8360 O.3   999  C3D999     -0.2866
     28  O23       32.9650   -2.6410   22.6680 O.3   999  C3D999     -0.4740
     29  N26       32.8200   -4.1310   19.9780 N.3   999  C3D999     -0.2696
     30  C29       31.2350   -3.2320   18.3620 C.3   999  C3D999      0.0188
     31  C30       31.9510   -2.9520   19.7090 C.3   999  C3D999      0.0722
@<TRIPOS>BOND
     1    26    30    1
     2    26    25    1
     3    30    31    1
     4    25    29    1
     5    31    29    1
     6    29    24    1
     7    24    23    1
     8    23    28    1
     9    28    20    1
    10    20    19   ar
    11    20    21   ar
    12    19    18   ar
    13    21    22   ar
    14    18    17   ar
    15    17    22   ar
    16    17     1    1
    17    27     7    1
    18    15    16   ar
    19    15    14   ar
    20     8     7   ar
    21     8     9   ar
    22    16    11   ar
    23     7     6   ar
    24     9    10   ar
    25     6     5   ar
    26    10     1    1
    27    10     5   ar
    28     3     4    1
    29     3     2    1
    30     1     2    1
    31     5     4    1
    32    14    13   ar
    33    11     2    1
    34    11    12   ar
    35    13    12   ar
