@<TRIPOS>MOLECULE
2ov4_AQP_A_1.pdb
 35 37 0 0 0
SMALL
GASTEIGER

@<TRIPOS>ATOM
      1  N6        51.1460   29.0220   31.8380 N.pl3 400  AQP400      0.2180
      2  C6        52.2750   28.8580   32.4770 C.2   400  AQP400      0.4393
      3  N1        53.4120   29.6040   32.0730 N.2   400  AQP400      0.0021
      4  C2        54.6810   29.5440   32.6720 C.3   400  AQP400      0.5254
      5  N3        54.8530   28.6600   33.7150 N.2   400  AQP400     -0.0055
      6  C4        53.7570   27.8670   34.1650 C.2   400  AQP400      0.3518
      7  N9        53.6730   26.9270   35.1720 N.pl3 400  AQP400     -0.1439
      8  C8        52.3560   26.4780   35.2010 C.3   400  AQP400      0.3377
      9  N7        51.5810   27.0780   34.2510 N.2   400  AQP400     -0.2095
     10  C5        52.4660   27.9410   33.5980 C.2   400  AQP400      0.2526
     11  C1'       54.7930   26.4770   36.0620 C.3   400  AQP400      0.3186
     12  O4'       54.9120   25.1730   35.7410 O.3   400  AQP400     -0.3135
     13  C4'       55.2540   24.3270   36.8730 C.3   400  AQP400      0.1821
     14  C5'       54.5000   23.0840   36.8950 C.3   400  AQP400      0.1813
     15  O5'       53.1670   23.3990   37.3510 O.3   400  AQP400     -0.3112
     16  PA        52.1980   22.3360   37.8890 P.3   400  AQP400      0.2189
     17  O1A       51.6120   21.6220   36.7860 O.2   400  AQP400     -0.5170
     18  O2A       52.9140   21.5440   38.8630 O.3   400  AQP400     -0.4371
     19  O3A       51.0690   23.1410   38.5820 O.3   400  AQP400     -0.2701
     20  PB        50.0590   24.1580   37.9240 P.3   400  AQP400      0.2237
     21  O2B       50.4020   25.6320   38.1860 O.2   400  AQP400     -0.5168
     22  O1B       48.6960   23.9080   38.5220 O.3   400  AQP400     -0.4369
     23  O3B       50.2170   23.5890   36.4150 O.3   400  AQP400     -0.2698
     24  PG        49.3000   23.5010   35.1850 P.3   400  AQP400      0.2277
     25  O2G       50.0220   23.5710   33.8870 O.2   400  AQP400     -0.5168
     26  O1G       48.2900   24.5410   35.3320 O.3   400  AQP400     -0.4368
     27  O3G       48.6350   22.2100   35.3990 O.3   400  AQP400     -0.2258
     28  PD        47.2260   21.8180   36.1040 P.3   400  AQP400      0.5373
     29  O2D       47.1290   20.3560   36.2910 O.3   400  AQP400     -0.1143
     30  O1D       47.0860   22.4710   37.4390 O.3   400  AQP400     -0.1143
     31  O3D       46.0990   22.2620   35.2000 O.2   400  AQP400     -0.2221
     32  C3'       55.2190   25.2560   38.1090 C.3   400  AQP400      0.2184
     33  O3'       56.5050   25.5860   38.6200 O.3   400  AQP400     -0.2174
     34  C2'       54.3970   26.3810   37.5080 C.3   400  AQP400      0.2570
     35  O2'       54.2830   27.6080   38.1140 O.3   400  AQP400     -0.2130
@<TRIPOS>BOND
     1     1     2    1
     2     3     2    2
     3     3     4    1
     4     2    10    1
     5     4     5    1
     6    10     6    1
     7    10     9    2
     8     5     6    2
     9    25    24    2
    10     6     7    1
    11     9     8    1
    12     7     8    1
    13     7    11    1
    14    24    26    1
    15    24    27    1
    16    24    23    1
    17    31    28    2
    18    27    28    1
    19    12    11    1
    20    12    13    1
    21    11    34    1
    22    28    29    1
    23    28    30    1
    24    23    20    1
    25    17    16    2
    26    13    14    1
    27    13    32    1
    28    14    15    1
    29    15    16    1
    30    34    32    1
    31    34    35    1
    32    16    19    1
    33    16    18    1
    34    20    21    2
    35    20    22    1
    36    20    19    1
    37    32    33    1
