@<TRIPOS>MOLECULE
2ov5_BCN_A_1.pdb
 11 10 0 0 0
SMALL
GASTEIGER

@<TRIPOS>ATOM
      1  N1        58.0790  -24.0640   -1.8790 N.3   501  BCN501     -0.2587
      2  C1        58.3160  -22.6120   -1.8290 C.3   501  BCN501      0.1879
      3  C2        57.2140  -21.8290   -1.1070 C.2   501  BCN501      0.3809
      4  O21       56.0290  -22.0420   -1.4360 O.co2 501  BCN501     -0.2441
      5  O22       57.5910  -21.0030   -0.2470 O.co2 501  BCN501     -0.2441
      6  C3        57.1530  -24.5280   -0.8330 C.3   501  BCN501      0.1086
      7  C4        57.9230  -24.9000    0.4340 C.3   501  BCN501      0.1994
      8  O4        58.5750  -23.7400    0.9570 O.3   501  BCN501     -0.2189
      9  C5        57.5620  -24.4600   -3.1960 C.3   501  BCN501      0.1086
     10  C6        58.5390  -24.0550   -4.3040 C.3   501  BCN501      0.1994
     11  O6        59.8120  -24.6650   -4.0780 O.3   501  BCN501     -0.2189
@<TRIPOS>BOND
     1    10    11    1
     2    10     9    1
     3     9     1    1
     4     1     2    1
     5     1     6    1
     6     2     3    1
     7     4     3   ar
     8     3     5   ar
     9     6     7    1
    10     7     8    1
