@<TRIPOS>MOLECULE
2ovd_DAO_A_1.pdb
 14 13 0 0 0
SMALL
GASTEIGER

@<TRIPOS>ATOM
      1  O1        25.4710   29.3100   30.0330 O.co2 190  DAO190     -0.2457
      2  O2        27.2060   29.4960   28.7000 O.co2 190  DAO190     -0.2457
      3  C1        25.9780   29.3780   28.8930 C.2   190  DAO190      0.3649
      4  C2        25.0570   29.3250   27.6890 C.3   190  DAO190      0.1141
      5  C3        25.1430   30.5720   26.8310 C.3   190  DAO190      0.0118
      6  C4        24.1610   30.5200   25.6780 C.3   190  DAO190      0.0006
      7  C5        24.2520   31.7740   24.8340 C.3   190  DAO190      0.0000
      8  C6        23.1890   31.8110   23.7480 C.3   190  DAO190      0.0000
      9  C7        23.4080   30.7590   22.6690 C.3   190  DAO190      0.0000
     10  C8        22.5270   31.0740   21.4720 C.3   190  DAO190      0.0000
     11  C9        22.6890   30.0870   20.3340 C.3   190  DAO190      0.0000
     12  C10       21.9160   30.5760   19.1210 C.3   190  DAO190      0.0000
     13  C11       21.9160   29.5550   17.9950 C.3   190  DAO190      0.0000
     14  C12       21.1360   30.0700   16.8020 C.3   190  DAO190      0.0000
@<TRIPOS>BOND
     1    14    13    1
     2    13    12    1
     3    12    11    1
     4    11    10    1
     5    10     9    1
     6     9     8    1
     7     8     7    1
     8     7     6    1
     9     6     5    1
    10     5     4    1
    11     4     3    1
    12     2     3   ar
    13     3     1   ar
