@<TRIPOS>MOLECULE
2ovf_A3P_A_1.pdb
 27 29 0 0 0
SMALL
GASTEIGER

@<TRIPOS>ATOM
      1  P1        19.2410   77.9270   48.6660 P.3   300  A3P300      0.5327
      2  O1P       18.0720   78.5470   47.9040 O.2   300  A3P300     -0.2224
      3  O2P       20.6650   78.2400   48.1970 O.3   300  A3P300     -0.1145
      4  O3P       19.1110   78.0960   50.1780 O.3   300  A3P300     -0.1145
      5  P2        15.8890   71.7830   46.4160 P.3   300  A3P300      0.5327
      6  O4P       16.4660   71.6180   45.0290 O.2   300  A3P300     -0.2224
      7  O5P       16.1290   70.6400   47.3890 O.3   300  A3P300     -0.1145
      8  O6P       14.4790   72.3220   46.4990 O.3   300  A3P300     -0.1145
      9  O5'       16.7940   72.9100   47.1000 O.3   300  A3P300     -0.2675
     10  C5'       17.4980   73.8180   46.2890 C.3   300  A3P300      0.1859
     11  C4'       18.6340   74.3580   47.1120 C.3   300  A3P300      0.1796
     12  O4'       19.8560   73.9740   46.4810 O.3   300  A3P300     -0.3136
     13  C3'       18.5960   75.8590   47.0910 C.3   300  A3P300      0.1928
     14  O3'       19.0980   76.3310   48.3420 O.3   300  A3P300     -0.2673
     15  C2'       19.5420   76.1590   45.9450 C.3   300  A3P300      0.2543
     16  O2'       20.0900   77.4730   46.0210 O.3   300  A3P300     -0.2131
     17  C1'       20.6170   75.1040   46.0790 C.3   300  A3P300      0.3185
     18  N9        21.2270   74.8160   44.7680 N.pl3 300  A3P300     -0.1439
     19  C8        20.5730   74.8090   43.5820 C.3   300  A3P300      0.3377
     20  N7        21.4140   74.4900   42.5470 N.2   300  A3P300     -0.2095
     21  C5        22.6320   74.2950   43.0760 C.2   300  A3P300      0.2526
     22  C6        23.9560   73.9330   42.5350 C.2   300  A3P300      0.4393
     23  N6        24.1170   73.7270   41.1970 N.pl3 300  A3P300      0.2180
     24  N1        24.9690   73.7980   43.4270 N.2   300  A3P300      0.0021
     25  C2        24.7860   74.0120   44.7470 C.3   300  A3P300      0.5254
     26  N3        23.6110   74.3470   45.3090 N.2   300  A3P300     -0.0055
     27  C4        22.5080   74.5020   44.5390 C.2   300  A3P300      0.3518
@<TRIPOS>BOND
     1    23    22    1
     2    22    21    1
     3    22    24    2
     4    20    21    2
     5    20    19    1
     6    21    27    1
     7    24    25    1
     8    19    18    1
     9    27    18    1
    10    27    26    2
    11    25    26    1
    12    18    17    1
    13     6     5    2
    14    15    16    1
    15    15    17    1
    16    15    13    1
    17    17    12    1
    18    10     9    1
    19    10    11    1
    20     5     8    1
    21     5     9    1
    22     5     7    1
    23    12    11    1
    24    13    11    1
    25    13    14    1
    26     2     1    2
    27     3     1    1
    28    14     1    1
    29     1     4    1
