@<TRIPOS>MOLECULE
2ovh_AS0_A_1.pdb
 33 37 0 0 0
SMALL
GASTEIGER

@<TRIPOS>ATOM
      1  C1        30.0600   -5.2290   26.5090 C.3   301  AS0301      0.1742
      2  C3        28.1860   -3.8290   26.7850 C.3   301  AS0301      0.1692
      3  C4        27.4980   -2.4080   26.6940 C.3   301  AS0301      0.1199
      4  C5        27.7900   -1.7420   25.3170 C.3   301  AS0301      0.0297
      5  C6        28.8530   -0.5940   25.5690 C.3   301  AS0301      0.0029
      6  O2        29.5820   -3.8430   26.4560 O.3   301  AS0301     -0.3486
      7  C7        29.2020   -0.5850   27.0650 C.3   301  AS0301      0.0061
      8  C8        29.5970    0.7110   27.9050 C.3   301  AS0301      0.0190
      9  C9        30.9250    1.0870   27.1840 C.3   301  AS0301      0.0087
     10  C10       31.5750    2.3060   27.8810 C.3   301  AS0301      0.0268
     11  C11       31.9030    1.9950   29.3260 C.2   301  AS0301     -0.0196
     12  C12       32.9920    2.5700   29.9010 C.2   301  AS0301      0.0377
     13  C13       33.3940    2.2980   31.3280 C.2   301  AS0301      0.1954
     14  O14       34.3780    2.8470   31.8250 O.2   301  AS0301     -0.2866
     15  C15       32.5450    1.3100   32.1480 C.2   301  AS0301      0.0420
     16  C16       31.2770    0.7100   31.4730 C.2   301  AS0301      0.0024
     17  C17       30.9820    1.0420   30.0180 C.2   301  AS0301     -0.0114
     18  C18       29.8950    0.4380   29.4090 C.2   301  AS0301     -0.0411
     19  C19       28.9290   -0.5510   30.1320 C.3   301  AS0301      0.0406
     20  C20       28.3670   -1.7080   29.2110 C.3   301  AS0301      0.0107
     21  C21       28.0110   -1.3050   27.7130 C.3   301  AS0301      0.0261
     22  C22       26.8050   -0.3410   27.8610 C.3   301  AS0301      0.0024
     23  C23       27.7710    0.1820   30.9080 C.ar  301  AS0301     -0.0187
     24  C24       27.6390    1.6210   30.9000 C.ar  301  AS0301     -0.0039
     25  C25       26.6070    2.2600   31.6410 C.ar  301  AS0301      0.0013
     26  C26       25.6910    1.5070   32.3940 C.ar  301  AS0301      0.0226
     27  C27       24.6520    2.2220   33.1440 C.2   301  AS0301      0.1449
     28  N28       23.7560    1.5830   33.8560 N.2   301  AS0301     -0.0278
     29  O29       22.8070    2.3170   34.5610 O.2   301  AS0301     -0.1431
     30  C30       25.7850    0.0720   32.4190 C.ar  301  AS0301      0.0013
     31  C31       26.8220   -0.5840   31.6730 C.ar  301  AS0301     -0.0039
     32  O32       26.0520   -2.6180   26.9720 O.3   301  AS0301     -0.3534
     33  C33       25.6000   -3.9970   27.2970 C.3   301  AS0301      0.1740
@<TRIPOS>BOND
     1     4     5    1
     2     4     3    1
     3     5     7    1
     4     6     1    1
     5     6     2    1
     6     3     2    1
     7     3    32    1
     8     3    21    1
     9    32    33    1
    10     7    21    1
    11     7     8    1
    12     9    10    1
    13     9     8    1
    14    21    22    1
    15    21    20    1
    16    10    11    1
    17     8    18    1
    18    20    19    1
    19    11    12    2
    20    11    17    1
    21    18    17    2
    22    18    19    1
    23    12    13    1
    24    17    16    1
    25    19    23    1
    26    24    23   ar
    27    24    25   ar
    28    23    31   ar
    29    13    14    2
    30    13    15    1
    31    16    15    2
    32    25    26   ar
    33    31    30   ar
    34    26    30   ar
    35    26    27    1
    36    27    28    2
    37    28    29    1
