@<TRIPOS>MOLECULE
2ovm_AS0_A_1.pdb
 33 37 0 0 0
SMALL
GASTEIGER

@<TRIPOS>ATOM
      1  C1       -33.4180   47.6080   41.6690 C.3   101  AS0101      0.1742
      2  C3       -33.0600   49.9200   41.8900 C.3   101  AS0101      0.1692
      3  C4       -32.0560   51.0970   41.7890 C.3   101  AS0101      0.1199
      4  C5       -31.3620   51.1380   40.4150 C.3   101  AS0101      0.0297
      5  C6       -29.8890   50.6530   40.6100 C.3   101  AS0101      0.0029
      6  O2       -32.5050   48.6560   41.5440 O.3   101  AS0101     -0.3486
      7  C7       -29.6840   50.3130   42.1200 C.3   101  AS0101      0.0061
      8  C8       -28.3380   50.5370   42.9640 C.3   101  AS0101      0.0187
      9  C9       -27.2770   49.6880   42.2150 C.3   101  AS0101      0.0087
     10  C10      -25.9080   49.7930   42.9500 C.3   101  AS0101      0.0264
     11  C11      -25.9680   49.3150   44.4030 C.2   101  AS0101     -0.0239
     12  C12      -24.8680   48.7590   44.9700 C.2   101  AS0101      0.0329
     13  C13      -24.8670   48.2620   46.3860 C.2   101  AS0101      0.1731
     14  O14      -23.8210   48.0380   46.9990 O.2   101  AS0101     -0.2913
     15  C15      -26.2390   48.0250   47.0210 C.3   101  AS0101      0.0738
     16  C16      -27.3430   49.0420   46.5730 C.3   101  AS0101      0.0335
     17  C17      -27.2920   49.5120   45.1040 C.2   101  AS0101     -0.0332
     18  C18      -28.4330   50.1040   44.4530 C.2   101  AS0101     -0.0450
     19  C19      -29.7790   50.4440   45.1700 C.3   101  AS0101      0.0403
     20  C20      -31.0570   50.4320   44.2450 C.3   101  AS0101      0.0107
     21  C21      -30.8540   51.0520   42.8050 C.3   101  AS0101      0.0261
     22  C22      -30.5080   52.5630   43.0120 C.3   101  AS0101      0.0024
     23  C23      -29.7060   51.8020   45.9420 C.ar  101  AS0101     -0.0188
     24  C24      -28.4970   52.5840   45.9290 C.ar  101  AS0101     -0.0039
     25  C25      -28.4020   53.7950   46.6450 C.ar  101  AS0101      0.0013
     26  C26      -29.5070   54.2390   47.4110 C.ar  101  AS0101      0.0226
     27  C27      -29.3390   55.4830   48.1880 C.2   101  AS0101      0.1449
     28  N28      -30.2850   55.9470   48.9660 N.2   101  AS0101     -0.0278
     29  O29      -30.1090   57.1220   49.6840 O.2   101  AS0101     -0.1431
     30  C30      -30.7030   53.4850   47.4600 C.ar  101  AS0101      0.0013
     31  C31      -30.8220   52.2620   46.7250 C.ar  101  AS0101     -0.0039
     32  O32      -32.8260   52.3480   42.0790 O.3   101  AS0101     -0.3534
     33  C33      -34.2310   52.2770   42.3750 C.3   101  AS0101      0.1740
@<TRIPOS>BOND
     1     4     5    1
     2     4     3    1
     3     5     7    1
     4     6     1    1
     5     6     2    1
     6     3     2    1
     7     3    32    1
     8     3    21    1
     9    32    33    1
    10     7    21    1
    11     7     8    1
    12     9    10    1
    13     9     8    1
    14    21    22    1
    15    21    20    1
    16    10    11    1
    17     8    18    1
    18    20    19    1
    19    11    12    2
    20    11    17    1
    21    18    17    2
    22    18    19    1
    23    12    13    1
    24    17    16    1
    25    19    23    1
    26    24    23   ar
    27    24    25   ar
    28    23    31   ar
    29    13    14    2
    30    13    15    1
    31    16    15    1
    32    25    26   ar
    33    31    30   ar
    34    26    30   ar
    35    26    27    1
    36    27    28    2
    37    28    29    1
