@<TRIPOS>MOLECULE
2ovu_MAN_A_1.pdb
 11 11 0 0 0
SMALL
GASTEIGER

@<TRIPOS>ATOM
      1  C1        27.2600   20.6140   22.1790 C.3   241  MAN241      0.1777
      2  C2        27.5910   21.9790   22.7590 C.3   241  MAN241      0.2141
      3  C3        27.3200   23.0740   21.7350 C.3   241  MAN241      0.2173
      4  C4        28.0630   22.7830   20.4350 C.3   241  MAN241      0.2142
      5  C5        27.6690   21.4080   19.9310 C.3   241  MAN241      0.1810
      6  C6        28.4540   21.0440   18.6830 C.3   241  MAN241      0.2141
      7  O2        28.9600   21.9610   23.1790 O.3   241  MAN241     -0.2176
      8  O3        27.7550   24.3330   22.2320 O.3   241  MAN241     -0.2175
      9  O4        27.6870   23.7430   19.4590 O.3   241  MAN241     -0.2176
     10  O5        27.9310   20.4110   20.9210 O.3   241  MAN241     -0.3481
     11  O6        28.1630   19.6860   18.3520 O.3   241  MAN241     -0.2176
@<TRIPOS>BOND
     1    11     6    1
     2     6     5    1
     3     9     4    1
     4     5     4    1
     5     5    10    1
     6     4     3    1
     7    10     1    1
     8     3     8    1
     9     3     2    1
    10     1     2    1
    11     2     7    1
