@<TRIPOS>MOLECULE
2ovu_MMA_A_1.pdb
 13 13 0 0 0
SMALL
GASTEIGER

@<TRIPOS>ATOM
      1  C1        25.1090   19.0140   20.3250 C.3   242  MMA242      0.2695
      2  C2        25.4320   19.2090   21.7950 C.3   242  MMA242      0.2406
      3  C3        24.1820   19.0080   22.6300 C.3   242  MMA242      0.2198
      4  C4        23.0420   19.8790   22.1240 C.3   242  MMA242      0.2144
      5  C5        22.8010   19.6560   20.6370 C.3   242  MMA242      0.1835
      6  C6        21.7550   20.5910   20.0630 C.3   242  MMA242      0.2142
      7  C7        24.5180   17.3320   18.7700 C.3   242  MMA242      0.1769
      8  O1        24.7570   17.6510   20.1420 O.3   242  MMA242     -0.3259
      9  O2        25.8650   20.5390   21.9590 O.3   242  MMA242     -0.2149
     10  O3        24.4730   19.3550   23.9680 O.3   242  MMA242     -0.2174
     11  O4        21.8660   19.5130   22.8470 O.3   242  MMA242     -0.2176
     12  O5        24.0310   19.8850   19.9350 O.3   242  MMA242     -0.3256
     13  O6        22.2030   21.9470   20.1180 O.3   242  MMA242     -0.2176
@<TRIPOS>BOND
     1     7     8    1
     2    12     1    1
     3    12     5    1
     4     6    13    1
     5     6     5    1
     6     8     1    1
     7     1     2    1
     8     5     4    1
     9     2     9    1
    10     2     3    1
    11     4     3    1
    12     4    11    1
    13     3    10    1
