@<TRIPOS>MOLECULE
2ovv_PFH_A_1.pdb
 30 34 0 0 0
SMALL
GASTEIGER

@<TRIPOS>ATOM
      1  C4        14.0300   16.0490   44.5000 C.2   999  PFH999      0.0553
      2  C7        11.9630   18.9340   45.6820 C.2   999  PFH999      0.3064
      3  C6        12.5080   17.9450   44.7740 C.3   999  PFH999      0.1700
      4  C9        13.2430   18.0350   47.3940 C.3   999  PFH999      0.3912
      5  C21       11.6520   23.4010   42.9090 C.ar  999  PFH999      0.1386
      6  C18        9.6890   21.8050   45.6750 C.3   999  PFH999      0.0986
      7  C16       11.2760   20.7050   44.1440 C.3   999  PFH999      0.2458
      8  C19       10.4610   20.6890   46.4120 C.3   999  PFH999      0.2060
      9  C26       12.8740   23.9740   40.4070 C.ar  999  PFH999      0.0002
     10  C14       11.4690   17.4120   40.5380 C.3   999  PFH999      0.2526
     11  O13       12.4910   16.6520   41.2220 O.2   999  PFH999     -0.4687
     12  C2        12.7360   16.8470   42.5880 C.2   999  PFH999      0.1691
     13  C1        13.6810   15.9580   43.1560 C.2   999  PFH999      0.1733
     14  O11       14.1790   15.0330   42.2960 O.2   999  PFH999     -0.4683
     15  C12       15.3520   14.3720   42.7200 C.3   999  PFH999      0.2526
     16  C3        12.1710   17.8150   43.3970 C.2   999  PFH999      0.0316
     17  C5        13.4460   17.0310   45.3180 C.2   999  PFH999      0.0768
     18  N10       13.7720   17.1170   46.6110 N.2   999  PFH999     -0.2220
     19  N8        12.3590   18.9220   46.9600 N.2   999  PFH999     -0.0404
     20  N15       10.9920   19.8480   45.3130 N.pl3 999  PFH999     -0.1904
     21  C17       10.3440   21.9620   44.2710 C.3   999  PFH999      0.2164
     22  O20       11.1040   23.1950   44.1640 O.3   999  PFH999     -0.4748
     23  C22       12.4780   24.5290   42.7510 C.ar  999  PFH999      0.0369
     24  C23       13.0710   24.8060   41.5440 C.ar  999  PFH999      0.0031
     25  C27       13.4560   24.2520   39.1570 C.ar  999  PFH999      0.0000
     26  C25       12.0410   22.8210   40.5490 C.ar  999  PFH999      0.0030
     27  C24       11.4450   22.5700   41.8030 C.ar  999  PFH999      0.0369
     28  C30       11.8030   21.9570   39.4600 C.ar  999  PFH999      0.0001
     29  C29       12.3650   22.2440   38.2660 C.ar  999  PFH999      0.0000
     30  C28       13.1920   23.3850   38.1240 C.ar  999  PFH999      0.0000
@<TRIPOS>BOND
     1    30    29   ar
     2    30    25   ar
     3    29    28   ar
     4    25     9   ar
     5    28    26   ar
     6     9    26   ar
     7     9    24   ar
     8    10    11    1
     9    26    27   ar
    10    11    12    1
    11    24    23   ar
    12    27     5   ar
    13    14    15    1
    14    14    13    1
    15    12    13    1
    16    12    16    2
    17    23     5   ar
    18     5    22    1
    19    13     1    2
    20    16     3    1
    21     7    21    1
    22     7    20    1
    23    22    21    1
    24    21     6    1
    25     1    17    1
    26     3    17    1
    27     3     2    1
    28    20     2    1
    29    20     8    1
    30    17    18    2
    31     6     8    1
    32     2    19    2
    33    18     4    1
    34    19     4    1
