@<TRIPOS>MOLECULE
2ovw_CBI_A_1.pdb
 23 24 0 0 0
SMALL
GASTEIGER

@<TRIPOS>ATOM
      1  C1        47.4610   70.1190   26.8090 C.3   414  CBI414      0.2695
      2  C2        48.3610   71.3560   26.8920 C.3   414  CBI414      0.2406
      3  C3        48.7580   71.8190   25.4760 C.3   414  CBI414      0.2198
      4  C4        49.3580   70.6540   24.6860 C.3   414  CBI414      0.2144
      5  C5        48.4030   69.4340   24.6310 C.3   414  CBI414      0.1835
      6  C6        49.0380   68.1920   23.9360 C.3   414  CBI414      0.2142
      7  O2        47.4960   72.3700   27.4690 O.3   414  CBI414     -0.2149
      8  O3        49.6170   72.9460   25.4580 O.3   414  CBI414     -0.2174
      9  O4        49.6990   71.0820   23.3880 O.3   414  CBI414     -0.2176
     10  O5        48.0400   69.0350   26.0300 O.3   414  CBI414     -0.3256
     11  O6        47.9500   67.3670   23.4880 O.3   414  CBI414     -0.2176
     12  C1'       44.4490   67.3350   29.9870 C.3   414  CBI414      0.3023
     13  C2'       45.6300   66.6150   29.3340 C.3   414  CBI414      0.2433
     14  C3'       46.8230   67.5910   29.1670 C.3   414  CBI414      0.2168
     15  C4'       46.2670   68.7870   28.3670 C.3   414  CBI414      0.1804
     16  C5'       45.1770   69.5140   29.2040 C.3   414  CBI414      0.1804
     17  C6'       44.6730   70.8460   28.6410 C.3   414  CBI414      0.2141
     18  O1'       43.4610   66.3380   30.1460 O.3   414  CBI414     -0.1869
     19  O2'       46.0870   65.5030   30.1550 O.3   414  CBI414     -0.2148
     20  O3'       47.6780   66.8170   28.3040 O.3   414  CBI414     -0.2175
     21  O4'       47.3450   69.6490   28.1250 O.3   414  CBI414     -0.3257
     22  O5'       44.0440   68.5790   29.3470 O.3   414  CBI414     -0.3237
     23  O6'       44.1360   70.6390   27.3460 O.3   414  CBI414     -0.2176
@<TRIPOS>BOND
     1     9     4    1
     2    11     6    1
     3     6     5    1
     4     5     4    1
     5     5    10    1
     6     4     3    1
     7     8     3    1
     8     3     2    1
     9    10     1    1
    10     1     2    1
    11     1    21    1
    12     2     7    1
    13    23    17    1
    14    21    15    1
    15    20    14    1
    16    15    14    1
    17    15    16    1
    18    17    16    1
    19    14    13    1
    20    16    22    1
    21    13    12    1
    22    13    19    1
    23    22    12    1
    24    12    18    1
