@<TRIPOS>MOLECULE
2ovx_4MR_A_1.pdb
 34 38 0 0 0
SMALL
GASTEIGER

@<TRIPOS>ATOM
      1  CAA       24.3640    3.1140   51.6060 C.ar  501  4MR501      0.0375
      2  CAB       23.3520    2.1920   51.8540 C.ar  501  4MR501      0.0031
      3  CAC       23.3550    1.4510   53.0330 C.ar  501  4MR501      0.0002
      4  CAF       24.3650    1.6440   53.9700 C.ar  501  4MR501      0.0031
      5  CAE       25.3680    2.5780   53.7270 C.ar  501  4MR501      0.0375
      6  CAD       25.3760    3.3110   52.5430 C.ar  501  4MR501      0.1453
      7  OAG       26.4810    4.0500   52.2440 O.3   501  4MR501     -0.4535
      8  CAJ       26.2940    5.2850   51.7000 C.ar  501  4MR501      0.1453
      9  CAM       27.3610    5.8710   51.0260 C.ar  501  4MR501      0.0373
     10  CAL       27.2710    7.1840   50.5720 C.ar  501  4MR501      0.0023
     11  CAI       25.1400    6.0340   51.9220 C.ar  501  4MR501      0.0373
     12  CAH       25.0480    7.3430   51.4580 C.ar  501  4MR501      0.0023
     13  CAK       26.1080    7.9250   50.7670 C.ar  501  4MR501      0.0227
     14  CAY       25.8670    9.2010   49.9510 C.3   501  4MR501      0.2747
     15  CAZ       25.3350    8.7180   48.5970 C.1   501  4MR501      0.2257
     16  OAS       24.1640    8.3490   48.5170 O.2   501  4MR501     -0.2106
     17  NBA       26.1050    8.7850   47.4300 N.2   501  4MR501     -0.2338
     18  CBF       27.3870    9.3460   47.4250 C.1   501  4MR501      0.3753
     19  OBG       28.0940    9.2320   46.4250 O.2   501  4MR501     -0.1738
     20  NBE       27.9170    9.9130   48.5910 N.2   501  4MR501     -0.2338
     21  CBD       27.1920    9.9560   49.7890 C.1   501  4MR501      0.2257
     22  OBH       27.7120   10.4750   50.7760 O.2   501  4MR501     -0.2106
     23  NAX       24.8460   10.0420   50.6040 N.3   501  4MR501     -0.2420
     24  CAR       25.2150   10.4270   51.9770 C.3   501  4MR501      0.0965
     25  CAQ       24.0490   11.1690   52.6350 C.3   501  4MR501      0.1187
     26  CBC       24.4940   11.2250   49.7990 C.3   501  4MR501      0.0965
     27  CBB       23.3320   11.9760   50.4560 C.3   501  4MR501      0.1187
     28  NAW       23.7330   12.3530   51.8210 N.pl3 501  4MR501     -0.2503
     29  CAV       22.8080   13.2840   52.4840 C.1   501  4MR501      0.0903
     30  NAU       22.9330   13.4980   53.8030 N.2   501  4MR501     -0.1805
     31  CAT       22.3640   14.5350   54.3920 C.2   501  4MR501      0.1082
     32  CAN       21.6060   15.4270   53.6410 C.2   501  4MR501      0.0223
     33  CAO       21.4720   15.1730   52.2800 C.3   501  4MR501      0.1653
     34  NAP       22.0650   14.1210   51.7430 N.2   501  4MR501     -0.2029
@<TRIPOS>BOND
     1    19    18    2
     2    18    17    2
     3    18    20    2
     4    17    15    2
     5    16    15    2
     6    20    21    2
     7    15    14    1
     8    21    14    1
     9    21    22    2
    10    26    27    1
    11    26    23    1
    12    14    23    1
    13    14    13    1
    14    27    28    1
    15    10    13   ar
    16    10     9   ar
    17    23    24    1
    18    13    12   ar
    19     9     8   ar
    20    12    11   ar
    21     1     2   ar
    22     1     6   ar
    23     8    11   ar
    24     8     7    1
    25    34    33    1
    26    34    29    2
    27    28    29    1
    28    28    25    1
    29     2     3   ar
    30    24    25    1
    31     7     6    1
    32    33    32    1
    33    29    30    2
    34     6     5   ar
    35     3     4   ar
    36    32    31    2
    37     5     4   ar
    38    30    31    1
