@<TRIPOS>MOLECULE
2ovy_PFJ_A_1.pdb
 30 34 0 0 0
SMALL
GASTEIGER

@<TRIPOS>ATOM
      1  C4        13.9590   16.1610   44.5920 C.2   999  PFJ999      0.0542
      2  C7        12.0060   19.0470   45.7600 C.2   999  PFJ999      0.3221
      3  C6        12.5570   18.0960   44.9150 C.2   999  PFJ999      0.0978
      4  C9        13.2230   18.0720   47.5500 C.3   999  PFJ999      0.3918
      5  C21       11.8950   23.3740   43.0850 C.2   999  PFJ999      0.2779
      6  C18        9.7640   21.9240   45.6790 C.3   999  PFJ999      0.0987
      7  C16       10.6730   20.4200   44.0260 C.3   999  PFJ999      0.2462
      8  C19       10.6630   20.9470   46.4250 C.3   999  PFJ999      0.2063
      9  C26       13.1030   24.1270   40.7020 C.ar  999  PFJ999      0.1062
     10  C14       11.5130   17.3400   40.4480 C.3   999  PFJ999      0.1751
     11  O13       12.5830   16.8580   41.2580 O.3   999  PFJ999     -0.3416
     12  C2        12.7170   17.0120   42.6710 C.3   999  PFJ999      0.1936
     13  C3        12.1730   18.0320   43.5300 C.2   999  PFJ999      0.0194
     14  N8        12.3470   19.0080   47.0900 N.2   999  PFJ999     -0.0366
     15  N10       13.7210   17.1220   46.7300 N.2   999  PFJ999     -0.2183
     16  C5        13.3800   17.1520   45.4190 C.2   999  PFJ999      0.0901
     17  C1        13.6110   16.0720   43.2330 C.2   999  PFJ999      0.1489
     18  O11       14.0600   15.0480   42.4400 O.2   999  PFJ999     -0.4729
     19  C12       15.3810   14.5080   42.5800 C.3   999  PFJ999      0.2521
     20  N15       11.1540   20.0490   45.3550 N.pl3 999  PFJ999     -0.1872
     21  C17       10.2590   21.9000   44.2580 C.3   999  PFJ999      0.2188
     22  O20       11.3030   22.9210   44.2210 O.2   999  PFJ999     -0.4527
     23  N24       11.7440   22.6450   41.9220 N.2   999  PFJ999     -0.3682
     24  C25       12.3610   22.9510   40.7450 C.ar  999  PFJ999      0.1517
     25  C30       12.1780   22.1300   39.6400 C.ar  999  PFJ999      0.0337
     26  C29       12.6480   22.5260   38.4270 C.ar  999  PFJ999      0.0027
     27  C28       13.4200   23.7210   38.3730 C.ar  999  PFJ999      0.0017
     28  C27       13.6390   24.5390   39.4890 C.ar  999  PFJ999      0.0213
     29  N23       13.1710   24.8980   41.8600 N.2   999  PFJ999     -0.2566
     30  C22       12.6630   24.5480   43.0610 C.3   999  PFJ999      0.2238
@<TRIPOS>BOND
     1    27    26   ar
     2    27    28   ar
     3    26    25   ar
     4    28     9   ar
     5    25    24   ar
     6    10    11    1
     7     9    24   ar
     8     9    29    2
     9    24    23    2
    10    11    12    1
    11    29    30    1
    12    23     5    2
    13    18    19    1
    14    18    17    1
    15    12    17    1
    16    12    13    1
    17    30     5    1
    18     5    22    1
    19    17     1    2
    20    13     3    2
    21     7    21    1
    22     7    20    1
    23    22    21    1
    24    21     6    1
    25     1    16    1
    26     3    16    1
    27     3     2    1
    28    20     2    1
    29    20     8    1
    30    16    15    2
    31     6     8    1
    32     2    14    2
    33    15     4    1
    34    14     4    1
