@<TRIPOS>MOLECULE
2ovz_5MR_A_1.pdb
 40 44 0 0 0
SMALL
GASTEIGER

@<TRIPOS>ATOM
      1  CD2       24.8640   14.9380   50.1610 C.3   501  5MR501      0.0819
      2  CE3       25.3170   15.8600   51.0970 C.2   501  5MR501     -0.0164
      3  CZ3       25.8660   17.0680   50.6680 C.2   501  5MR501     -0.0038
      4  CH2       25.9610   17.3470   49.3080 C.2   501  5MR501      0.0009
      5  CZ2       25.5090   16.4210   48.3720 C.2   501  5MR501      0.0153
      6  CE2       24.9590   15.2150   48.8010 C.2   501  5MR501      0.0665
      7  NE1       24.4550   14.1740   48.1460 N.2   501  5MR501     -0.2482
      8  CD1       24.0470   13.2560   49.0210 C.2   501  5MR501      0.0907
      9  CG        24.2790   13.6780   50.2620 C.2   501  5MR501     -0.0136
     10  CB        23.9680   12.9050   51.5470 C.3   501  5MR501      0.0554
     11  CA        25.1260   11.9860   51.9460 C.3   501  5MR501      0.1784
     12  C         24.6980   11.1230   53.1400 C.2   501  5MR501      0.2809
     13  O         24.0170   10.1140   53.0010 O.2   501  5MR501     -0.2698
     14  NAA       25.1040   11.5820   54.3230 N.am  501  5MR501     -0.0863
     15  N         25.4950   11.1720   50.7790 N.am  501  5MR501     -0.1974
     16  CBD       26.7560   10.9980   50.3860 C.2   501  5MR501      0.2423
     17  OAC       27.7310   11.4560   50.9820 O.2   501  5MR501     -0.2733
     18  CBL       26.9160   10.1820   49.1010 C.3   501  5MR501      0.0959
     19  CAX       27.2610   11.1590   47.9730 C.3   501  5MR501      0.1030
     20  PBN       27.1230   10.3890   46.3420 P.3   501  5MR501      0.2749
     21  OAE       28.3410    9.3390   46.3070 O.3   501  5MR501     -0.1634
     22  OAD       25.8380    9.6590   46.2860 O.2   501  5MR501     -0.2825
     23  CBG       27.4560   11.6440   45.0910 C.ar  501  5MR501      0.0563
     24  CAP       28.6420   11.6070   44.3660 C.ar  501  5MR501      0.0051
     25  CAJ       28.8810   12.5520   43.3700 C.ar  501  5MR501      0.0002
     26  CAG       27.9330   13.5330   43.1030 C.ar  501  5MR501      0.0000
     27  CAK       26.7450   13.5720   43.8310 C.ar  501  5MR501      0.0002
     28  CAQ       26.5070   12.6290   44.8240 C.ar  501  5MR501      0.0051
     29  CAV       28.0330    9.1410   49.2180 C.3   501  5MR501      0.0770
     30  CBF       27.6920    7.9160   50.0690 C.ar  501  5MR501      0.1549
     31  CAU       26.5380    7.2650   50.2060 C.ar  501  5MR501      0.0580
     32  OBB       28.6550    7.2280   50.7460 O.2   501  5MR501     -0.3578
     33  NAY       28.0070    6.1080   51.3010 N.ar  501  5MR501     -0.0774
     34  CBH       26.7270    6.1760   50.9480 C.ar  501  5MR501      0.1227
     35  CBE       25.7640    5.2260   51.2870 C.ar  501  5MR501      0.0209
     36  CAN       24.4790    5.2940   50.7550 C.ar  501  5MR501      0.0016
     37  CAH       23.5300    4.3300   51.0800 C.ar  501  5MR501      0.0000
     38  CAF       23.8630    3.2900   51.9420 C.ar  501  5MR501      0.0000
     39  CAI       25.1460    3.2200   52.4760 C.ar  501  5MR501      0.0000
     40  CAO       26.0940    4.1870   52.1490 C.ar  501  5MR501      0.0016
@<TRIPOS>BOND
     1    26    25   ar
     2    26    27   ar
     3    25    24   ar
     4    27    28   ar
     5    24    23   ar
     6    28    23   ar
     7    23    20    1
     8    22    20    2
     9    21    20    1
    10    20    19    1
    11    19    18    1
    12     7     6    2
    13     7     8    1
    14     5     6    1
    15     5     4    2
    16     6     1    1
    17     8     9    2
    18    18    29    1
    19    18    16    1
    20    29    30    1
    21     4     3    1
    22    30    31   ar
    23    30    32   ar
    24     1     9    1
    25     1     2    1
    26    31    34   ar
    27     9    10    1
    28    16    15   am
    29    16    17    2
    30     3     2    2
    31    32    33   ar
    32    36    37   ar
    33    36    35   ar
    34    15    11    1
    35    34    35    1
    36    34    33   ar
    37    37    38   ar
    38    35    40   ar
    39    10    11    1
    40    38    39   ar
    41    11    12    1
    42    40    39   ar
    43    13    12    2
    44    12    14   am
