@<TRIPOS>MOLECULE
2ow0_6MR_A_1.pdb
 31 34 0 0 0
SMALL
GASTEIGER

@<TRIPOS>ATOM
      1  CD2       25.3960   12.1360   44.6660 C.3   501  6MR501      0.0819
      2  CE3       25.7420   11.0670   43.8430 C.2   501  6MR501     -0.0164
      3  CZ3       24.9190   10.7320   42.7670 C.2   501  6MR501     -0.0038
      4  CH2       23.7600   11.4580   42.5170 C.2   501  6MR501      0.0009
      5  CZ2       23.4170   12.5290   43.3400 C.2   501  6MR501      0.0153
      6  CE2       24.2380   12.8680   44.4130 C.2   501  6MR501      0.0665
      7  NE1       24.1630   13.8260   45.3330 N.2   501  6MR501     -0.2482
      8  CD1       25.2110   13.7350   46.1520 C.2   501  6MR501      0.0907
      9  CG        25.9880   12.7200   45.7830 C.2   501  6MR501     -0.0138
     10  CB        27.2780   12.2810   46.4850 C.3   501  6MR501      0.0552
     11  CA        27.0170   11.3040   47.6350 C.3   501  6MR501      0.2042
     12  C         26.5390    9.9630   47.0660 C.2   501  6MR501      0.3825
     13  O         25.3130    9.7220   47.1220 O.co2 501  6MR501     -0.2440
     14  OXT       27.4080    9.2080   46.5790 O.co2 501  6MR501     -0.2440
     15  N         25.9990   11.8710   48.5340 N.3   501  6MR501     -0.0674
     16  SAZ       26.2840   11.5120   50.1000 S.O2  501  6MR501      0.0773
     17  OBE       25.4080   12.3860   50.9470 O.2   501  6MR501     -0.1516
     18  OAP       27.7160   11.8070   50.4380 O.2   501  6MR501     -0.1516
     19  CAY       25.9270    9.8290   50.4270 C.ar  501  6MR501      0.1236
     20  CAX       26.8780    8.8510   50.1420 C.ar  501  6MR501      0.0200
     21  CAW       26.6110    7.5060   50.3770 C.ar  501  6MR501      0.0014
     22  CAO       24.7000    9.4380   50.9520 C.ar  501  6MR501      0.0200
     23  CAN       24.4310    8.0910   51.1900 C.ar  501  6MR501      0.0014
     24  CAM       25.3820    7.1160   50.9020 C.ar  501  6MR501      0.0001
     25  CAL       25.1080    5.7680   51.1490 C.ar  501  6MR501      0.0000
     26  CAK       26.0930    4.9190   51.6480 C.ar  501  6MR501      0.0004
     27  CAJ       25.7640    3.6310   52.0640 C.ar  501  6MR501      0.0058
     28  CAT       24.4540    3.1690   51.9840 C.ar  501  6MR501      0.0301
     29  I         23.9890    1.2540   52.6970 I     501  6MR501     -0.0425
     30  CAU       23.4730    4.0110   51.4660 C.ar  501  6MR501      0.0058
     31  CAV       23.8000    5.3000   51.0500 C.ar  501  6MR501      0.0004
@<TRIPOS>BOND
     1     4     3    1
     2     4     5    2
     3     3     2    2
     4     5     6    1
     5     2     1    1
     6     6     1    1
     7     6     7    2
     8     1     9    1
     9     7     8    1
    10     9     8    2
    11     9    10    1
    12    10    11    1
    13    14    12   ar
    14    12    13   ar
    15    12    11    1
    16    11    15    1
    17    15    16    1
    18    16    19    1
    19    16    18    2
    20    16    17    2
    21    20    21   ar
    22    20    19   ar
    23    21    24   ar
    24    19    22   ar
    25    24    25    1
    26    24    23   ar
    27    22    23   ar
    28    31    25   ar
    29    31    30   ar
    30    25    26   ar
    31    30    28   ar
    32    26    27   ar
    33    28    27   ar
    34    28    29    1
