@<TRIPOS>MOLECULE
2ow1_7MR_A_1.pdb
 27 28 0 0 0
SMALL
GASTEIGER

@<TRIPOS>ATOM
      1  CAI       26.4370    3.4740   53.0330 C.ar  501  7MR501      0.0375
      2  CAH       25.6410    2.6660   53.8410 C.ar  501  7MR501      0.0031
      3  CAG       24.3490    2.3340   53.4430 C.ar  501  7MR501      0.0002
      4  CAR       23.8500    2.8140   52.2360 C.ar  501  7MR501      0.0031
      5  CAS       24.6460    3.6210   51.4290 C.ar  501  7MR501      0.0375
      6  CAT       25.9400    3.9490   51.8230 C.ar  501  7MR501      0.1453
      7  OAU       26.7340    4.6730   50.9870 O.3   501  7MR501     -0.4535
      8  CAV       26.6830    6.0300   51.1040 C.ar  501  7MR501      0.1454
      9  CAJ       25.5370    6.6930   51.5370 C.ar  501  7MR501      0.0388
     10  CAK       25.4890    8.0840   51.5420 C.ar  501  7MR501      0.0215
     11  CAW       27.7840    6.7720   50.6850 C.ar  501  7MR501      0.0388
     12  CAX       27.7380    8.1630   50.6880 C.ar  501  7MR501      0.0215
     13  CAL       26.5890    8.8210   51.1170 C.ar  501  7MR501      0.1059
     14  SAM       26.5350   10.5690   51.1670 S.O2  501  7MR501      0.0108
     15  OAY       26.0720   10.9890   52.5300 O.2   501  7MR501     -0.1686
     16  OAC       27.9060   11.1240   50.9140 O.2   501  7MR501     -0.1686
     17  CAN       25.3590   11.2230   49.9250 C.3   501  7MR501      0.1879
     18  CAO       25.9410   11.5080   48.5360 C.3   501  7MR501      0.2250
     19  CAP       24.9000   12.2180   47.6670 C.3   501  7MR501      0.4188
     20  FBA       25.3430   12.3120   46.4170 F     501  7MR501     -0.1680
     21  FAF       23.7670   11.5230   47.6760 F     501  7MR501     -0.1680
     22  FAQ       24.6640   13.4340   48.1500 F     501  7MR501     -0.1680
     23  NAZ       27.1140   12.3840   48.6790 N.3   501  7MR501     -0.1172
     24  CAE       26.3640   10.2070   47.8450 C.2   501  7MR501      0.1125
     25  OAB       25.5960    9.2490   47.7660 O.2   501  7MR501     -0.5379
     26  NAD       27.5830   10.2230   47.3130 N.am  501  7MR501     -0.2012
     27  OAA       28.0800    9.0710   46.6470 O.3   501  7MR501     -0.4026
@<TRIPOS>BOND
     1    20    19    1
     2    27    26    1
     3    26    24   am
     4    19    21    1
     5    19    22    1
     6    19    18    1
     7    25    24    2
     8    24    18    1
     9    18    23    1
    10    18    17    1
    11    17    14    1
    12    11    12   ar
    13    11     8   ar
    14    12    13   ar
    15    16    14    2
    16     7     8    1
    17     7     6    1
    18     8     9   ar
    19    13    14    1
    20    13    10   ar
    21    14    15    2
    22     5     6   ar
    23     5     4   ar
    24     9    10   ar
    25     6     1   ar
    26     4     3   ar
    27     1     2   ar
    28     3     2   ar
