@<TRIPOS>MOLECULE
2ow2_8MR_A_1.pdb
 19 19 0 0 0
SMALL
GASTEIGER

@<TRIPOS>ATOM
      1  CAI       25.7750    4.4590   52.5070 C.3   501  8MR501      0.2525
      2  OAH       26.3920    4.8050   51.2640 O.3   501  8MR501     -0.4714
      3  CAG       26.4000    6.1580   51.1150 C.ar  501  8MR501      0.1388
      4  CAQ       27.5090    6.8990   51.5110 C.ar  501  8MR501      0.0382
      5  CAP       27.5270    8.2790   51.3340 C.ar  501  8MR501      0.0215
      6  CAF       25.3070    6.8000   50.5450 C.ar  501  8MR501      0.0382
      7  CAE       25.3260    8.1790   50.3660 C.ar  501  8MR501      0.0215
      8  CAO       26.4350    8.9210   50.7570 C.ar  501  8MR501      0.1060
      9  SAN       26.4490   10.6540   50.4910 S.O2  501  8MR501      0.0130
     10  OAS       27.8570   11.1390   50.2960 O.2   501  8MR501     -0.1685
     11  OAD       25.8560   11.3510   51.6790 O.2   501  8MR501     -0.1685
     12  CAM       25.4640   10.9980   48.9870 C.3   501  8MR501      0.2113
     13  CAB       24.4720   12.1440   49.2060 C.3   501  8MR501      0.3410
     14  FA        23.5560   11.8150   50.1940 F     501  8MR501     -0.1965
     15  FB        23.7800   12.4110   48.0340 F     501  8MR501     -0.1965
     16  CAL       26.3570   11.2690   47.7740 C.3   501  8MR501      0.1438
     17  CAK       27.1300   10.0120   47.3680 C.2   501  8MR501      0.3668
     18  OAR       28.3020   10.1680   46.9670 O.co2 501  8MR501     -0.2456
     19  OAJ       26.5280    8.9210   47.4660 O.co2 501  8MR501     -0.2456
@<TRIPOS>BOND
     1    18    17   ar
     2    17    19   ar
     3    17    16    1
     4    16    12    1
     5    15    13    1
     6    12    13    1
     7    12     9    1
     8    13    14    1
     9    10     9    2
    10     7     6   ar
    11     7     8   ar
    12     9     8    1
    13     9    11    2
    14     6     3   ar
    15     8     5   ar
    16     3     2    1
    17     3     4   ar
    18     2     1    1
    19     5     4   ar
