@<TRIPOS>MOLECULE
2ow3_BIM_A_1.pdb
 41 47 0 0 0
SMALL
GASTEIGER

@<TRIPOS>ATOM
      1  C1       -37.4230   -0.9260   74.6060 C.1   387  BIM387      0.2158
      2  C3       -37.1510   -1.4660   73.2710 C.2   387  BIM387      0.1088
      3  C4       -39.1660   -2.1010   74.0590 C.1   387  BIM387      0.2158
      4  C5       -38.2320   -2.2000   72.9260 C.2   387  BIM387      0.1088
      5  C6       -38.6120   -3.0230   71.7270 C.ar  387  BIM387      0.0313
      6  C7       -37.7540   -3.7970   70.9560 C.ar  387  BIM387      0.0180
      7  C8       -39.8630   -3.2070   71.1720 C.ar  387  BIM387      0.0766
      8  N10      -39.7800   -4.0330   70.0970 N.ar  387  BIM387     -0.3260
      9  C11      -35.8740   -1.1670   72.5720 C.ar  387  BIM387      0.0313
     10  C12      -35.6740   -0.7390   71.2740 C.ar  387  BIM387      0.0766
     11  C15      -33.6960   -0.9520   72.1750 C.ar  387  BIM387      0.0599
     12  C16      -36.3840   -3.9890   71.0610 C.ar  387  BIM387      0.0015
     13  C17      -35.7450   -4.8090   70.1440 C.ar  387  BIM387      0.0001
     14  C18      -37.8550   -5.2320   69.0350 C.ar  387  BIM387      0.0172
     15  C19      -36.4770   -5.4320   69.1350 C.ar  387  BIM387      0.0015
     16  C21      -32.8620   -1.7450   74.6940 C.ar  387  BIM387      0.0001
     17  C23      -31.9270   -1.3860   73.7270 C.ar  387  BIM387      0.0015
     18  O25      -36.6630   -0.2130   75.2310 O.2   387  BIM387     -0.2086
     19  C27      -34.1300   -0.9760   68.5550 C.3   387  BIM387      0.0319
     20  C30      -37.3180   -0.6450   67.7710 C.2   387  BIM387      0.0235
     21  C32      -38.4480   -1.3310   67.4140 C.2   387  BIM387     -0.0158
     22  C33      -37.2570   -2.5440   65.7160 C.2   387  BIM387      0.1633
     23  C34      -38.4590   -2.2870   66.3990 C.3   387  BIM387      0.0888
     24  C35      -40.9830   -4.4150   69.3230 C.3   387  BIM387      0.1061
     25  C36      -40.9610   -4.5520   67.7840 C.3   387  BIM387      0.0245
     26  C37      -39.7710   -3.0000   66.0650 C.3   387  BIM387      0.0128
     27  C38      -40.8500   -3.1560   67.1720 C.3   387  BIM387      0.0028
     28  C40      -38.0070   -4.0700   63.6730 C.3   387  BIM387      0.1143
     29  C13      -34.6160   -1.3050   73.1270 C.ar  387  BIM387      0.0180
     30  C20      -34.2200   -1.7100   74.3950 C.ar  387  BIM387      0.0015
     31  C22      -32.3390   -0.9840   72.4580 C.ar  387  BIM387      0.0172
     32  N14      -34.3450   -0.6050   71.0550 N.ar  387  BIM387     -0.3260
     33  C26      -33.7090   -0.1610   69.8000 C.3   387  BIM387      0.1065
     34  C28      -34.9030   -0.1300   67.5260 C.3   387  BIM387      0.0610
     35  C29      -36.1440   -0.8830   67.1100 C.2   387  BIM387      0.1099
     36  N31      -36.1260   -1.8260   66.0970 N.2   387  BIM387     -0.3955
     37  N39      -37.0670   -3.4740   64.6470 N.pl3 387  BIM387     -0.2833
     38  C41      -35.7220   -4.0060   64.3460 C.3   387  BIM387      0.1143
     39  O24      -40.2540   -2.6260   74.1030 O.2   387  BIM387     -0.2086
     40  N2       -38.6550   -1.3280   75.0720 N.2   387  BIM387     -0.2576
     41  C9       -38.4880   -4.4050   69.9590 C.ar  387  BIM387      0.0599
@<TRIPOS>BOND
     1    28    37    1
     2    38    37    1
     3    37    22    1
     4    22    36    2
     5    22    23    1
     6    26    23    1
     7    26    27    1
     8    36    35    2
     9    23    21    1
    10    35    34    1
    11    35    20    1
    12    27    25    1
    13    21    20    2
    14    34    19    1
    15    25    24    1
    16    19    33    1
    17    14    15   ar
    18    14    41   ar
    19    15    13   ar
    20    24     8    1
    21    33    32    1
    22    41     8   ar
    23    41     6   ar
    24     8     7   ar
    25    13    12   ar
    26     6    12   ar
    27     6     5   ar
    28    32    10   ar
    29    32    11   ar
    30     7     5   ar
    31    10     9   ar
    32     5     4    1
    33    11    31   ar
    34    11    29   ar
    35    31    17   ar
    36     9    29   ar
    37     9     2    1
    38     4     2    2
    39     4     3    1
    40    29    30   ar
    41     2     1    1
    42    17    16   ar
    43     3    39    2
    44     3    40    2
    45    30    16   ar
    46     1    40    2
    47     1    18    2
