@<TRIPOS>MOLECULE
2ow4_MAN_A_1.pdb
 11 11 0 0 0
SMALL
GASTEIGER

@<TRIPOS>ATOM
      1  C1        36.6180   67.0300   20.6250 C.3   241  MAN241      0.1777
      2  C2        36.2660   67.6310   21.9840 C.3   241  MAN241      0.2141
      3  C3        36.5410   66.6130   23.1010 C.3   241  MAN241      0.2173
      4  C4        35.8010   65.2960   22.8210 C.3   241  MAN241      0.2142
      5  C5        36.2060   64.7810   21.4530 C.3   241  MAN241      0.1810
      6  C6        35.4340   63.5120   21.1200 C.3   241  MAN241      0.2141
      7  O2        34.8810   68.0180   21.9210 O.3   241  MAN241     -0.2176
      8  O3        36.1590   67.0650   24.4110 O.3   241  MAN241     -0.2175
      9  O4        36.1540   64.2870   23.7720 O.3   241  MAN241     -0.2176
     10  O5        35.9300   65.7720   20.4630 O.3   241  MAN241     -0.3481
     11  O6        35.7380   63.1540   19.7870 O.3   241  MAN241     -0.2176
@<TRIPOS>BOND
     1    11     6    1
     2    10     1    1
     3    10     5    1
     4     1     2    1
     5     6     5    1
     6     5     4    1
     7     7     2    1
     8     2     3    1
     9     4     3    1
    10     4     9    1
    11     3     8    1
