@<TRIPOS>MOLECULE
2ow4_MMA_A_1.pdb
 13 13 0 0 0
SMALL
GASTEIGER

@<TRIPOS>ATOM
      1  C1        38.8210   65.0830   19.0760 C.3   242  MMA242      0.2695
      2  C2        38.5110   66.5610   19.2700 C.3   242  MMA242      0.2406
      3  C3        39.7660   67.4060   19.0800 C.3   242  MMA242      0.2198
      4  C4        40.9170   66.8440   19.9100 C.3   242  MMA242      0.2144
      5  C5        41.1190   65.3380   19.7040 C.3   242  MMA242      0.1835
      6  C6        42.1430   64.7030   20.6250 C.3   242  MMA242      0.2142
      7  C7        39.2500   63.5160   17.3820 C.3   242  MMA242      0.1769
      8  O1        39.1180   64.9090   17.6970 O.3   242  MMA242     -0.3259
      9  O2        38.0200   66.7600   20.5860 O.3   242  MMA242     -0.2149
     10  O3        39.4570   68.7400   19.4410 O.3   242  MMA242     -0.2174
     11  O4        42.1220   67.5320   19.5310 O.3   242  MMA242     -0.2176
     12  O5        39.8890   64.6290   19.9300 O.3   242  MMA242     -0.3256
     13  O6        41.7390   64.9110   21.9750 O.3   242  MMA242     -0.2176
@<TRIPOS>BOND
     1     7     8    1
     2     8     1    1
     3     1     2    1
     4     1    12    1
     5     3     2    1
     6     3    10    1
     7     3     4    1
     8     2     9    1
     9    11     4    1
    10     5     4    1
    11     5    12    1
    12     5     6    1
    13     6    13    1
