@<TRIPOS>MOLECULE
2ow6_NK1_A_1.pdb
 12 13 0 0 0
SMALL
GASTEIGER

@<TRIPOS>ATOM
      1  O7        31.8550   67.3780    5.7790 O.3   4001  NK14001    -0.2194
      2  C7        31.7270   66.9850    7.1530 C.3   4001  NK14001     0.1945
      3  C6        30.9160   65.7060    7.2110 C.3   4001  NK14001     0.1025
      4  C5        29.4730   65.7890    6.7310 C.3   4001  NK14001     0.1637
      5  O5        28.9260   64.4680    6.8110 O.3   4001  NK14001    -0.2222
      6  C4        28.5620   66.7080    7.5720 C.3   4001  NK14001     0.0347
      7  C3        28.5310   66.3400    9.0540 C.3   4001  NK14001     0.0135
      8  C2        29.8920   66.4390    9.7390 C.3   4001  NK14001     0.0484
      9  S1        31.0680   65.3100    8.9600 S.3   4001  NK14001    -0.1729
     10  C9        32.6790   66.0660    9.2080 C.3   4001  NK14001     0.0838
     11  C8        33.0380   66.7310    7.8710 C.3   4001  NK14001     0.1929
     12  O8        33.9040   65.8570    7.1340 O.3   4001  NK14001    -0.2195
@<TRIPOS>BOND
     1     1     2    1
     2     4     5    1
     3     4     3    1
     4     4     6    1
     5    12    11    1
     6     2     3    1
     7     2    11    1
     8     3     9    1
     9     6     7    1
    10    11    10    1
    11     9    10    1
    12     9     8    1
    13     7     8    1
