@<TRIPOS>MOLECULE
2ow7_NK2_A_1.pdb
 11 12 0 0 0
SMALL
GASTEIGER

@<TRIPOS>ATOM
      1  O7        31.7020   66.8190    6.2520 O.3   6001  NK26001    -0.2195
      2  C7        31.5130   66.2910    7.5660 C.3   6001  NK26001     0.1920
      3  C6        30.6750   64.9970    7.5380 C.3   6001  NK26001     0.0720
      4  C5        29.2670   65.1930    6.9370 C.3   6001  NK26001     0.0127
      5  C4        28.3170   66.0200    7.8000 C.3   6001  NK26001     0.0018
      6  C3        28.2320   65.5710    9.2740 C.3   6001  NK26001     0.0109
      7  C2        29.5430   65.6830   10.0510 C.3   6001  NK26001     0.0482
      8  S1        30.7980   64.6380    9.2980 S.3   6001  NK26001    -0.1752
      9  C9        32.4620   65.2830    9.6250 C.3   6001  NK26001     0.0838
     10  C8        32.7950   66.0260    8.3280 C.3   6001  NK26001     0.1928
     11  O8        33.7090   65.2390    7.5710 O.3   6001  NK26001    -0.2195
@<TRIPOS>BOND
     1     1     2    1
     2     4     3    1
     3     4     5    1
     4     3     2    1
     5     3     8    1
     6     2    10    1
     7    11    10    1
     8     5     6    1
     9    10     9    1
    10     6     7    1
    11     8     9    1
    12     8     7    1
