@<TRIPOS>MOLECULE
2ow9_SP6_A_1.pdb
 28 31 0 0 0
SMALL
GASTEIGER

@<TRIPOS>ATOM
      1  N1        52.4370   10.8670    9.5550 N.ar  501  SP6501     -0.2524
      2  C4        49.2400   10.5110    7.6940 C.3   501  SP6501      0.1403
      3  C5        51.1270   10.9560    9.2620 C.ar  501  SP6501      0.3383
      4  C6        53.0010   11.3130   10.7160 C.ar  501  SP6501      0.0978
      5  C7        55.0790   11.4280   11.8040 C.2   501  SP6501      0.3492
      6  C8        54.3290   11.0920   10.7340 C.ar  501  SP6501      0.1241
      7  C10       47.3490    6.9380    9.2510 C.ar  501  SP6501     -0.0000
      8  C13       46.8700    7.5450    8.0900 C.ar  501  SP6501     -0.0003
      9  C15       47.4810    8.6990    7.5880 C.ar  501  SP6501     -0.0024
     10  C17       49.0530    8.6340    9.4130 C.ar  501  SP6501     -0.0024
     11  C20       56.8610   10.1720   14.2470 C.ar  501  SP6501      0.0213
     12  C21       48.5790    9.2550    8.2470 C.ar  501  SP6501      0.0006
     13  O3        54.6350   12.0970   12.7350 O.2   501  SP6501     -0.2443
     14  O4        56.4350   10.9240   11.9440 O.3   501  SP6501     -0.4401
     15  C11       57.1970   11.1560   13.1370 C.3   501  SP6501      0.2354
     16  C16       57.5240   10.2740   15.4770 C.ar  501  SP6501     -0.0007
     17  C18       57.2480    9.3910   16.5280 C.ar  501  SP6501     -0.0002
     18  C14       55.8990    9.1730   14.0780 C.ar  501  SP6501     -0.0007
     19  C12       55.6180    8.2850   15.1230 C.ar  501  SP6501     -0.0002
     20  C9        56.2860    8.3900   16.3440 C.ar  501  SP6501     -0.0000
     21  C3        53.3330   10.3140    8.7300 C.ar  501  SP6501      0.1032
     22  S1        54.9250   10.3220    9.3540 S.2   501  SP6501     -0.0612
     23  C2        52.9500    9.7940    7.4870 C.ar  501  SP6501      0.0852
     24  C1        51.5970    9.8550    7.1310 C.ar  501  SP6501      0.2666
     25  O1        51.1980    9.4030    6.0310 O.2   501  SP6501     -0.2668
     26  O2        50.3130   11.4770   10.0630 O.2   501  SP6501     -0.2458
     27  N6        50.6720   10.4450    8.0270 N.ar  501  SP6501     -0.2442
     28  C19       48.4470    7.4840    9.9150 C.ar  501  SP6501     -0.0003
@<TRIPOS>BOND
     1    25    24    2
     2    24    23   ar
     3    24    27   ar
     4    23    21   ar
     5     9     8   ar
     6     9    12   ar
     7     2    27    1
     8     2    12    1
     9    27     3   ar
    10     8     7   ar
    11    12    10   ar
    12    21    22   ar
    13    21     1   ar
    14     7    28   ar
    15     3     1   ar
    16     3    26    2
    17    22     6   ar
    18    10    28   ar
    19     1     4   ar
    20     4     6   ar
    21     6     5    1
    22     5    14    1
    23     5    13    2
    24    14    15    1
    25    15    11    1
    26    18    11   ar
    27    18    19   ar
    28    11    16   ar
    29    19    20   ar
    30    16    17   ar
    31    20    17   ar
