@<TRIPOS>MOLECULE
2owb_626_A_1.pdb
 32 36 0 0 0
SMALL
GASTEIGER

@<TRIPOS>ATOM
      1  C1        -0.6310   28.7700   64.1010 C.2   500  626500      0.2346
      2  O2        -0.2580   29.7610   63.4780 O.2   500  626500     -0.2741
      3  N3        -0.0340   28.4200   65.2440 N.am  500  626500     -0.2509
      4  N4         2.2070   28.5660   68.0640 N.2   500  626500     -0.0365
      5  C5         1.0950   26.8180   68.4280 C.2   500  626500      0.3979
      6  N6         2.0440   27.5860   68.8750 N.2   500  626500      0.0844
      7  N7         0.7470   25.6700   69.1520 N.am  500  626500      0.0385
      8  C8        -0.1730   24.7700   68.7470 C.2   500  626500      0.3756
      9  C9        -0.4150   23.5420   69.5720 C.ar  500  626500      0.0821
     10  O10       -0.8200   24.8810   67.7080 O.2   500  626500     -0.2377
     11  C11        0.2030   23.3230   70.8220 C.ar  500  626500      0.0082
     12  C12       -0.0320   22.1590   71.5690 C.ar  500  626500      0.0147
     13  C13       -1.5290   21.3650   69.8610 C.ar  500  626500      0.0147
     14  C14       -1.2930   22.5310   69.1120 C.ar  500  626500      0.0082
     15  C15        1.3560   28.5080   66.9920 C.2   500  626500      0.1343
     16  C16        0.6220   27.4120   67.1700 C.2   500  626500      0.1225
     17  C17       -0.3620   27.2160   66.0640 C.2   500  626500      0.0768
     18  C18        1.0500   29.2840   65.7690 C.3   500  626500      0.1481
     19  N19       -1.1260   19.9640   71.9180 N.pl3 500  626500     -0.3046
     20  C20       -1.7640   18.7760   71.3230 C.3   500  626500      0.1081
     21  C21       -0.7340   18.0130   70.4850 C.3   500  626500      0.0938
     22  N22        0.4230   17.6180   71.3230 N.3   500  626500     -0.2686
     23  C23        0.9990   18.7730   72.0480 C.3   500  626500      0.0938
     24  C24       -0.0820   19.5050   72.8470 C.3   500  626500      0.1081
     25  C25        1.4540   16.8830   70.5530 C.3   500  626500      0.0897
     26  C26       -0.9040   21.1450   71.1150 C.ar  500  626500      0.0479
     27  C27       -1.1010   25.1660   60.8630 C.ar  500  626500      0.0351
     28  C28        0.0640   25.9230   60.9060 C.ar  500  626500      0.0072
     29  S29       -2.3310   25.7200   61.9460 S.2   500  626500     -0.0903
     30  C30       -0.0550   27.0070   61.8670 C.ar  500  626500      0.0032
     31  C31       -1.3080   26.9940   62.4920 C.ar  500  626500      0.0165
     32  C32       -1.7960   27.9610   63.5460 C.3   500  626500      0.1184
@<TRIPOS>BOND
     1    27    28   ar
     2    27    29   ar
     3    28    30   ar
     4    30    31   ar
     5    29    31   ar
     6    31    32    1
     7     2     1    2
     8    32     1    1
     9     1     3   am
    10     3    18    1
    11     3    17    1
    12    18    15    1
    13    17    16    2
    14    15    16    1
    15    15     4    2
    16    16     5    1
    17    10     8    2
    18     4     6    1
    19     5     6    2
    20     5     7    1
    21     8     7   am
    22     8     9    1
    23    14     9   ar
    24    14    13   ar
    25     9    11   ar
    26    13    26   ar
    27    21    22    1
    28    21    20    1
    29    25    22    1
    30    11    12   ar
    31    26    12   ar
    32    26    19    1
    33    22    23    1
    34    20    19    1
    35    19    24    1
    36    23    24    1
