@<TRIPOS>MOLECULE
2owc_ACR_A_1.pdb
 32 34 0 0 0
SMALL
GASTEIGER

@<TRIPOS>ATOM
      1  C1A       54.3310   39.7900   77.6020 C.3   600  ACR600      0.1273
      2  C2A       54.6640   41.1170   76.9210 C.3   600  ACR600      0.2049
      3  C3A       55.1580   42.1560   77.9190 C.3   600  ACR600      0.2179
      4  C4A       54.0760   42.4770   78.9350 C.3   600  ACR600      0.2053
      5  C5A       53.4790   41.2180   79.5150 C.2   600  ACR600      0.0180
      6  C6A       52.7230   41.3220   80.8230 C.3   600  ACR600      0.2066
      7  C7A       53.5910   40.0190   78.9060 C.2   600  ACR600     -0.0100
      8  O2A       55.6660   40.9420   75.9250 O.3   600  ACR600     -0.2184
      9  O3A       55.5210   43.3460   77.2280 O.3   600  ACR600     -0.2172
     10  O4A       54.6520   43.2590   79.9750 O.3   600  ACR600     -0.2157
     11  O6A       51.8620   40.2030   80.9990 O.3   600  ACR600     -0.2155
     12  C1B       54.8140   34.8370   77.9380 C.3   600  ACR600      0.2694
     13  C2B       55.3030   35.5380   79.2100 C.3   600  ACR600      0.2394
     14  C3B       55.0140   37.0300   79.1660 C.3   600  ACR600      0.2054
     15  C4B       55.6400   37.5800   77.8850 C.3   600  ACR600      0.1333
     16  C5B       55.0060   36.8750   76.6710 C.3   600  ACR600      0.1364
     17  C6B       55.5160   37.4000   75.3350 C.3   600  ACR600      0.0337
     18  N4B       55.5600   39.0340   77.8300 N.3   600  ACR600     -0.2087
     19  O2B       54.6680   34.9860   80.3500 O.3   600  ACR600     -0.2149
     20  O3B       55.5470   37.6610   80.3340 O.3   600  ACR600     -0.2186
     21  O5B       55.2920   35.4870   76.7490 O.3   600  ACR600     -0.3295
     22  C1C       50.5610   32.1320   76.3320 C.3   600  ACR600      0.1777
     23  C2C       51.9100   31.5740   76.8590 C.3   600  ACR600      0.2140
     24  C3C       52.6470   32.5410   77.7690 C.3   600  ACR600      0.2141
     25  C4C       52.7350   33.9200   77.1170 C.3   600  ACR600      0.1802
     26  C5C       51.3100   34.3980   76.8440 C.3   600  ACR600      0.1778
     27  C6C       51.1620   35.8290   76.3140 C.3   600  ACR600      0.2140
     28  O2C       51.7040   30.3430   77.5220 O.3   600  ACR600     -0.2176
     29  O3C       53.9190   31.9770   77.9980 O.3   600  ACR600     -0.2176
     30  O4C       53.3880   34.8440   77.9770 O.3   600  ACR600     -0.3257
     31  O5C       50.7650   33.4960   75.8930 O.3   600  ACR600     -0.3482
     32  O6C       52.0240   36.0200   75.2010 O.3   600  ACR600     -0.2176
@<TRIPOS>BOND
     1    32    27    1
     2    17    16    1
     3    31    22    1
     4    31    26    1
     5     8     2    1
     6    27    26    1
     7    22    23    1
     8    16    21    1
     9    16    15    1
    10    21    12    1
    11    26    25    1
    12    23    28    1
    13    23    24    1
    14     2     1    1
    15     2     3    1
    16    25    24    1
    17    25    30    1
    18     9     3    1
    19     1    18    1
    20     1     7    1
    21    24    29    1
    22    18    15    1
    23    15    14    1
    24     3     4    1
    25    12    30    1
    26    12    13    1
    27     7     5    2
    28     4     5    1
    29     4    10    1
    30    14    13    1
    31    14    20    1
    32    13    19    1
    33     5     6    1
    34     6    11    1
