@<TRIPOS>MOLECULE
2owf_SAH_A_1.pdb
 26 28 0 0 0
SMALL
GASTEIGER

@<TRIPOS>ATOM
      1  N         53.5000    7.8890    4.9750 N.3   301  SAH301     -0.1208
      2  CA        53.3610    8.1860    3.5420 C.3   301  SAH301      0.1952
      3  CB        54.6350    8.8530    3.0140 C.3   301  SAH301      0.0422
      4  CG        55.0080   10.1020    3.8150 C.3   301  SAH301      0.0597
      5  SD        56.3570   11.0650    3.0370 S.3   301  SAH301     -0.1375
      6  C         53.1080    6.8830    2.7790 C.2   301  SAH301      0.3819
      7  O         52.7170    5.8790    3.3710 O.co2 301  SAH301     -0.2441
      8  OXT       53.2920    6.8240    1.5640 O.co2 301  SAH301     -0.2441
      9  C5'       55.3560   12.1380    1.9450 C.3   301  SAH301      0.0899
     10  C4'       56.0010   12.3660    0.5770 C.3   301  SAH301      0.1630
     11  O4'       55.9170   11.2130   -0.2790 O.3   301  SAH301     -0.3153
     12  C3'       55.2980   13.4690   -0.2130 C.3   301  SAH301      0.2168
     13  O3'       55.7350   14.7430    0.2680 O.3   301  SAH301     -0.2175
     14  C2'       55.9690   13.1870   -1.5540 C.3   301  SAH301      0.2569
     15  O2'       57.3680   13.4590   -1.4330 O.3   301  SAH301     -0.2130
     16  C1'       55.7420   11.6760   -1.6330 C.3   301  SAH301      0.3185
     17  N9        54.3540   11.4080   -2.0810 N.pl3 301  SAH301     -0.1439
     18  C8        53.2920   11.2160   -1.3000 C.3   301  SAH301      0.3377
     19  N7        52.2080   11.0330   -2.0500 N.2   301  SAH301     -0.2095
     20  C5        52.5790   11.1060   -3.3250 C.2   301  SAH301      0.2526
     21  C6        51.9140   11.0040   -4.5420 C.2   301  SAH301      0.4393
     22  N6        50.5900   10.8740   -4.5830 N.pl3 301  SAH301      0.2180
     23  N1        52.6180   11.1180   -5.6790 N.2   301  SAH301      0.0021
     24  C2        53.9220   11.3360   -5.6650 C.3   301  SAH301      0.5254
     25  N3        54.5800   11.4490   -4.5240 N.2   301  SAH301     -0.0055
     26  C4        53.9470   11.3400   -3.3460 C.2   301  SAH301      0.3518
@<TRIPOS>BOND
     1    23    24    1
     2    23    21    2
     3    24    25    1
     4    22    21    1
     5    21    20    1
     6    25    26    2
     7    26    20    1
     8    26    17    1
     9    20    19    2
    10    17    16    1
    11    17    18    1
    12    19    18    1
    13    16    14    1
    14    16    11    1
    15    14    15    1
    16    14    12    1
    17    11    10    1
    18    12    13    1
    19    12    10    1
    20    10     9    1
    21     8     6   ar
    22     9     5    1
    23     6     7   ar
    24     6     2    1
    25     3     2    1
    26     3     4    1
    27     5     4    1
    28     2     1    1
