@<TRIPOS>MOLECULE
2owg_SAH_A_1.pdb
 26 28 0 0 0
SMALL
GASTEIGER

@<TRIPOS>ATOM
      1  N         33.2060   91.8410   66.1550 N.3   1301  SAH1301    -0.1208
      2  CA        31.7820   91.5720   65.9090 C.3   1301  SAH1301     0.1952
      3  CB        31.1260   91.0090   67.1720 C.3   1301  SAH1301     0.0422
      4  CG        31.7960   89.7210   67.6530 C.3   1301  SAH1301     0.0597
      5  SD        30.8720   88.9440   69.0290 S.3   1301  SAH1301    -0.1375
      6  C         31.0740   92.8770   65.5390 C.2   1301  SAH1301     0.3819
      7  O         31.6980   93.9380   65.5240 O.co2 1301  SAH1301    -0.2441
      8  OXT       29.8750   92.8750   65.2680 O.co2 1301  SAH1301    -0.2441
      9  C5'       29.7760   87.8300   68.0760 C.3   1301  SAH1301     0.0899
     10  C4'       28.3190   87.8450   68.5460 C.3   1301  SAH1301     0.1630
     11  O4'       27.6860   89.1150   68.3090 O.3   1301  SAH1301    -0.3153
     12  C3'       27.4820   86.8330   67.7630 C.3   1301  SAH1301     0.2168
     13  O3'       27.6360   85.5400   68.3540 O.3   1301  SAH1301    -0.2175
     14  C2'       26.0930   87.3730   68.0930 C.3   1301  SAH1301     0.2569
     15  O2'       25.7650   87.1150   69.4610 O.3   1301  SAH1301    -0.2130
     16  C1'       26.3340   88.8700   67.8790 C.3   1301  SAH1301     0.3185
     17  N9        26.2150   89.2140   66.4420 N.pl3 1301  SAH1301    -0.1439
     18  C8        27.2170   89.4440   65.5940 C.3   1301  SAH1301     0.3377
     19  N7        26.7280   89.7830   64.4040 N.2   1301  SAH1301    -0.2095
     20  C5        25.4000   89.7670   64.4900 C.2   1301  SAH1301     0.2526
     21  C6        24.3600   90.0250   63.6050 C.2   1301  SAH1301     0.4393
     22  N6        24.6120   90.3810   62.3480 N.pl3 1301  SAH1301     0.2180
     23  N1        23.0930   89.9100   64.0320 N.2   1301  SAH1301     0.0021
     24  C2        22.8160   89.5540   65.2750 C.3   1301  SAH1301     0.5254
     25  N3        23.7810   89.3030   66.1430 N.2   1301  SAH1301    -0.0055
     26  C4        25.0730   89.4000   65.7870 C.2   1301  SAH1301     0.3518
@<TRIPOS>BOND
     1    22    21    1
     2    21    23    2
     3    21    20    1
     4    23    24    1
     5    19    20    2
     6    19    18    1
     7    20    26    1
     8     8     6   ar
     9    24    25    1
    10     7     6   ar
    11     6     2    1
    12    18    17    1
    13    26    25    2
    14    26    17    1
    15     2     1    1
    16     2     3    1
    17    17    16    1
    18     3     4    1
    19     4     5    1
    20    12    14    1
    21    12    13    1
    22    12    10    1
    23    16    14    1
    24    16    11    1
    25     9    10    1
    26     9     5    1
    27    14    15    1
    28    11    10    1
