@<TRIPOS>MOLECULE
2owh_HEM_A_1.pdb
 43 50 0 0 0
SMALL
GASTEIGER

@<TRIPOS>ATOM
      1 FE         -9.3440   51.0440   53.1790 Fe    719  HEM719      0.0000
      2  CHA       -6.5050   49.1670   52.5250 C.2   719  HEM719      0.0000
      3  CHB       -8.3920   53.2690   50.7730 C.2   719  HEM719      0.0000
      4  CHC      -11.4510   53.6370   54.4460 C.2   719  HEM719      0.0000
      5  CHD       -9.7010   49.3820   56.1320 C.2   719  HEM719      0.0000
      6  NA        -7.7700   51.1560   51.9280 N.ar  719  HEM719      0.0000
      7  C1A       -6.7160   50.2900   51.8160 C.ar  719  HEM719      0.0000
      8  C2A       -5.8390   50.7300   50.7500 C.ar  719  HEM719      0.0000
      9  C3A       -6.3750   51.8850   50.2450 C.ar  719  HEM719      0.0000
     10  C4A       -7.5900   52.1700   51.0000 C.ar  719  HEM719      0.0000
     11  CMA       -5.8380   52.8280   49.1140 C.3   719  HEM719      0.0000
     12  CAA       -4.5610   49.9350   50.3540 C.3   719  HEM719      0.0000
     13  CBA       -3.7540   50.7300   49.3310 C.3   719  HEM719      0.0000
     14  CGA       -2.7950   49.9010   48.5100 C.2   719  HEM719      0.0000
     15  O1A       -1.7530   50.5320   48.1300 O.co2 719  HEM719      0.0000
     16  O2A       -3.0440   48.6650   48.2570 O.co2 719  HEM719      0.0000
     17  NB        -9.8050   53.1740   52.8070 N.2   719  HEM719      0.0000
     18  C1B       -9.4240   53.7310   51.5710 C.2   719  HEM719      0.0000
     19  C2B      -10.3290   54.8400   51.2490 C.2   719  HEM719      0.0000
     20  C3B      -11.2140   54.9560   52.2670 C.2   719  HEM719      0.0000
     21  C4B      -10.8710   53.9140   53.2640 C.2   719  HEM719      0.0000
     22  CMB      -10.3270   55.6840   49.9610 C.3   719  HEM719      0.0000
     23  CAB      -12.3650   56.0250   52.2870 C.2   719  HEM719      0.0000
     24  CBB      -13.5390   55.8860   52.8930 C.2   719  HEM719      0.0000
     25  NC       -10.3340   51.4340   54.9310 N.ar  719  HEM719      0.0000
     26  C1C      -11.1440   52.5330   55.2120 C.ar  719  HEM719      0.0000
     27  C2C      -11.6510   52.3340   56.5490 C.ar  719  HEM719      0.0000
     28  C3C      -11.1900   51.1570   57.0540 C.ar  719  HEM719      0.0000
     29  C4C      -10.3520   50.5700   56.0240 C.ar  719  HEM719      0.0000
     30  CMC      -12.6000   53.3450   57.2540 C.3   719  HEM719      0.0000
     31  CAC      -11.5430   50.5780   58.4730 C.2   719  HEM719      0.0000
     32  CBC      -10.6400   49.9240   59.2170 C.2   719  HEM719      0.0000
     33  ND        -8.2130   49.5870   54.1830 N.2   719  HEM719      0.0000
     34  C1D       -8.6650   48.9670   55.3440 C.2   719  HEM719      0.0000
     35  C2D       -7.8540   47.7890   55.6040 C.2   719  HEM719      0.0000
     36  C3D       -6.8620   47.7070   54.4710 C.2   719  HEM719      0.0000
     37  C4D       -7.1620   48.8600   53.6570 C.2   719  HEM719      0.0000
     38  CMD       -7.9470   46.8140   56.7600 C.3   719  HEM719      0.0000
     39  CAD       -5.7550   46.6530   54.2920 C.3   719  HEM719      0.0000
     40  CBD       -4.5700   47.0320   55.1900 C.3   719  HEM719      0.0000
     41  CGD       -3.3780   47.6900   54.5090 C.2   719  HEM719      0.0000
     42  O1D       -2.3200   47.9120   55.1870 O.co2 719  HEM719      0.0000
     43  O2D       -3.4560   47.9970   53.2730 O.co2 719  HEM719      0.0000
@<TRIPOS>BOND
     1    15    14   ar
     2    16    14   ar
     3    14    13    1
     4    11     9    1
     5    13    12    1
     6    22    19    1
     7     9     8   ar
     8     9    10   ar
     9    12     8    1
    10     8     7   ar
    11     3    10    2
    12     3    18    1
    13    10     6   ar
    14    19    18    1
    15    19    20    2
    16    18    17    2
    17     7     6   ar
    18     7     2    2
    19     6     1    1
    20    20    23    1
    21    20    21    1
    22    23    24    2
    23     2    37    1
    24    17     1    1
    25    17    21    1
    26     1    33    1
    27     1    25    1
    28    21     4    2
    29    43    41   ar
    30    37    33    2
    31    37    36    1
    32    33    34    1
    33    39    36    1
    34    39    40    1
    35     4    26    1
    36    36    35    2
    37    41    42   ar
    38    41    40    1
    39    25    26   ar
    40    25    29   ar
    41    26    27   ar
    42    34    35    1
    43    34     5    2
    44    35    38    1
    45    29     5    1
    46    29    28   ar
    47    27    28   ar
    48    27    30    1
    49    28    31    1
    50    31    32    2
