@<TRIPOS>MOLECULE
2owj_HEM_A_1.pdb
 43 50 0 0 0
SMALL
GASTEIGER

@<TRIPOS>ATOM
      1 FE         -8.7500   51.0930   53.1790 Fe    719  HEM719      0.0000
      2  CHA       -6.2370   49.0090   52.1160 C.2   719  HEM719      0.0000
      3  CHB       -8.3920   53.0370   50.4830 C.2   719  HEM719      0.0000
      4  CHC      -11.3020   53.3320   54.3370 C.2   719  HEM719      0.0000
      5  CHD       -9.3730   49.1520   55.8690 C.2   719  HEM719      0.0000
      6  NA        -7.5640   51.0030   51.5900 N.ar  719  HEM719      0.0000
      7  C1A       -6.5180   50.1250   51.3690 C.ar  719  HEM719      0.0000
      8  C2A       -5.7730   50.5750   50.2070 C.ar  719  HEM719      0.0000
      9  C3A       -6.3750   51.6910   49.7380 C.ar  719  HEM719      0.0000
     10  C4A       -7.5220   51.9780   50.6050 C.ar  719  HEM719      0.0000
     11  CMA       -5.9150   52.5210   48.4970 C.3   719  HEM719      0.0000
     12  CAA       -4.5690   49.8340   49.5980 C.3   719  HEM719      0.0000
     13  CBA       -3.2340   50.5080   49.7880 C.3   719  HEM719      0.0000
     14  CGA       -2.3360   49.9690   48.7060 C.2   719  HEM719      0.0000
     15  O1A       -1.3340   50.6640   48.3660 O.co2 719  HEM719      0.0000
     16  O2A       -2.6150   48.8440   48.1950 O.co2 719  HEM719      0.0000
     17  NB        -9.6750   52.8570   52.6090 N.2   719  HEM719      0.0000
     18  C1B       -9.3830   53.4200   51.3630 C.2   719  HEM719      0.0000
     19  C2B      -10.3090   54.5200   51.1380 C.2   719  HEM719      0.0000
     20  C3B      -11.1200   54.6210   52.1860 C.2   719  HEM719      0.0000
     21  C4B      -10.7370   53.5820   53.1290 C.2   719  HEM719      0.0000
     22  CMB      -10.3570   55.4390   49.9040 C.3   719  HEM719      0.0000
     23  CAB      -12.2250   55.7010   52.2870 C.2   719  HEM719      0.0000
     24  CBB      -13.2390   55.6350   53.1570 C.2   719  HEM719      0.0000
     25  NC       -10.1280   51.2280   54.7290 N.ar  719  HEM719      0.0000
     26  C1C      -10.9640   52.2530   55.0950 C.ar  719  HEM719      0.0000
     27  C2C      -11.4340   52.0050   56.4340 C.ar  719  HEM719      0.0000
     28  C3C      -10.8970   50.8390   56.8860 C.ar  719  HEM719      0.0000
     29  C4C      -10.0730   50.3370   55.8070 C.ar  719  HEM719      0.0000
     30  CMC      -12.3930   52.9850   57.1500 C.3   719  HEM719      0.0000
     31  CAC      -11.0340   50.0720   58.2530 C.2   719  HEM719      0.0000
     32  CBC      -11.7560   50.4350   59.3310 C.2   719  HEM719      0.0000
     33  ND        -7.9630   49.3730   53.8370 N.2   719  HEM719      0.0000
     34  C1D       -8.3690   48.7560   55.0270 C.2   719  HEM719      0.0000
     35  C2D       -7.5310   47.6060   55.2640 C.2   719  HEM719      0.0000
     36  C3D       -6.5540   47.5460   54.0870 C.2   719  HEM719      0.0000
     37  C4D       -6.8860   48.6810   53.2680 C.2   719  HEM719      0.0000
     38  CMD       -7.6220   46.6580   56.4560 C.3   719  HEM719      0.0000
     39  CAD       -5.4120   46.5390   53.8590 C.3   719  HEM719      0.0000
     40  CBD       -4.3870   46.9830   54.9170 C.3   719  HEM719      0.0000
     41  CGD       -3.0360   47.4120   54.3680 C.2   719  HEM719      0.0000
     42  O1D       -2.2280   47.9780   55.1730 O.co2 719  HEM719      0.0000
     43  O2D       -2.7480   47.1680   53.1560 O.co2 719  HEM719      0.0000
@<TRIPOS>BOND
     1    16    14   ar
     2    15    14   ar
     3    11     9    1
     4    14    13    1
     5    12    13    1
     6    12     8    1
     7     9     8   ar
     8     9    10   ar
     9    22    19    1
    10     8     7   ar
    11     3    10    2
    12     3    18    1
    13    10     6   ar
    14    19    18    1
    15    19    20    2
    16    18    17    2
    17     7     6   ar
    18     7     2    2
    19     6     1    1
    20     2    37    1
    21    20    23    1
    22    20    21    1
    23    23    24    2
    24    17    21    1
    25    17     1    1
    26    21     4    2
    27    43    41   ar
    28     1    33    1
    29     1    25    1
    30    37    33    2
    31    37    36    1
    32    33    34    1
    33    39    36    1
    34    39    40    1
    35    36    35    2
    36     4    26    1
    37    41    40    1
    38    41    42   ar
    39    25    26   ar
    40    25    29   ar
    41    34    35    1
    42    34     5    2
    43    26    27   ar
    44    35    38    1
    45    29     5    1
    46    29    28   ar
    47    27    28   ar
    48    27    30    1
    49    28    31    1
    50    31    32    2
