@<TRIPOS>MOLECULE
2owk_SAH_A_1.pdb
 26 28 0 0 0
SMALL
GASTEIGER

@<TRIPOS>ATOM
      1  N         33.8520   93.5110   66.5730 N.3   1301  SAH1301    -0.1208
      2  CA        32.4220   93.0410   66.3280 C.3   1301  SAH1301     0.1952
      3  CB        31.7440   92.2740   67.4250 C.3   1301  SAH1301     0.0422
      4  CG        32.3900   90.9940   67.9390 C.3   1301  SAH1301     0.0597
      5  SD        31.2630   90.2890   69.2110 S.3   1301  SAH1301    -0.1375
      6  C         31.5930   94.3350   65.9470 C.2   1301  SAH1301     0.3819
      7  O         32.1790   95.4380   65.9210 O.co2 1301  SAH1301    -0.2441
      8  OXT       30.3400   94.1540   65.6800 O.co2 1301  SAH1301    -0.2441
      9  C5'       30.3480   89.1790   68.2200 C.3   1301  SAH1301     0.0899
     10  C4'       28.8670   89.1030   68.7580 C.3   1301  SAH1301     0.1630
     11  O4'       28.2570   90.3960   68.5430 O.3   1301  SAH1301    -0.3153
     12  C3'       27.9950   88.1040   68.0820 C.3   1301  SAH1301     0.2168
     13  O3'       28.1290   86.8270   68.6920 O.3   1301  SAH1301    -0.2175
     14  C2'       26.6060   88.7600   68.2350 C.3   1301  SAH1301     0.2569
     15  O2'       26.0310   88.4910   69.5190 O.3   1301  SAH1301    -0.2130
     16  C1'       26.8810   90.2520   67.9750 C.3   1301  SAH1301     0.3185
     17  N9        26.8450   90.6240   66.6710 N.pl3 1301  SAH1301    -0.1439
     18  C8        27.7990   90.9360   65.7180 C.3   1301  SAH1301     0.3377
     19  N7        27.3330   91.2590   64.5490 N.2   1301  SAH1301    -0.2095
     20  C5        25.9190   91.1680   64.6950 C.2   1301  SAH1301     0.2526
     21  C6        24.8420   91.4070   63.7610 C.2   1301  SAH1301     0.4393
     22  N6        25.0240   91.7850   62.4850 N.pl3 1301  SAH1301     0.2180
     23  N1        23.5780   91.2120   64.2730 N.2   1301  SAH1301     0.0021
     24  C2        23.3420   90.8260   65.5620 C.3   1301  SAH1301     0.5254
     25  N3        24.3440   90.5930   66.4790 N.2   1301  SAH1301    -0.0055
     26  C4        25.6020   90.7820   65.9770 C.2   1301  SAH1301     0.3518
@<TRIPOS>BOND
     1    22    21    1
     2    21    23    2
     3    21    20    1
     4    23    24    1
     5    19    20    2
     6    19    18    1
     7    20    26    1
     8    24    25    1
     9     8     6   ar
    10    18    17    1
    11     7     6   ar
    12     6     2    1
    13    26    25    2
    14    26    17    1
    15     2     1    1
    16     2     3    1
    17    17    16    1
    18     3     4    1
    19     4     5    1
    20    16    14    1
    21    16    11    1
    22    12    14    1
    23    12    13    1
    24    12    10    1
    25     9    10    1
    26     9     5    1
    27    14    15    1
    28    11    10    1
