@<TRIPOS>MOLECULE
2owm_ADP_A_1.pdb
 27 29 0 0 0
SMALL
GASTEIGER

@<TRIPOS>ATOM
      1  PB        36.7870   28.9400   45.4500 P.3   1002  ADP1002     0.5373
      2  O1B       37.7010   29.4150   44.3210 O.2   1002  ADP1002    -0.2221
      3  O2B       37.3270   28.8290   46.8720 O.3   1002  ADP1002    -0.1143
      4  O3B       35.3800   29.5130   45.3430 O.3   1002  ADP1002    -0.1143
      5  PA        35.4150   26.9690   44.0470 P.3   1002  ADP1002     0.2231
      6  O1A       34.0670   26.9450   44.7530 O.3   1002  ADP1002    -0.4370
      7  O2A       35.5900   27.8680   42.8560 O.2   1002  ADP1002    -0.5169
      8  O3A       36.5500   27.3920   45.0880 O.3   1002  ADP1002    -0.2261
      9  O5'       35.7880   25.4320   43.8030 O.3   1002  ADP1002    -0.3111
     10  C5'       36.9630   25.0280   43.1730 C.3   1002  ADP1002     0.1813
     11  C4'       36.6370   23.7680   42.3550 C.3   1002  ADP1002     0.1821
     12  O4'       36.3860   22.5970   43.1470 O.3   1002  ADP1002    -0.3135
     13  C3'       35.4070   23.8990   41.4590 C.3   1002  ADP1002     0.2184
     14  O3'       35.6040   23.1350   40.2410 O.3   1002  ADP1002    -0.2174
     15  C2'       34.3320   23.2290   42.2610 C.3   1002  ADP1002     0.2570
     16  O2'       33.3000   22.7460   41.4320 O.3   1002  ADP1002    -0.2130
     17  C1'       35.0890   22.0780   42.8580 C.3   1002  ADP1002     0.3186
     18  N9        34.4730   21.8170   44.1400 N.pl3 1002  ADP1002    -0.1439
     19  C8        34.2430   22.7820   45.0280 C.3   1002  ADP1002     0.3377
     20  N7        33.6680   22.3150   46.1590 N.2   1002  ADP1002    -0.2095
     21  C5        33.5580   21.0210   45.9770 C.2   1002  ADP1002     0.2526
     22  C6        33.0430   19.9750   46.8160 C.2   1002  ADP1002     0.4393
     23  N6        32.5780   20.4020   47.9870 N.pl3 1002  ADP1002     0.2180
     24  N1        33.0400   18.7070   46.3700 N.2   1002  ADP1002     0.0021
     25  C2        33.5250   18.4450   45.1340 C.3   1002  ADP1002     0.5254
     26  N3        34.0400   19.3830   44.3020 N.2   1002  ADP1002    -0.0055
     27  C4        34.0780   20.6780   44.6630 C.2   1002  ADP1002     0.3518
@<TRIPOS>BOND
     1    14    13    1
     2    16    15    1
     3    13    15    1
     4    13    11    1
     5    15    17    1
     6    11    12    1
     7    11    10    1
     8     7     5    2
     9    17    12    1
    10    17    18    1
    11    10     9    1
    12     9     5    1
    13     5     6    1
    14     5     8    1
    15    18    27    1
    16    18    19    1
    17    26    27    2
    18    26    25    1
    19     2     1    2
    20    27    21    1
    21    19    20    1
    22     8     1    1
    23    25    24    1
    24     4     1    1
    25     1     3    1
    26    21    20    2
    27    21    22    1
    28    24    22    2
    29    22    23    1
