@<TRIPOS>MOLECULE
2owo_AMP_D_1.pdb
 23 25 0 0 0
SMALL
GASTEIGER

@<TRIPOS>ATOM
      1  P         25.2370   10.9910    8.9300 P.3    53  AMP53       0.5327
      2  O1P       25.8840   12.1800    8.3640 O.2    53  AMP53      -0.2224
      3  O2P       25.3980   10.8200   10.4290 O.3    53  AMP53      -0.1145
      4  O3P       23.7020   11.0350    8.5670 O.3    53  AMP53      -0.1145
      5  O5'       25.7200    9.6600    8.1450 O.3    53  AMP53      -0.2675
      6  C5'       26.0790    8.4290    8.7450 C.3    53  AMP53       0.1860
      7  C4'       24.9980    7.3770    8.4510 C.3    53  AMP53       0.1823
      8  O4'       24.8640    7.1240    7.0550 O.3    53  AMP53      -0.3135
      9  C3'       25.3070    6.0220    9.0760 C.3    53  AMP53       0.2184
     10  O3'       25.0260    6.0040   10.4710 O.3    53  AMP53      -0.2174
     11  C2'       24.4880    5.0640    8.2070 C.3    53  AMP53       0.2570
     12  O2'       23.2660    4.5490    8.6930 O.3    53  AMP53      -0.2130
     13  C1'       24.2360    5.8480    6.9560 C.3    53  AMP53       0.3186
     14  N9        24.6560    5.1120    5.7380 N.pl3  53  AMP53      -0.1439
     15  C8        23.7570    4.7170    4.7670 C.3    53  AMP53       0.3377
     16  N7        24.4080    4.0690    3.7810 N.2    53  AMP53      -0.2095
     17  C5        25.7270    4.0200    4.0920 C.2    53  AMP53       0.2526
     18  C6        26.8380    3.4630    3.4080 C.2    53  AMP53       0.4393
     19  N6        26.6670    2.8450    2.2550 N.pl3  53  AMP53       0.2180
     20  N1        28.1190    3.5650    3.9720 N.2    53  AMP53       0.0021
     21  C2        28.2990    4.2220    5.2050 C.3    53  AMP53       0.5254
     22  N3        27.2080    4.7750    5.8830 N.2    53  AMP53      -0.0055
     23  C4        25.9090    4.6770    5.3320 C.2    53  AMP53       0.3518
@<TRIPOS>BOND
     1    19    18    1
     2    18    20    2
     3    18    17    1
     4    16    17    2
     5    16    15    1
     6    20    21    1
     7    17    23    1
     8    15    14    1
     9    21    22    1
    10    23    14    1
    11    23    22    2
    12    14    13    1
    13    13     8    1
    14    13    11    1
    15     8     7    1
    16     5     6    1
    17     5     1    1
    18    11    12    1
    19    11     9    1
    20     2     1    2
    21     7     6    1
    22     7     9    1
    23     4     1    1
    24     1     3    1
    25     9    10    1
