@<TRIPOS>MOLECULE
2owu_SAH_A_1.pdb
 26 28 0 0 0
SMALL
GASTEIGER

@<TRIPOS>ATOM
      1  N         33.7210   93.2620   67.1440 N.3   1301  SAH1301    -0.1208
      2  CA        32.3170   92.9630   66.8240 C.3   1301  SAH1301     0.1952
      3  CB        31.6200   92.3400   68.0360 C.3   1301  SAH1301     0.0422
      4  CG        32.3300   91.0800   68.5350 C.3   1301  SAH1301     0.0597
      5  SD        31.3890   90.2400   69.8610 S.3   1301  SAH1301    -0.1375
      6  C         31.5900   94.2600   66.4580 C.2   1301  SAH1301     0.3819
      7  O         32.1510   95.3470   66.5920 O.co2 1301  SAH1301    -0.2441
      8  OXT       30.4340   94.2240   66.0390 O.co2 1301  SAH1301    -0.2441
      9  C5'       30.2810   89.1960   68.8450 C.3   1301  SAH1301     0.0899
     10  C4'       28.8170   89.2480   69.2870 C.3   1301  SAH1301     0.1630
     11  O4'       28.2180   90.5310   69.0320 O.3   1301  SAH1301    -0.3153
     12  C3'       27.9650   88.2540   68.4970 C.3   1301  SAH1301     0.2168
     13  O3'       28.0820   86.9570   69.0880 O.3   1301  SAH1301    -0.2175
     14  C2'       26.5870   88.8300   68.8150 C.3   1301  SAH1301     0.2569
     15  O2'       26.2500   88.6080   70.1870 O.3   1301  SAH1301    -0.2130
     16  C1'       26.8680   90.3160   68.5770 C.3   1301  SAH1301     0.3185
     17  N9        26.7910   90.6320   67.1310 N.pl3 1301  SAH1301    -0.1439
     18  C8        27.8180   90.8720   66.3170 C.3   1301  SAH1301     0.3377
     19  N7        27.3700   91.1770   65.1010 N.2   1301  SAH1301    -0.2095
     20  C5        26.0420   91.1290   65.1380 C.2   1301  SAH1301     0.2526
     21  C6        25.0320   91.3610   64.2100 C.2   1301  SAH1301     0.4393
     22  N6        25.3330   91.6830   62.9550 N.pl3 1301  SAH1301     0.2180
     23  N1        23.7510   91.2370   64.5920 N.2   1301  SAH1301     0.0021
     24  C2        23.4330   90.8970   65.8300 C.3   1301  SAH1301     0.5254
     25  N3        24.3680   90.6680   66.7360 N.2   1301  SAH1301    -0.0055
     26  C4        25.6700   90.7770   66.4280 C.2   1301  SAH1301     0.3518
@<TRIPOS>BOND
     1    22    21    1
     2    21    23    2
     3    21    20    1
     4    23    24    1
     5    19    20    2
     6    19    18    1
     7    20    26    1
     8    24    25    1
     9     8     6   ar
    10    18    17    1
    11    26    25    2
    12    26    17    1
    13     6     7   ar
    14     6     2    1
    15     2     1    1
    16     2     3    1
    17    17    16    1
    18     3     4    1
    19    12    14    1
    20    12    13    1
    21    12    10    1
    22     4     5    1
    23    16    14    1
    24    16    11    1
    25    14    15    1
    26     9    10    1
    27     9     5    1
    28    11    10    1
