@<TRIPOS>MOLECULE
2owv_SAH_A_1.pdb
 26 28 0 0 0
SMALL
GASTEIGER

@<TRIPOS>ATOM
      1  N         33.8240   93.7710   66.2230 N.3   301  SAH301     -0.1208
      2  CA        32.4050   93.5540   65.9060 C.3   301  SAH301      0.1952
      3  CB        31.6920   92.9450   67.1150 C.3   301  SAH301      0.0422
      4  CG        32.3800   91.6630   67.5890 C.3   301  SAH301      0.0597
      5  SD        31.4860   90.8470   68.9620 S.3   301  SAH301     -0.1375
      6  C         31.7630   94.8990   65.5610 C.2   301  SAH301      0.3819
      7  O         32.4460   95.9230   65.5550 O.co2 301  SAH301     -0.2441
      8  OXT       30.5640   94.9730   65.2950 O.co2 301  SAH301     -0.2441
      9  C5'       30.3730   89.7720   67.9860 C.3   301  SAH301      0.0899
     10  C4'       28.9220   89.7870   68.4710 C.3   301  SAH301      0.1630
     11  O4'       28.2890   91.0630   68.2690 O.3   301  SAH301     -0.3153
     12  C3'       28.0660   88.7840   67.6960 C.3   301  SAH301      0.2168
     13  O3'       28.2090   87.4910   68.2910 O.3   301  SAH301     -0.2175
     14  C2'       26.6900   89.3440   68.0460 C.3   301  SAH301      0.2569
     15  O2'       26.4160   89.1190   69.4320 O.3   301  SAH301     -0.2130
     16  C1'       26.9460   90.8330   67.8010 C.3   301  SAH301      0.3185
     17  N9        26.8960   91.1510   66.3550 N.pl3 301  SAH301     -0.1439
     18  C8        27.9430   91.3110   65.5470 C.3   301  SAH301      0.3377
     19  N7        27.5240   91.6570   64.3320 N.2   301  SAH301     -0.2095
     20  C5        26.1960   91.7170   64.3610 C.2   301  SAH301      0.2526
     21  C6        25.2130   92.0340   63.4310 C.2   301  SAH301      0.4393
     22  N6        25.5400   92.3660   62.1850 N.pl3 301  SAH301      0.2180
     23  N1        23.9250   92.0090   63.8070 N.2   301  SAH301      0.0021
     24  C2        23.5770   91.6890   65.0420 C.3   301  SAH301      0.5254
     25  N3        24.4870   91.3830   65.9510 N.2   301  SAH301     -0.0055
     26  C4        25.7940   91.3890   65.6490 C.2   301  SAH301      0.3518
@<TRIPOS>BOND
     1    22    21    1
     2    21    23    2
     3    21    20    1
     4    23    24    1
     5    19    20    2
     6    19    18    1
     7    20    26    1
     8    24    25    1
     9     8     6   ar
    10    18    17    1
    11     7     6   ar
    12     6     2    1
    13    26    25    2
    14    26    17    1
    15     2     1    1
    16     2     3    1
    17    17    16    1
    18     3     4    1
    19     4     5    1
    20    12    14    1
    21    12    13    1
    22    12    10    1
    23    16    14    1
    24    16    11    1
    25     9    10    1
    26     9     5    1
    27    14    15    1
    28    11    10    1
