@<TRIPOS>MOLECULE
2oww_ACR_A_1.pdb
 32 34 0 0 0
SMALL
GASTEIGER

@<TRIPOS>ATOM
      1  C1A       54.6360   39.7840   77.5870 C.3   600  ACR600      0.1273
      2  C2A       55.0610   41.0660   76.8640 C.3   600  ACR600      0.2049
      3  C3A       55.5050   42.1530   77.8270 C.3   600  ACR600      0.2179
      4  C4A       54.4070   42.4960   78.8260 C.3   600  ACR600      0.2053
      5  C5A       53.8130   41.2660   79.4630 C.2   600  ACR600      0.0180
      6  C6A       53.0820   41.4230   80.7880 C.3   600  ACR600      0.2066
      7  C7A       53.9210   40.0480   78.8970 C.2   600  ACR600     -0.0100
      8  O2A       56.1270   40.8070   75.9530 O.3   600  ACR600     -0.2184
      9  O3A       55.8350   43.3160   77.0820 O.3   600  ACR600     -0.2172
     10  O4A       54.9390   43.3430   79.8500 O.3   600  ACR600     -0.2157
     11  O6A       52.3420   40.2550   81.1340 O.3   600  ACR600     -0.2155
     12  C1B       54.8370   34.7750   77.8120 C.3   600  ACR600      0.2694
     13  C2B       55.2600   35.4410   79.1260 C.3   600  ACR600      0.2394
     14  C3B       55.0790   36.9600   79.0860 C.3   600  ACR600      0.2054
     15  C4B       55.7560   37.4940   77.8210 C.3   600  ACR600      0.1333
     16  C5B       55.0700   36.8580   76.5980 C.3   600  ACR600      0.1364
     17  C6B       55.5660   37.4140   75.2650 C.3   600  ACR600      0.0337
     18  N4B       55.8020   38.9510   77.8190 N.3   600  ACR600     -0.2087
     19  O2B       54.4660   34.8930   80.1700 O.3   600  ACR600     -0.2149
     20  O3B       55.6020   37.5940   80.2570 O.3   600  ACR600     -0.2186
     21  O5B       55.3350   35.4570   76.6430 O.3   600  ACR600     -0.3295
     22  C1C       50.5580   32.1390   76.1510 C.3   600  ACR600      0.1777
     23  C2C       51.8390   31.4800   76.7220 C.3   600  ACR600      0.2140
     24  C3C       52.6270   32.4220   77.6260 C.3   600  ACR600      0.2141
     25  C4C       52.7860   33.7870   76.9580 C.3   600  ACR600      0.1802
     26  C5C       51.3960   34.3100   76.6240 C.3   600  ACR600      0.1778
     27  C6C       51.3580   35.7380   76.0760 C.3   600  ACR600      0.2140
     28  O2C       51.4670   30.2820   77.3900 O.3   600  ACR600     -0.2176
     29  O3C       53.8950   31.8640   77.9230 O.3   600  ACR600     -0.2176
     30  O4C       53.4040   34.7210   77.8330 O.3   600  ACR600     -0.3257
     31  O5C       50.8410   33.4260   75.6640 O.3   600  ACR600     -0.3482
     32  O6C       52.2220   35.8750   74.9590 O.3   600  ACR600     -0.2176
@<TRIPOS>BOND
     1    32    27    1
     2    17    16    1
     3    31    22    1
     4    31    26    1
     5     8     2    1
     6    27    26    1
     7    22    23    1
     8    16    21    1
     9    16    15    1
    10    26    25    1
    11    21    12    1
    12    23    28    1
    13    23    24    1
    14     2     1    1
    15     2     3    1
    16    25    24    1
    17    25    30    1
    18     9     3    1
    19     1    18    1
    20     1     7    1
    21    24    29    1
    22    12    30    1
    23    12    13    1
    24    18    15    1
    25    15    14    1
    26     3     4    1
    27     4     5    1
    28     4    10    1
    29     7     5    2
    30    14    13    1
    31    14    20    1
    32    13    19    1
    33     5     6    1
    34     6    11    1
