@<TRIPOS>MOLECULE
2oww_G4D_A_1.pdb
 11 11 0 0 0
SMALL
GASTEIGER

@<TRIPOS>ATOM
      1  C1        46.1700   33.5970   81.2570 C.3   2300  G4D2300     0.3022
      2  C2        45.5330   33.0770   79.9630 C.3   2300  G4D2300     0.2409
      3  C3        46.2210   31.8720   79.3420 C.3   2300  G4D2300     0.1899
      4  C4        47.7350   31.9500   79.4220 C.3   2300  G4D2300     0.0681
      5  C5        48.1830   32.3000   80.8350 C.3   2300  G4D2300     0.1534
      6  C6        49.7060   32.3980   80.8560 C.3   2300  G4D2300     0.2116
      7  O1        45.6510   32.8440   82.3600 O.3   2300  G4D2300    -0.1869
      8  O2        44.1720   32.7020   80.2060 O.3   2300  G4D2300    -0.2149
      9  O3        45.8230   31.8320   77.9700 O.3   2300  G4D2300    -0.2201
     10  O5        47.6060   33.5380   81.2580 O.3   2300  G4D2300    -0.3263
     11  O6        50.1560   33.5560   80.1410 O.3   2300  G4D2300    -0.2177
@<TRIPOS>BOND
     1     9     3    1
     2     3     4    1
     3     3     2    1
     4     4     5    1
     5     2     8    1
     6     2     1    1
     7    11     6    1
     8     5     6    1
     9     5    10    1
    10     1    10    1
    11     1     7    1
