@<TRIPOS>MOLECULE
2owz_CIT_A_1.pdb
 13 12 0 0 0
SMALL
GASTEIGER

@<TRIPOS>ATOM
      1  C1        -3.6810   15.4280    2.6080 C.2   604  CIT604      0.3680
      2  O1        -3.9660   16.5250    3.1540 O.co2 604  CIT604     -0.2455
      3  O2        -3.2890   14.4610    3.3170 O.co2 604  CIT604     -0.2455
      4  C2        -3.8100   15.2580    1.0950 C.3   604  CIT604      0.1560
      5  C3        -3.2610   16.4830    0.2980 C.3   604  CIT604      0.2402
      6  O7        -1.9340   16.8170    0.7620 O.3   604  CIT604     -0.2129
      7  C4        -3.2140   16.1560   -1.2110 C.3   604  CIT604      0.1560
      8  C5        -2.1650   15.1140   -1.5190 C.2   604  CIT604      0.3680
      9  O3        -2.5090   13.9770   -1.8700 O.co2 604  CIT604     -0.2455
     10  O4        -0.9500   15.3970   -1.4160 O.co2 604  CIT604     -0.2455
     11  C6        -4.1870   17.6810    0.4750 C.2   604  CIT604      0.3927
     12  O5        -5.4360   17.5170    0.4440 O.co2 604  CIT604     -0.2429
     13  O6        -3.7070   18.8320    0.6630 O.co2 604  CIT604     -0.2429
@<TRIPOS>BOND
     1     9     8   ar
     2     8    10   ar
     3     8     7    1
     4     7     5    1
     5     5    11    1
     6     5     6    1
     7     5     4    1
     8    12    11   ar
     9    11    13   ar
    10     4     1    1
    11     1     2   ar
    12     1     3   ar
