@<TRIPOS>MOLECULE
2owz_F6P_A_1.pdb
 16 16 0 0 0
SMALL
GASTEIGER

@<TRIPOS>ATOM
      1  O1         8.6390   11.3670   27.1480 O.3   603  F6P603     -0.2148
      2  C1         9.4400   10.1960   27.0720 C.3   603  F6P603      0.2434
      3  C2         8.6210    8.9530   27.3720 C.3   603  F6P603      0.2807
      4  O2         9.0450    7.8820   26.5500 O.3   603  F6P603     -0.1896
      5  C3         7.1120    9.1470   27.2410 C.3   603  F6P603      0.2409
      6  O3         6.7350    8.9170   25.9040 O.3   603  F6P603     -0.2149
      7  C4         6.5640    8.0910   28.1940 C.3   603  F6P603      0.2167
      8  O4         5.3180    8.5120   28.7400 O.3   603  F6P603     -0.2175
      9  C5         7.6290    8.0210   29.2840 C.3   603  F6P603      0.1808
     10  O5         8.8470    8.5840   28.7180 O.3   603  F6P603     -0.3254
     11  C6         7.8980    6.6120   29.7570 C.3   603  F6P603      0.1859
     12  O6         8.7330    6.6830   30.9230 O.3   603  F6P603     -0.2675
     13  P          8.8810    5.3870   31.8980 P.3   603  F6P603      0.5327
     14  O1P        9.5780    4.3260   31.0570 O.2   603  F6P603     -0.2224
     15  O2P        9.7270    5.8380   33.0830 O.3   603  F6P603     -0.1145
     16  O3P        7.4610    5.0090   32.2940 O.3   603  F6P603     -0.1145
@<TRIPOS>BOND
     1     6     5    1
     2     4     3    1
     3     2     1    1
     4     2     3    1
     5     5     3    1
     6     5     7    1
     7     3    10    1
     8     7     8    1
     9     7     9    1
    10    10     9    1
    11     9    11    1
    12    11    12    1
    13    12    13    1
    14    14    13    2
    15    13    16    1
    16    13    15    1
