@<TRIPOS>MOLECULE
2ox0_OGA_A_1.pdb
 10 9 0 0 0
SMALL
GASTEIGER

@<TRIPOS>ATOM
      1  C1       -29.1010  -21.2940  -23.9030 C.2   500  OGA500      0.4419
      2  C2       -27.7260  -21.7360  -23.3570 C.2   500  OGA500      0.3455
      3  C4       -25.3700  -22.2510  -23.6180 C.3   500  OGA500      0.2290
      4  C5       -24.2640  -22.1390  -24.6670 C.2   500  OGA500      0.3866
      5  O1       -29.2000  -21.0400  -25.1250 O.co2 500  OGA500     -0.2354
      6  O2       -30.0530  -21.2080  -23.0690 O.co2 500  OGA500     -0.2354
      7  O2'      -27.6380  -21.9650  -22.1550 O.2   500  OGA500     -0.2611
      8  O3       -23.1090  -21.9510  -24.2390 O.co2 500  OGA500     -0.2437
      9  N1       -26.6750  -21.8390  -24.1540 N.am  500  OGA500     -0.1838
     10  O4       -24.5890  -22.2510  -25.8590 O.co2 500  OGA500     -0.2437
@<TRIPOS>BOND
     1    10     4   ar
     2     5     1   ar
     3     4     8   ar
     4     4     3    1
     5     9     3    1
     6     9     2   am
     7     1     2    1
     8     1     6   ar
     9     2     7    2
