@<TRIPOS>MOLECULE
2ox3_PEP_A_1.pdb
 10 9 0 0 0
SMALL
GASTEIGER

@<TRIPOS>ATOM
      1  C1        -2.3040   14.5010   -0.9990 C.2   604  PEP604      0.4216
      2  O1        -1.8810   13.7300   -0.1140 O.co2 604  PEP604     -0.2371
      3  O2'       -2.0090   14.2910   -2.1980 O.co2 604  PEP604     -0.2371
      4  C2        -3.1440   15.6470   -0.6120 C.2   604  PEP604      0.2283
      5  C3        -3.6070   16.4910   -1.5680 C.2   604  PEP604      0.0477
      6  O2        -3.4060   15.7790    0.7440 O.2   604  PEP604     -0.3930
      7  P         -4.1380   17.1620    1.2090 P.3   604  PEP604      0.5889
      8  O1P       -5.5060   17.2810    0.5550 O.2   604  PEP604     -0.2114
      9  O2P       -4.3070   17.1030    2.7200 O.3   604  PEP604     -0.1039
     10  O3P       -3.2900   18.3800    0.8440 O.3   604  PEP604     -0.1039
@<TRIPOS>BOND
     1     3     1   ar
     2     5     4    2
     3     1     4    1
     4     1     2   ar
     5     4     6    1
     6     8     7    2
     7     6     7    1
     8    10     7    1
     9     7     9    1
