@<TRIPOS>MOLECULE
2ox3_F6P_A_1.pdb
 16 16 0 0 0
SMALL
GASTEIGER

@<TRIPOS>ATOM
      1  O1         9.0560   11.1330   27.2730 O.3   603  F6P603     -0.2148
      2  C1         9.4690    9.8650   26.7900 C.3   603  F6P603      0.2434
      3  C2         8.5170    8.7580   27.2260 C.3   603  F6P603      0.2807
      4  O2         8.7640    7.5940   26.4600 O.3   603  F6P603     -0.1896
      5  C3         7.0310    9.0890   27.1600 C.3   603  F6P603      0.2409
      6  O3         6.5740    8.8940   25.8440 O.3   603  F6P603     -0.2149
      7  C4         6.4540    8.0790   28.1410 C.3   603  F6P603      0.2167
      8  O4         5.2080    8.5210   28.6650 O.3   603  F6P603     -0.2175
      9  C5         7.5260    8.0300   29.2260 C.3   603  F6P603      0.1808
     10  O5         8.7620    8.4630   28.5890 O.3   603  F6P603     -0.3254
     11  C6         7.7240    6.6480   29.7860 C.3   603  F6P603      0.1859
     12  O6         8.6590    6.7370   30.8700 O.3   603  F6P603     -0.2675
     13  P          8.9120    5.4480   31.8330 P.3   603  F6P603      0.5327
     14  O1P        9.6900    4.4310   31.0090 O.2   603  F6P603     -0.2224
     15  O2P        9.7220    5.9680   33.0130 O.3   603  F6P603     -0.1145
     16  O3P        7.5290    4.9450   32.2300 O.3   603  F6P603     -0.1145
@<TRIPOS>BOND
     1     6     5    1
     2     4     3    1
     3     2     3    1
     4     2     1    1
     5     5     3    1
     6     5     7    1
     7     3    10    1
     8     7     8    1
     9     7     9    1
    10    10     9    1
    11     9    11    1
    12    11    12    1
    13    12    13    1
    14    14    13    2
    15    13    16    1
    16    13    15    1
