@<TRIPOS>MOLECULE
2ox9_GAL_A_1.pdb
 11 11 0 0 0
SMALL
GASTEIGER

@<TRIPOS>ATOM
      1  C1        54.7440   21.9450   20.3980 C.3     1  GAL1        0.1777
      2  C2        54.2300   22.9680   21.4060 C.3     1  GAL1        0.2141
      3  C3        53.9250   22.2940   22.7460 C.3     1  GAL1        0.2173
      4  C4        53.0090   21.0810   22.5510 C.3     1  GAL1        0.2142
      5  C5        53.5730   20.1480   21.4680 C.3     1  GAL1        0.1810
      6  C6        52.6320   19.0030   21.1440 C.3     1  GAL1        0.2141
      7  O2        55.2110   23.9740   21.5980 O.3     1  GAL1       -0.2176
      8  O3        53.2880   23.2280   23.6000 O.3     1  GAL1       -0.2175
      9  O4        51.7130   21.5190   22.1820 O.3     1  GAL1       -0.2176
     10  O5        53.7910   20.8810   20.2410 O.3     1  GAL1       -0.3481
     11  O6        53.2940   17.9900   20.3990 O.3     1  GAL1       -0.2176
@<TRIPOS>BOND
     1    10     1    1
     2    10     5    1
     3     1     2    1
     4    11     6    1
     5     6     5    1
     6     2     7    1
     7     2     3    1
     8     5     4    1
     9     9     4    1
    10     4     3    1
    11     3     8    1
