@<TRIPOS>MOLECULE
2ox9_FUC_A_1.pdb
 10 10 0 0 0
SMALL
GASTEIGER

@<TRIPOS>ATOM
      1  C1        52.6710   21.7570   16.3850 C.3     3  FUC3        0.1776
      2  C2        51.5430   20.7420   16.1620 C.3     3  FUC3        0.2141
      3  C3        50.9420   20.3180   17.4990 C.3     3  FUC3        0.2172
      4  C4        50.4900   21.5480   18.2840 C.3     3  FUC3        0.2116
      5  C5        51.6690   22.5070   18.4650 C.3     3  FUC3        0.1483
      6  C6        51.2630   23.7950   19.1670 C.3     3  FUC3        0.0349
      7  O2        52.0530   19.5970   15.4940 O.3     3  FUC3       -0.2176
      8  O3        49.8420   19.4510   17.2760 O.3     3  FUC3       -0.2175
      9  O4        49.4450   22.2050   17.5830 O.3     3  FUC3       -0.2177
     10  O5        52.2150   22.8680   17.1740 O.3     3  FUC3       -0.3508
@<TRIPOS>BOND
     1     7     2    1
     2     2     1    1
     3     2     3    1
     4     1    10    1
     5    10     5    1
     6     8     3    1
     7     3     4    1
     8     9     4    1
     9     4     5    1
    10     5     6    1
