@<TRIPOS>MOLECULE
2oxb_SUC_A_1.pdb
 23 24 0 0 0
SMALL
GASTEIGER

@<TRIPOS>ATOM
      1  C1       135.8070  -87.4830    6.1290 C.3   845  SUC845      0.2713
      2  C2       136.0900  -87.3920    7.6460 C.3   845  SUC845      0.2406
      3  C3       137.5750  -87.1670    7.9470 C.3   845  SUC845      0.2198
      4  C4       138.3360  -88.3410    7.3330 C.3   845  SUC845      0.2144
      5  C5       138.0850  -88.3900    5.8060 C.3   845  SUC845      0.1835
      6  C6       138.7980  -89.5550    5.1030 C.3   845  SUC845      0.2142
      7  O1       135.9720  -86.1550    5.5210 O.3   845  SUC845     -0.3033
      8  O2       135.2920  -86.3420    8.2060 O.3   845  SUC845     -0.2149
      9  O3       137.8030  -87.1120    9.3600 O.3   845  SUC845     -0.2174
     10  O4       139.7250  -88.1740    7.6040 O.3   845  SUC845     -0.2176
     11  O5       136.6700  -88.5290    5.5220 O.3   845  SUC845     -0.3256
     12  O6       138.4490  -90.7950    5.7370 O.3   845  SUC845     -0.2176
     13  C1'      134.2630  -86.8160    3.6980 C.3   845  SUC845      0.2406
     14  C2'      135.2030  -85.7760    4.3210 C.3   845  SUC845      0.2516
     15  C3'      134.4610  -84.4560    4.6090 C.3   845  SUC845      0.2381
     16  C4'      135.5180  -83.4060    4.4200 C.3   845  SUC845      0.2167
     17  C5'      136.3910  -84.0460    3.3410 C.3   845  SUC845      0.1835
     18  C6'      137.8790  -83.8680    3.5680 C.3   845  SUC845      0.2142
     19  O1'      133.2520  -87.2130    4.6070 O.3   845  SUC845     -0.2149
     20  O2'      136.1360  -85.4430    3.3330 O.3   845  SUC845     -0.3272
     21  O3'      133.9150  -84.3840    5.9230 O.3   845  SUC845     -0.2150
     22  O4'      134.9640  -82.1630    3.9760 O.3   845  SUC845     -0.2175
     23  O6'      138.2020  -82.5080    3.3390 O.3   845  SUC845     -0.2176
@<TRIPOS>BOND
     1    20    17    1
     2    20    14    1
     3    23    18    1
     4    17    18    1
     5    17    16    1
     6    13    14    1
     7    13    19    1
     8    22    16    1
     9    14    15    1
    10    14     7    1
    11    16    15    1
    12    15    21    1
    13     6    12    1
    14     6     5    1
    15     7     1    1
    16    11     5    1
    17    11     1    1
    18     5     4    1
    19     1     2    1
    20     4    10    1
    21     4     3    1
    22     2     3    1
    23     2     8    1
    24     3     9    1
