@<TRIPOS>MOLECULE
2oxc_ADP_A_1.pdb
 27 29 0 0 0
SMALL
GASTEIGER

@<TRIPOS>ATOM
      1  PB        39.5030   14.5990   13.1630 P.3   300  ADP300      0.5373
      2  O1B       40.2340   14.1350   11.9340 O.2   300  ADP300     -0.2221
      3  O2B       38.7790   13.5050   13.8970 O.3   300  ADP300     -0.1143
      4  O3B       38.6660   15.8400   12.9770 O.3   300  ADP300     -0.1143
      5  PA        42.1700   15.5180   14.0930 P.3   300  ADP300      0.2231
      6  O1A       43.1180   14.3610   14.0050 O.3   300  ADP300     -0.4370
      7  O2A       42.2000   16.6100   13.0590 O.2   300  ADP300     -0.5169
      8  O3A       40.6410   14.9970   14.2730 O.3   300  ADP300     -0.2261
      9  O5'       42.3950   16.1350   15.5460 O.3   300  ADP300     -0.3111
     10  C5'       41.5880   17.2180   16.0220 C.3   300  ADP300      0.1813
     11  C4'       42.4140   18.2310   16.8090 C.3   300  ADP300      0.1821
     12  O4'       42.9570   17.6010   17.9710 O.3   300  ADP300     -0.3135
     13  C3'       43.5950   18.7820   16.0370 C.3   300  ADP300      0.2184
     14  O3'       43.8170   20.1520   16.4220 O.3   300  ADP300     -0.2174
     15  C2'       44.7310   17.9070   16.4830 C.3   300  ADP300      0.2570
     16  O2'       45.9880   18.5550   16.4110 O.3   300  ADP300     -0.2130
     17  C1'       44.3730   17.6250   17.9160 C.3   300  ADP300      0.3186
     18  N9        44.8330   16.3220   18.4020 N.pl3 300  ADP300     -0.1439
     19  C8        44.6570   15.1260   17.7740 C.3   300  ADP300      0.3377
     20  N7        45.1710   14.1290   18.5240 N.2   300  ADP300     -0.2095
     21  C5        45.6110   14.6940   19.6740 C.2   300  ADP300      0.2526
     22  C6        46.2510   14.1920   20.8830 C.2   300  ADP300      0.4393
     23  N6        46.5020   12.8850   21.0420 N.pl3 300  ADP300      0.2180
     24  N1        46.5820   15.0940   21.8400 N.2   300  ADP300      0.0021
     25  C2        46.3430   16.4110   21.6940 C.3   300  ADP300      0.5254
     26  N3        45.7640   16.9490   20.6100 N.2   300  ADP300     -0.0055
     27  C4        45.3870   16.1250   19.5850 C.2   300  ADP300      0.3518
@<TRIPOS>BOND
     1     2     1    2
     2     4     1    1
     3     7     5    2
     4     1     3    1
     5     1     8    1
     6     6     5    1
     7     5     8    1
     8     5     9    1
     9     9    10    1
    10    10    11    1
    11    13    14    1
    12    13    15    1
    13    13    11    1
    14    16    15    1
    15    15    17    1
    16    11    12    1
    17    19    18    1
    18    19    20    1
    19    17    12    1
    20    17    18    1
    21    18    27    1
    22    20    21    2
    23    27    21    1
    24    27    26    2
    25    21    22    1
    26    26    25    1
    27    22    23    1
    28    22    24    2
    29    25    24    1
