@<TRIPOS>MOLECULE
2oxd_K32_A_1.pdb
 14 15 0 0 0
SMALL
GASTEIGER

@<TRIPOS>ATOM
      1 BR1        20.8110    6.8790   22.6790 Br    338  K32338     -0.0457
      2  C5        21.2880    7.4110   20.9220 C.ar  338  K32338      0.0744
      3  C2        20.6760    8.5010   20.2990 C.ar  338  K32338      0.0501
      4 BR2        19.3420    9.4560   21.2260 Br    338  K32338     -0.0479
      5  C7        22.2620    6.6750   20.2730 C.ar  338  K32338      0.1842
      6  N14       22.9720    5.6030   20.6600 N.2   338  K32338     -0.3053
      7  C13       23.7530    5.3520   19.6020 C.1   338  K32338      0.3555
      8  O10       24.5850    4.3650   19.6250 O.2   338  K32338     -0.1752
      9  N6        23.6080    6.1890   18.5520 N.2   338  K32338     -0.3053
     10  C8        22.6460    7.0410   18.9780 C.ar  338  K32338      0.1842
     11  C4        22.0190    8.1310   18.3790 C.ar  338  K32338      0.0744
     12 BR3        22.5890    8.5760   16.6590 Br    338  K32338     -0.0457
     13  C3        21.0250    8.8860   19.0070 C.ar  338  K32338      0.0501
     14 BR4        20.1640   10.3830   18.1410 Br    338  K32338     -0.0479
@<TRIPOS>BOND
     1    12    11    1
     2    14    13    1
     3    11    10   ar
     4    11    13   ar
     5     9    10    2
     6     9     7    2
     7    10     5   ar
     8    13     3   ar
     9     7     8    2
    10     7     6    2
    11     5     6    2
    12     5     2   ar
    13     3     2   ar
    14     3     4    1
    15     2     1    1
