@<TRIPOS>MOLECULE
2oxe_MAN_B_1.pdb
 11 11 0 0 0
SMALL
GASTEIGER

@<TRIPOS>ATOM
      1  C1         6.8610   47.7030   45.7740 C.3   504  MAN504      0.1777
      2  C2         5.4540   48.3030   45.8840 C.3   504  MAN504      0.2141
      3  C3         5.1330   49.1780   44.6650 C.3   504  MAN504      0.2173
      4  C4         6.2970   50.1000   44.2580 C.3   504  MAN504      0.2142
      5  C5         7.6890   49.4660   44.4580 C.3   504  MAN504      0.1810
      6  C6         8.8260   50.4850   44.3330 C.3   504  MAN504      0.2141
      7  O2         5.3280   49.0670   47.0670 O.3   504  MAN504     -0.2176
      8  O3         3.9640   49.9320   44.9140 O.3   504  MAN504     -0.2175
      9  O4         6.1310   50.4500   42.9000 O.3   504  MAN504     -0.2176
     10  O5         7.7760   48.7790   45.7060 O.3   504  MAN504     -0.3481
     11  O6         9.5200   50.3000   43.1140 O.3   504  MAN504     -0.2176
@<TRIPOS>BOND
     1     9     4    1
     2    11     6    1
     3     4     5    1
     4     4     3    1
     5     6     5    1
     6     5    10    1
     7     3     8    1
     8     3     2    1
     9    10     1    1
    10     1     2    1
    11     2     7    1
