@<TRIPOS>MOLECULE
2oxi_NAD_A_1.pdb
 44 48 0 0 0
SMALL
GASTEIGER

@<TRIPOS>ATOM
      1  PA        14.3370   19.5240    4.7500 P.3   377  NAD377      0.2189
      2  O1A       14.7110   20.4880    3.6860 O.2   377  NAD377     -0.5170
      3  O2A       13.0900   19.6490    5.5110 O.3   377  NAD377     -0.4371
      4  O5B       14.2300   18.1120    4.0650 O.3   377  NAD377     -0.3112
      5  C5B       13.6060   17.0250    4.7420 C.3   377  NAD377      0.1813
      6  C4B       13.1800   16.1680    3.5580 C.3   377  NAD377      0.1821
      7  O4B       12.7160   14.8940    4.0550 O.3   377  NAD377     -0.3135
      8  C3B       11.9950   16.8370    2.8030 C.3   377  NAD377      0.2184
      9  O3B       12.2020   16.8330    1.3890 O.3   377  NAD377     -0.2174
     10  C2B       10.7950   15.9910    3.2070 C.3   377  NAD377      0.2570
     11  O2B        9.7540   15.8910    2.2290 O.3   377  NAD377     -0.2130
     12  C1B       11.4400   14.6260    3.4390 C.3   377  NAD377      0.3186
     13  N9A       10.6080   13.7020    4.2220 N.pl3 377  NAD377     -0.1439
     14  C8A        9.9820   13.9510    5.3960 C.3   377  NAD377      0.3377
     15  N7A        9.3740   12.8700    5.8730 N.2   377  NAD377     -0.2095
     16  C5A        9.6760   11.9310    4.9730 C.2   377  NAD377      0.2526
     17  C6A        9.4070   10.6030    5.1740 C.2   377  NAD377      0.4393
     18  N6A        8.6210   10.2210    6.1760 N.pl3 377  NAD377      0.2180
     19  N1A        9.9010    9.7640    4.2320 N.2   377  NAD377      0.0021
     20  C2A       10.5950   10.2280    3.2030 C.3   377  NAD377      0.5254
     21  N3A       10.8820   11.5220    3.0280 N.2   377  NAD377     -0.0055
     22  C4A       10.4310   12.4020    3.9290 C.2   377  NAD377      0.3518
     23  O3        15.6330   19.4280    5.7130 O.3   377  NAD377     -0.2703
     24  PN        17.2280   19.6440    5.6090 P.3   377  NAD377      0.2189
     25  O1N       17.6470   21.0470    5.8570 O.3   377  NAD377     -0.4371
     26  O2N       17.8120   18.9530    4.4400 O.2   377  NAD377     -0.5170
     27  O5D       17.6490   18.8790    6.9340 O.3   377  NAD377     -0.3112
     28  C5D       17.2920   17.5130    6.9650 C.3   377  NAD377      0.1813
     29  C4D       17.6420   16.9370    8.3200 C.3   377  NAD377      0.1799
     30  O4D       19.0710   16.9460    8.5470 O.3   377  NAD377     -0.3327
     31  C3D       17.0260   17.6440    9.5210 C.3   377  NAD377      0.2158
     32  O3D       16.7870   16.5840   10.4670 O.3   377  NAD377     -0.2175
     33  C2D       18.1490   18.5320   10.0330 C.3   377  NAD377      0.2309
     34  O2D       17.9710   18.7840   11.4230 O.3   377  NAD377     -0.2158
     35  C1D       19.3270   17.5860    9.8210 C.3   377  NAD377      0.2263
     36  N1N       20.6650   18.2060    9.8230 N.pl3 377  NAD377     -0.2787
     37  C2N       21.6820   17.5490   10.4990 C.3   377  NAD377      0.1244
     38  C3N       22.9350   18.1200   10.5350 C.2   377  NAD377      0.0544
     39  C7N       24.1100   17.2550   10.9530 C.2   377  NAD377      0.2818
     40  O7N       25.1590   17.8170   11.2670 O.2   377  NAD377     -0.2670
     41  N7N       23.9240   15.9450   11.0510 N.am  377  NAD377     -0.0839
     42  C4N       23.1800   19.3840    9.9770 C.2   377  NAD377      0.0033
     43  C5N       22.1690   20.0190    9.2700 C.2   377  NAD377      0.0157
     44  C6N       20.9250   19.4200    9.1970 C.2   377  NAD377      0.0633
@<TRIPOS>BOND
     1     9     8    1
     2    11    10    1
     3     8    10    1
     4     8     6    1
     5    21    20    1
     6    21    22    2
     7    20    19    1
     8    10    12    1
     9    12     7    1
    10    12    13    1
    11     6     7    1
    12     6     5    1
    13     2     1    2
    14    22    13    1
    15    22    16    1
    16     4     5    1
    17     4     1    1
    18    13    14    1
    19    19    17    2
    20    26    24    2
    21     1     3    1
    22     1    23    1
    23    16    17    1
    24    16    15    2
    25    17    18    1
    26    14    15    1
    27    24    23    1
    28    24    25    1
    29    24    27    1
    30    27    28    1
    31    28    29    1
    32    29    30    1
    33    29    31    1
    34    30    35    1
    35    44    43    2
    36    44    36    1
    37    43    42    1
    38    31    33    1
    39    31    32    1
    40    35    36    1
    41    35    33    1
    42    36    37    1
    43    42    38    2
    44    33    34    1
    45    37    38    1
    46    38    39    1
    47    39    41   am
    48    39    40    2
