@<TRIPOS>MOLECULE
2oxn_OAN_A_1.pdb
 25 26 0 0 0
SMALL
GASTEIGER

@<TRIPOS>ATOM
      1  CAH        6.0760   -9.0380   13.5880 C.3   501  OAN501      0.0964
      2  CAG        5.7730   -8.7620   12.1440 C.2   501  OAN501      0.2423
      3  OAN        6.5900   -8.2250   11.4090 O.2   501  OAN501     -0.2733
      4  NAI        4.5650   -9.1310   11.7140 N.am  501  OAN501     -0.1948
      5  CAB        4.1970   -8.9000   10.3120 C.3   501  OAN501      0.2066
      6  CAC        3.1290   -7.7990   10.3010 C.3   501  OAN501      0.2150
      7  OAJ        3.7980   -6.5570   10.5820 O.3   501  OAN501     -0.2179
      8  CAD        2.4200   -7.7660    8.9440 C.3   501  OAN501      0.2317
      9  OAK        1.4540   -6.7000    8.9150 O.3   501  OAN501     -0.2159
     10  CAE        1.7420   -9.1000    8.6200 C.3   501  OAN501      0.2637
     11  CAF        1.2520   -9.0700    7.1830 C.2   501  OAN501      0.2534
     12  OAM        2.0770   -9.1540    6.2710 O.2   501  OAN501     -0.2842
     13  OAL        2.6360  -10.2260    8.7110 O.2   501  OAN501     -0.4529
     14  CAA        3.7330  -10.1560    9.6430 C.2   501  OAN501      0.2602
     15  NAY        4.3760  -11.2080    9.8890 N.2   501  OAN501     -0.0369
     16  OAQ        3.9440  -12.3300    9.2750 O.3   501  OAN501     -0.2944
     17  CAP        4.7300  -13.5280    9.4400 C.2   501  OAN501      0.4504
     18  OAR        5.6450  -13.4650   10.2520 O.2   501  OAN501     -0.2218
     19  NAO        4.3730  -14.5860    8.7070 N.am  501  OAN501     -0.1406
     20  CAS        4.9760  -15.8540    8.6880 C.ar  501  OAN501      0.0768
     21  CAT        6.1030  -16.1600    9.4520 C.ar  501  OAN501      0.0167
     22  CAU        6.6520  -17.4330    9.3910 C.ar  501  OAN501      0.0013
     23  CAV        6.0970  -18.3990    8.5620 C.ar  501  OAN501      0.0001
     24  CAW        4.9720  -18.1060    7.7930 C.ar  501  OAN501      0.0013
     25  CAX        4.4180  -16.8270    7.8610 C.ar  501  OAN501      0.0167
@<TRIPOS>BOND
     1    12    11    2
     2    11    10    1
     3    24    25   ar
     4    24    23   ar
     5    25    20   ar
     6    23    22   ar
     7    10    13    1
     8    10     8    1
     9    20    19    1
    10    20    21   ar
    11    19    17   am
    12    13    14    1
    13     9     8    1
    14     8     6    1
    15    16    17    1
    16    16    15    1
    17    22    21   ar
    18    17    18    2
    19    14    15    2
    20    14     5    1
    21     6     5    1
    22     6     7    1
    23     5     4    1
    24     3     2    2
    25     4     2   am
    26     2     1    1
