@<TRIPOS>MOLECULE
2oxp_THP_A_1.pdb
 25 26 0 0 0
SMALL
GASTEIGER

@<TRIPOS>ATOM
      1  P2         6.2160   13.7360   20.7940 P.3   300  THP300      0.5327
      2  O4P        4.9740   13.6210   19.9920 O.2   300  THP300     -0.2224
      3  O5P        7.3810   14.4960   20.2860 O.3   300  THP300     -0.1145
      4  O6P        6.6920   12.2630   21.1790 O.3   300  THP300     -0.1145
      5  P1         4.8180   11.4950   26.6810 P.3   300  THP300      0.5326
      6  O1P        4.1110   11.2470   27.9420 O.3   300  THP300     -0.1145
      7  O2P        6.2490   11.2850   26.3900 O.3   300  THP300     -0.1145
      8  O3P        4.0160   10.7070   25.5350 O.2   300  THP300     -0.2224
      9  O5'        5.8290   14.3420   22.1960 O.3   300  THP300     -0.2675
     10  C5'        4.7490   13.8530   22.9500 C.3   300  THP300      0.1857
     11  C4'        5.0890   14.1090   24.3990 C.3   300  THP300      0.1748
     12  O4'        5.2510   15.5110   24.6040 O.3   300  THP300     -0.3340
     13  C3'        3.9780   13.6540   25.3060 C.3   300  THP300      0.1600
     14  O3'        4.5400   13.0800   26.4980 O.3   300  THP300     -0.2700
     15  C2'        3.1880   14.8950   25.6230 C.3   300  THP300      0.0847
     16  C1'        4.2890   15.9600   25.5560 C.3   300  THP300      0.2089
     17  N1         3.6540   17.2230   25.1310 N.am  300  THP300     -0.1794
     18  C2         3.2870   18.1160   26.1310 C.1   300  THP300      0.2844
     19  O2         3.4560   17.9130   27.3240 O.2   300  THP300     -0.1918
     20  N3         2.7020   19.2820   25.7310 N.2   300  THP300     -0.2455
     21  C4         2.4480   19.6480   24.4300 C.1   300  THP300      0.2134
     22  O4         1.9160   20.7290   24.2330 O.2   300  THP300     -0.2088
     23  C5         2.8490   18.6870   23.4130 C.2   300  THP300      0.0891
     24  C5M        2.6060   19.0070   21.9230 C.3   300  THP300      0.0462
     25  C6         3.4320   17.5200   23.7880 C.2   300  THP300      0.0877
@<TRIPOS>BOND
     1     2     1    2
     2     3     1    1
     3     1     4    1
     4     1     9    1
     5    24    23    1
     6     9    10    1
     7    10    11    1
     8    23    25    2
     9    23    21    1
    10    25    17    1
    11    22    21    2
    12    11    12    1
    13    11    13    1
    14    21    20    2
    15    12    16    1
    16    17    16    1
    17    17    18   am
    18    13    15    1
    19    13    14    1
    20     8     5    2
    21    16    15    1
    22    20    18    2
    23    18    19    2
    24     7     5    1
    25    14     5    1
    26     5     6    1
