@<TRIPOS>MOLECULE
2oxr_GDP_A_1.pdb
 28 30 0 0 0
SMALL
GASTEIGER

@<TRIPOS>ATOM
      1  PB        18.9280   19.3510   47.7900 P.3   502  GDP502      0.5373
      2  O1B       17.8560   18.9220   48.7660 O.3   502  GDP502     -0.1143
      3  O2B       19.1790   20.8370   47.9730 O.2   502  GDP502     -0.2221
      4  O3B       20.2080   18.6030   48.0570 O.3   502  GDP502     -0.1143
      5  O3A       18.3410   19.0140   46.3240 O.3   502  GDP502     -0.2261
      6  PA        18.9790   17.9860   45.2550 P.3   502  GDP502      0.2231
      7  O1A       20.4800   18.0730   45.1790 O.2   502  GDP502     -0.5169
      8  O2A       18.5440   16.5560   45.4830 O.3   502  GDP502     -0.4370
      9  O5'       18.3790   18.5250   43.8630 O.3   502  GDP502     -0.3111
     10  C5'       16.9990   18.8400   43.6900 C.3   502  GDP502      0.1813
     11  C4'       16.6790   18.7080   42.2040 C.3   502  GDP502      0.1799
     12  O4'       17.4130   19.6860   41.4640 O.3   502  GDP502     -0.3326
     13  C3'       17.0790   17.3570   41.6280 C.3   502  GDP502      0.2158
     14  O3'       16.0270   16.8990   40.7760 O.3   502  GDP502     -0.2175
     15  C2'       18.2980   17.6310   40.7780 C.3   502  GDP502      0.2310
     16  O2'       18.3430   16.7520   39.6500 O.3   502  GDP502     -0.2158
     17  C1'       18.1010   19.0770   40.3680 C.3   502  GDP502      0.2293
     18  N9        19.3740   19.8050   40.1840 N.pl3 502  GDP502     -0.2354
     19  C8        20.3720   19.8920   41.0860 C.3   502  GDP502      0.2246
     20  N7        21.3980   20.6480   40.6110 N.2   502  GDP502     -0.2322
     21  C5        21.0460   21.0670   39.3720 C.2   502  GDP502      0.2182
     22  C6        21.6530   21.9000   38.3020 C.1   502  GDP502      0.2372
     23  O6        22.7740   22.4240   38.4350 O.2   502  GDP502     -0.2069
     24  N1        20.9620   22.0910   37.1790 N.2   502  GDP502     -0.2485
     25  C2        19.7410   21.5610   36.9830 C.1   502  GDP502      0.2531
     26  N2        19.1270   21.8150   35.8030 N.pl3 502  GDP502     -0.0226
     27  N3        19.1130   20.7880   37.9110 N.2   502  GDP502     -0.3074
     28  C4        19.7050   20.5130   39.1020 C.2   502  GDP502      0.2300
@<TRIPOS>BOND
     1    26    25    1
     2    25    24    2
     3    25    27    2
     4    24    22    2
     5    27    28    2
     6    22    23    2
     7    22    21    1
     8    28    21    1
     9    28    18    1
    10    21    20    2
    11    16    15    1
    12    18    17    1
    13    18    19    1
    14    17    15    1
    15    17    12    1
    16    20    19    1
    17    14    13    1
    18    15    13    1
    19    12    11    1
    20    13    11    1
    21    11    10    1
    22    10     9    1
    23     9     6    1
    24     7     6    2
    25     6     8    1
    26     6     5    1
    27     5     1    1
    28     1     3    2
    29     1     4    1
    30     1     2    1
