@<TRIPOS>MOLECULE
2oxt_SAM_A_1.pdb
 27 29 0 0 0
SMALL
GASTEIGER

@<TRIPOS>ATOM
      1  N        -20.1250  -13.8270   -2.0060 N.3   300  SAM300     -0.1208
      2  CA       -21.2230  -13.7140   -1.0510 C.3   300  SAM300      0.1952
      3  C        -22.0840  -12.4640   -1.1900 C.2   300  SAM300      0.3819
      4  O        -23.2480  -12.4680   -0.7790 O.co2 300  SAM300     -0.2441
      5  OXT      -21.6510  -11.4290   -1.6890 O.co2 300  SAM300     -0.2441
      6  CB       -20.6900  -13.7870    0.3660 C.3   300  SAM300      0.0414
      7  CG       -20.6440  -15.2450    0.7740 C.3   300  SAM300      0.0503
      8  SD       -20.8270  -15.5070    2.5420 S.3   300  SAM300     -0.1761
      9  CE       -19.4680  -14.5080    3.2140 C.3   300  SAM300      0.0590
     10  C5'      -20.1840  -17.1970    2.6100 C.3   300  SAM300      0.0806
     11  C4'      -21.3240  -18.2090    2.6670 C.3   300  SAM300      0.1622
     12  O4'      -20.8520  -19.5400    2.5920 O.3   300  SAM300     -0.3153
     13  C3'      -22.0610  -18.0980    3.9880 C.3   300  SAM300      0.2168
     14  O3'      -23.3360  -17.5710    3.7190 O.3   300  SAM300     -0.2175
     15  C2'      -22.1540  -19.5050    4.5330 C.3   300  SAM300      0.2569
     16  O2'      -23.4870  -19.8410    4.7830 O.3   300  SAM300     -0.2130
     17  C1'      -21.6790  -20.3600    3.3910 C.3   300  SAM300      0.3185
     18  N9       -20.9960  -21.5750    3.8460 N.pl3 300  SAM300     -0.1439
     19  C8       -20.2260  -21.7330    4.9570 C.3   300  SAM300      0.3377
     20  N7       -19.7920  -23.0110    5.0150 N.2   300  SAM300     -0.2095
     21  C5       -20.2780  -23.6760    3.9380 C.2   300  SAM300      0.2526
     22  C6       -20.1510  -24.9970    3.4970 C.2   300  SAM300      0.4393
     23  N6       -19.4300  -25.8740    4.2010 N.pl3 300  SAM300      0.2180
     24  N1       -20.7820  -25.3920    2.3250 N.2   300  SAM300      0.0021
     25  C2       -21.5300  -24.4850    1.6030 C.3   300  SAM300      0.5254
     26  N3       -21.6550  -23.1880    2.0550 N.2   300  SAM300     -0.0055
     27  C4       -21.0410  -22.7820    3.1980 C.2   300  SAM300      0.3518
@<TRIPOS>BOND
     1     1     2    1
     2     5     3   ar
     3     3     2    1
     4     3     4   ar
     5     2     6    1
     6     6     7    1
     7     7     8    1
     8    25    26    1
     9    25    24    1
    10    26    27    2
    11    24    22    2
    12     8    10    1
    13     8     9    1
    14    12    11    1
    15    12    17    1
    16    10    11    1
    17    11    13    1
    18    27    18    1
    19    27    21    1
    20    17    18    1
    21    17    15    1
    22    22    21    1
    23    22    23    1
    24    14    13    1
    25    18    19    1
    26    21    20    2
    27    13    15    1
    28    15    16    1
    29    19    20    1
