@<TRIPOS>MOLECULE
2oxw_III_X_1.pdb
 17 16 0 0 0
SMALL
GASTEIGER

@<TRIPOS>ATOM
      1  N          1.4790   -4.7810    7.7100 N.3   207  ILE207     -0.1231
      2  CA         2.1080   -5.2380    6.4300 C.3   207  ILE207      0.1692
      3  C          1.1930   -6.1840    5.6540 C.2   207  ILE207      0.2592
      4  O         -0.0200   -5.9820    5.6660 O.2   207  ILE207     -0.2718
      5  CB         3.5080   -5.8390    6.6430 C.3   207  ILE207      0.0266
      6  CG1        3.4920   -7.0760    7.5210 C.3   207  ILE207      0.0019
      7  CG2        4.3320   -4.8730    7.3060 C.3   207  ILE207      0.0020
      8  CD1        4.8800   -7.5290    7.7580 C.3   207  ILE207      0.0001
      9  N          1.7670   -7.1770    4.9660 N.am  208  ALA208     -0.1966
     10  CA         1.0160   -8.1120    4.1430 C.3   208  ALA208      0.1728
     11  C          1.3700   -9.5530    4.4880 C.2   208  ALA208      0.2616
     12  O          2.5160   -9.8590    4.8200 O.2   208  ALA208     -0.2715
     13  CB         1.3050   -7.8490    2.6890 C.3   208  ALA208      0.0334
     14  N          0.3800  -10.4330    4.3950 N.am  209  GLY209     -0.1955
     15  CA         0.6020  -11.8530    4.6110 C.3   209  GLY209      0.1869
     16  C          1.3820  -12.4680    3.4640 C.2   209  GLY209      0.2309
     17  O          2.1350  -13.4220    3.6500 O.2   209  GLY209     -0.2863
@<TRIPOS>BOND
     1    13    10    1
     2    16    17    2
     3    16    15    1
     4    10    11    1
     5    10     9    1
     6    14    11   am
     7    14    15    1
     8    11    12    2
     9     9     3   am
    10     3     4    2
    11     3     2    1
    12     2     5    1
    13     2     1    1
    14     5     7    1
    15     5     6    1
    16     6     8    1
