@<TRIPOS>MOLECULE
2oxx_K22_A_1.pdb
 14 15 0 0 0
SMALL
GASTEIGER

@<TRIPOS>ATOM
      1 BR1        22.5810    8.4420   16.7820 Br    501  K22501     -0.0457
      2  C5        22.1910    7.8580   18.5320 C.ar  501  K22501      0.0743
      3  C2        21.2130    8.6120   19.1490 C.ar  501  K22501      0.0501
      4 BR2        20.3270   10.0520   18.2530 Br    501  K22501     -0.0479
      5  C7        22.8050    6.7860   19.2230 C.ar  501  K22501      0.1817
      6  N14       23.7590    5.8770   18.9430 N.2   501  K22501     -0.3311
      7  C13       23.9310    5.0750   20.0330 C.1   501  K22501      0.1796
      8  S10       24.9650    3.7980   20.2190 S.2   501  K22501      0.0574
      9  N6        23.1030    5.4640   21.0070 N.2   501  K22501     -0.3311
     10  C8        22.4130    6.4980   20.5400 C.ar  501  K22501      0.1817
     11  C4        21.4450    7.2530   21.1540 C.ar  501  K22501      0.0743
     12 BR4        20.8900    6.8860   22.9370 Br    501  K22501     -0.0457
     13  C3        20.8740    8.2780   20.4410 C.ar  501  K22501      0.0501
     14 BR3        19.5750    9.2700   21.2980 Br    501  K22501     -0.0479
@<TRIPOS>BOND
     1     1     2    1
     2     4     3    1
     3     2     3   ar
     4     2     5   ar
     5     6     5    2
     6     6     7    2
     7     3    13   ar
     8     5    10   ar
     9     7     8    2
    10     7     9    2
    11    13    11   ar
    12    13    14    1
    13    10     9    2
    14    10    11   ar
    15    11    12    1
