@<TRIPOS>MOLECULE
2oxy_K17_A_1.pdb
 13 14 0 0 0
SMALL
GASTEIGER

@<TRIPOS>ATOM
      1 BR3       -10.8420    2.6260    6.6060 Br    1001  K171001    -0.0469
      2  C3       -11.0520    4.3300    5.8440 C.ar  1001  K171001     0.0600
      3  C2       -10.8190    5.4380    6.6640 C.ar  1001  K171001     0.0490
      4 BR2       -10.2460    5.1060    8.4570 Br    1001  K171001    -0.0479
      5  C7       -11.4630    4.4630    4.5290 C.ar  1001  K171001     0.1026
      6  N8       -11.7410    3.5240    3.5610 N.2   1001  K171001    -0.2422
      7  C9       -12.0720    4.2500    2.4790 C.3   1001  K171001     0.2508
      8  N5       -12.0180    5.5850    2.7590 N.2   1001  K171001    -0.2422
      9  C6       -11.6430    5.7520    4.0320 C.ar  1001  K171001     0.1026
     10  C4       -11.4170    6.8990    4.8430 C.ar  1001  K171001     0.0600
     11 BR4       -11.6770    8.6770    4.1740 Br    1001  K171001    -0.0469
     12  C1       -11.0010    6.7360    6.1670 C.ar  1001  K171001     0.0490
     13 BR1       -10.7180    8.2340    7.3270 Br    1001  K171001    -0.0479
@<TRIPOS>BOND
     1     7     8    1
     2     7     6    1
     3     8     9    2
     4     6     5    2
     5     9     5   ar
     6     9    10   ar
     7    11    10    1
     8     5     2   ar
     9    10    12   ar
    10     2     1    1
    11     2     3   ar
    12    12     3   ar
    13    12    13    1
    14     3     4    1
