@<TRIPOS>MOLECULE
2oxz_III_X_1.pdb
 17 16 0 0 0
SMALL
GASTEIGER

@<TRIPOS>ATOM
      1  N         -2.0170   -3.8970   -7.0680 N.3   207  ILE207     -0.1231
      2  CA        -2.7040   -5.0140   -6.3630 C.3   207  ILE207      0.1692
      3  C         -1.6940   -5.9990   -5.7040 C.2   207  ILE207      0.2592
      4  O         -0.4920   -5.8900   -5.9200 O.2   207  ILE207     -0.2718
      5  CB        -3.6770   -5.6510   -7.3410 C.3   207  ILE207      0.0266
      6  CG1       -4.9940   -5.9840   -6.6580 C.3   207  ILE207      0.0019
      7  CG2       -3.0130   -6.7360   -8.0950 C.3   207  ILE207      0.0020
      8  CD1       -6.0850   -6.4520   -7.6150 C.3   207  ILE207      0.0001
      9  N         -2.2070   -6.9350   -4.8830 N.am  208  ALA208     -0.1966
     10  CA        -1.3820   -7.8210   -4.0250 C.3   208  ALA208      0.1728
     11  C         -1.5940   -9.3220   -4.3480 C.2   208  ALA208      0.2616
     12  O         -2.7280   -9.7710   -4.6380 O.2   208  ALA208     -0.2715
     13  CB        -1.7120   -7.5270   -2.5630 C.3   208  ALA208      0.0334
     14  N         -0.5190  -10.0960   -4.2960 N.am  209  GLY209     -0.1955
     15  CA        -0.5470  -11.5020   -4.7380 C.3   209  GLY209      0.1869
     16  C         -1.3850  -12.3300   -3.8020 C.2   209  GLY209      0.2309
     17  O         -1.1750  -12.2800   -2.5880 O.2   209  GLY209     -0.2863
@<TRIPOS>BOND
     1     7     5    1
     2     8     6    1
     3     5     6    1
     4     5     2    1
     5     1     2    1
     6     2     3    1
     7     4     3    2
     8     3     9   am
     9     9    10    1
    10    15    14    1
    11    15    16    1
    12    12    11    2
    13    11    14   am
    14    11    10    1
    15    10    13    1
    16    16    17    2
