@<TRIPOS>MOLECULE
2oy0_SAH_A_1.pdb
 26 28 0 0 0
SMALL
GASTEIGER

@<TRIPOS>ATOM
      1  N         -1.8320    2.4250   -4.9560 N.3   301  SAH301     -0.1208
      2  CA        -2.5940    3.7050   -5.3000 C.3   301  SAH301      0.1952
      3  CB        -2.8870    4.6850   -4.2090 C.3   301  SAH301      0.0422
      4  CG        -3.6540    4.2330   -2.9900 C.3   301  SAH301      0.0597
      5  SD        -4.1240    5.7520   -2.0700 S.3   301  SAH301     -0.1375
      6  C         -1.7870    4.4030   -6.4650 C.2   301  SAH301      0.3819
      7  O         -0.7420    3.8600   -6.8920 O.co2 301  SAH301     -0.2441
      8  OXT       -2.2870    5.5190   -6.9070 O.co2 301  SAH301     -0.2441
      9  C5'       -5.4780    5.2140   -1.1260 C.3   301  SAH301      0.0899
     10  C4'       -6.8190    5.3880   -1.9720 C.3   301  SAH301      0.1630
     11  O4'       -7.8430    4.9400   -1.1060 O.3   301  SAH301     -0.3153
     12  C3'       -7.2630    6.7880   -2.3190 C.3   301  SAH301      0.2168
     13  O3'       -6.9360    7.1120   -3.6560 O.3   301  SAH301     -0.2175
     14  C2'       -8.8100    6.7470   -2.0280 C.3   301  SAH301      0.2569
     15  O2'       -9.5510    7.3030   -3.1000 O.3   301  SAH301     -0.2130
     16  C1'       -9.0830    5.2650   -1.7930 C.3   301  SAH301      0.3185
     17  N9       -10.1170    4.9470   -1.0060 N.pl3 301  SAH301     -0.1439
     18  C8       -10.4740    5.2400    0.3030 C.3   301  SAH301      0.3377
     19  N7       -11.5830    4.7140    0.7040 N.2   301  SAH301     -0.2095
     20  C5       -12.0430    3.9870   -0.4260 C.2   301  SAH301      0.2526
     21  C6       -13.2070    3.1820   -0.6210 C.2   301  SAH301      0.4393
     22  N6       -14.1340    2.9650    0.3170 N.pl3 301  SAH301      0.2180
     23  N1       -13.3120    2.6320   -1.8730 N.2   301  SAH301      0.0021
     24  C2       -12.3910    2.8150   -2.8680 C.3   301  SAH301      0.5254
     25  N3       -11.2680    3.5690   -2.7190 N.2   301  SAH301     -0.0055
     26  C4       -11.1600    4.1210   -1.4750 C.2   301  SAH301      0.3518
@<TRIPOS>BOND
     1     8     6   ar
     2     7     6   ar
     3     6     2    1
     4     2     1    1
     5     2     3    1
     6     3     4    1
     7    13    12    1
     8    15    14    1
     9     4     5    1
    10    24    25    1
    11    24    23    1
    12    25    26    2
    13    12    14    1
    14    12    10    1
    15     5     9    1
    16    14    16    1
    17    10     9    1
    18    10    11    1
    19    23    21    2
    20    16    11    1
    21    16    17    1
    22    26    17    1
    23    26    20    1
    24    17    18    1
    25    21    20    1
    26    21    22    1
    27    20    19    2
    28    18    19    1
