@<TRIPOS>MOLECULE
2oy2_III_W_1.pdb
 18 17 0 0 0
SMALL
GASTEIGER

@<TRIPOS>ATOM
      1  N         -9.2170    0.8740    2.7170 N.3   207  ILE207     -0.1231
      2  CA       -10.1560   -0.0750    3.3800 C.3   207  ILE207      0.1692
      3  C        -11.2270    0.7460    4.1050 C.2   207  ILE207      0.2592
      4  O        -11.0140    1.9260    4.4010 O.2   207  ILE207     -0.2718
      5  CB        -9.3880   -1.0180    4.3340 C.3   207  ILE207      0.0266
      6  CG1      -10.2000   -2.2810    4.6450 C.3   207  ILE207      0.0019
      7  CG2       -8.9480   -0.2790    5.5880 C.3   207  ILE207      0.0020
      8  CD1       -9.4050   -3.3430    5.3960 C.3   207  ILE207      0.0001
      9  N        -12.3800    0.1340    4.3710 N.am  208  ALA208     -0.1966
     10  CA       -13.4810    0.8240    5.0390 C.3   208  ALA208      0.1728
     11  C        -13.8650    0.1260    6.3380 C.2   208  ALA208      0.2617
     12  O        -13.8510   -1.1030    6.4100 O.2   208  ALA208     -0.2715
     13  CB       -14.6770    0.9030    4.1200 C.3   208  ALA208      0.0334
     14  N        -14.2100    0.9140    7.3560 N.am  209  GLY209     -0.1917
     15  CA       -14.6250    0.3740    8.6530 C.3   209  GLY209      0.2285
     16  C        -16.0360   -0.1820    8.6480 C.2   209  GLY209      0.3865
     17  O        -16.3680   -1.0870    9.4230 O.co2 209  GLY209     -0.2437
     18  OXT      -16.9000    0.2630    7.8830 O.co2 209  GLY209     -0.2437
@<TRIPOS>BOND
     1     1     2    1
     2     2     3    1
     3     2     5    1
     4     3     9   am
     5     3     4    2
     6    13    10    1
     7     5     6    1
     8     5     7    1
     9     9    10    1
    10     6     8    1
    11    10    11    1
    12    11    12    2
    13    11    14   am
    14    14    15    1
    15    18    16   ar
    16    16    15    1
    17    16    17   ar
