@<TRIPOS>MOLECULE
2oye_IM8_P_1.pdb
 30 32 0 0 0
SMALL
GASTEIGER

@<TRIPOS>ATOM
      1  C2       252.9980  109.0240  -41.2680 C.ar  700  IM8700      0.0381
      2  C3       252.6980  108.3840  -42.5190 C.ar  700  IM8700      0.1388
      3  C4       251.9230  107.1430  -42.5330 C.ar  700  IM8700      0.0384
      4  C5       251.4620  106.5520  -41.3590 C.ar  700  IM8700      0.0207
      5  C6       252.9710  108.3730  -44.9810 C.3   700  IM8700      0.2525
      6  C7       252.7250  108.8840  -38.8180 C.ar  700  IM8700      0.0006
      7  C8       252.0870  107.9370  -38.0410 C.ar  700  IM8700      0.0411
      8  C9       250.8580  105.8570  -38.3290 C.2   700  IM8700      0.2644
      9  C        251.7780  107.2080  -40.1400 C.ar  700  IM8700      0.0664
     10  C1       252.5060  108.3820  -40.1210 C.ar  700  IM8700      0.0168
     11  C10      249.5520  105.3500  -38.8810 C.ar  700  IM8700      0.0565
     12  C11      248.6160  106.1970  -39.5360 C.ar  700  IM8700      0.0056
     13  C12      247.4010  105.6550  -40.0420 C.ar  700  IM8700      0.0115
     14  C13      247.1010  104.2620  -39.8970 C.ar  700  IM8700      0.0577
     15  C14      248.0240  103.4090  -39.2420 C.ar  700  IM8700      0.0115
     16  C15      249.2370  103.9490  -38.7410 C.ar  700  IM8700      0.0056
     17  C16      252.0810  107.9750  -36.5380 C.3   700  IM8700      0.0501
     18  C17      253.4920  110.1440  -38.3650 C.3   700  IM8700      0.1143
     19  C18      252.8250  111.3820  -38.0510 C.2   700  IM8700      0.2459
     20  N        251.5170  106.9370  -38.8140 N.ar  700  IM8700     -0.2785
     21  O        253.1540  108.9940  -43.7200 O.3   700  IM8700     -0.4714
     22  O1       251.3470  105.2140  -37.4190 O.2   700  IM8700     -0.2666
     23  O2       252.3000  111.5550  -36.9310 O.2   700  IM8700     -0.2730
     24  O3       249.9710  113.2820  -39.4700 O.3   700  IM8700     -0.2185
     25 CL        245.6320  103.6120  -40.5100 Cl    700  IM8700     -0.0822
     26  N2       252.8350  112.2980  -39.0380 N.am  700  IM8700     -0.2042
     27  C19      252.3680  113.7090  -38.9540 C.3   700  IM8700      0.1282
     28  C20      250.8990  113.7920  -38.5340 C.3   700  IM8700      0.2035
     29  C21      253.2680  114.5500  -38.0100 C.3   700  IM8700      0.0244
     30  C22      254.7940  114.4840  -38.3150 C.3   700  IM8700      0.0019
@<TRIPOS>BOND
     1     5    21    1
     2    21     2    1
     3     3     2   ar
     4     3     4   ar
     5     2     1   ar
     6     4     9   ar
     7     1    10   ar
     8    25    14    1
     9     9    10   ar
    10     9    20   ar
    11    10     6   ar
    12    13    14   ar
    13    13    12   ar
    14    14    15   ar
    15    12    11   ar
    16    24    28    1
    17    15    16   ar
    18    26    27    1
    19    26    19   am
    20    27    28    1
    21    27    29    1
    22    11    16   ar
    23    11     8    1
    24     6    18    1
    25     6     7   ar
    26    20     8   am
    27    20     7   ar
    28    18    19    1
    29     8    22    2
    30    30    29    1
    31    19    23    2
    32     7    17    1
