@<TRIPOS>MOLECULE
2oye_HEM_P_1.pdb
 43 50 0 0 0
SMALL
GASTEIGER

@<TRIPOS>ATOM
      1  CHA      239.4800   91.0210  -41.3220 C.2   601  HEM601      0.0000
      2  CHB      241.2530   87.9920  -44.6040 C.2   601  HEM601      0.0000
      3  CHC      245.3370   90.4620  -44.5160 C.2   601  HEM601      0.0000
      4  CHD      243.6500   93.4820  -41.2790 C.2   601  HEM601      0.0000
      5  C1A      239.5460   89.9400  -42.2310 C.ar  601  HEM601      0.0000
      6  C2A      238.4590   88.8860  -42.5320 C.ar  601  HEM601      0.0000
      7  C3A      239.0160   88.0170  -43.5070 C.ar  601  HEM601      0.0000
      8  C4A      240.4110   88.5730  -43.7390 C.ar  601  HEM601      0.0000
      9  CMA      238.4010   86.7890  -44.1670 C.3   601  HEM601      0.0000
     10  CAA      236.9900   88.6610  -41.9470 C.3   601  HEM601      0.0000
     11  CBA      235.7960   89.3390  -42.6550 C.3   601  HEM601      0.0000
     12  CGA      235.8130   90.8630  -42.6730 C.2   601  HEM601      0.0000
     13  O1A      235.8340   91.4700  -41.5470 O.co2 601  HEM601      0.0000
     14  O2A      235.7220   91.4660  -43.7940 O.co2 601  HEM601      0.0000
     15  C1B      242.5200   88.3830  -44.8740 C.2   601  HEM601      0.0000
     16  C2B      243.4030   87.6950  -45.8230 C.2   601  HEM601      0.0000
     17  C3B      244.5660   88.3980  -45.7970 C.2   601  HEM601      0.0000
     18  C4B      244.3740   89.5070  -44.8400 C.2   601  HEM601      0.0000
     19  CMB      243.0690   86.4710  -46.6270 C.3   601  HEM601      0.0000
     20  CAB      245.7830   88.1170  -46.5800 C.2   601  HEM601      0.0000
     21  CBB      246.5250   86.9650  -46.5190 C.2   601  HEM601      0.0000
     22  C1C      245.2420   91.5170  -43.6250 C.ar  601  HEM601      0.0000
     23  C2C      246.3180   92.4520  -43.3420 C.ar  601  HEM601      0.0000
     24  C3C      245.8090   93.3260  -42.3820 C.ar  601  HEM601      0.0000
     25  C4C      244.4910   92.8910  -42.1620 C.ar  601  HEM601      0.0000
     26  CMC      247.7220   92.4740  -44.0300 C.3   601  HEM601      0.0000
     27  CAC      246.3940   94.4510  -41.6810 C.3   601  HEM601      0.0000
     28  CBC      246.9520   95.6540  -42.1990 C.3   601  HEM601      0.0000
     29  C1D      242.3390   93.0630  -41.0000 C.2   601  HEM601      0.0000
     30  C2D      241.4260   93.7400  -39.9860 C.2   601  HEM601      0.0000
     31  C3D      240.2860   93.0200  -40.0350 C.2   601  HEM601      0.0000
     32  C4D      240.4470   91.9670  -41.0050 C.2   601  HEM601      0.0000
     33  CMD      241.8720   94.9540  -39.1730 C.3   601  HEM601      0.0000
     34  CAD      239.0250   93.2390  -39.2000 C.3   601  HEM601      0.0000
     35  CBD      239.1110   92.4070  -37.9120 C.3   601  HEM601      0.0000
     36  CGD      237.8250   92.4800  -37.0860 C.2   601  HEM601      0.0000
     37  O1D      237.6870   93.3590  -36.2050 O.co2 601  HEM601      0.0000
     38  O2D      236.9420   91.6510  -37.3230 O.co2 601  HEM601      0.0000
     39  NA       240.7080   89.6860  -43.0110 N.ar  601  HEM601      0.0000
     40  NB       243.0980   89.5060  -44.2620 N.2   601  HEM601      0.0000
     41  NC       244.1260   91.8280  -42.8760 N.ar  601  HEM601      0.0000
     42  ND       241.7560   92.0170  -41.6030 N.2   601  HEM601      0.0000
     43 FE        242.3870   90.7630  -42.9540 Fe    601  HEM601      0.0000
@<TRIPOS>BOND
     1    19    16    1
     2    20    21    2
     3    20    17    1
     4    16    17    2
     5    16    15    1
     6    17    18    1
     7    15     2    1
     8    15    40    2
     9    18     3    2
    10    18    40    1
    11     2     8    2
    12     3    22    1
    13    40    43    1
    14     9     7    1
    15    26    23    1
    16    14    12   ar
    17     8     7   ar
    18     8    39   ar
    19    22    23   ar
    20    22    41   ar
    21     7     6   ar
    22    23    24   ar
    23    39    43    1
    24    39     5   ar
    25    43    41    1
    26    43    42    1
    27    41    25   ar
    28    12    11    1
    29    12    13   ar
    30    11    10    1
    31     6     5   ar
    32     6    10    1
    33    24    25   ar
    34    24    27    1
    35     5     1    2
    36    28    27    1
    37    25     4    1
    38    42    32    2
    39    42    29    1
    40     1    32    1
    41     4    29    2
    42    32    31    1
    43    29    30    1
    44    31    30    2
    45    31    34    1
    46    30    33    1
    47    34    35    1
    48    35    36    1
    49    38    36   ar
    50    36    37   ar
