@<TRIPOS>MOLECULE
2oyf_IAC_A_1.pdb
 13 14 0 0 0
SMALL
GASTEIGER

@<TRIPOS>ATOM
      1  C        -19.8710    4.0330   -8.4480 C.2   1001  IAC1001     0.0804
      2  C1       -21.1170    4.8460   -8.4910 C.2   1001  IAC1001     0.0118
      3  C2       -21.7940    5.1160   -7.2990 C.2   1001  IAC1001    -0.0202
      4  C3       -21.2750    4.6170   -6.0970 C.3   1001  IAC1001     0.0521
      5  C4       -20.0990    3.8570   -6.0640 C.2   1001  IAC1001    -0.0199
      6  C5       -19.4000    3.5640   -7.2310 C.2   1001  IAC1001     0.0148
      7  C7       -21.3090    5.1910   -9.9380 C.2   1001  IAC1001     0.0094
      8  C8       -20.1550    4.5270  -10.5870 C.2   1001  IAC1001     0.0951
      9  C17      -22.4900    5.8400  -10.6190 C.3   1001  IAC1001     0.1419
     10  C18      -22.3950    7.2850  -11.0340 C.2   1001  IAC1001     0.3693
     11  N        -19.3850    3.8980   -9.6880 N.2   1001  IAC1001    -0.2442
     12  O2       -23.3900    8.0230  -10.8500 O.co2 1001  IAC1001    -0.2453
     13  O3       -21.3480    7.6750  -11.5960 O.co2 1001  IAC1001    -0.2453
@<TRIPOS>BOND
     1    13    10   ar
     2    10    12   ar
     3    10     9    1
     4     9     7    1
     5     8     7    2
     6     8    11    1
     7     7     2    1
     8    11     1    2
     9     2     1    1
    10     2     3    2
    11     1     6    1
    12     3     4    1
    13     6     5    2
    14     4     5    1
