@<TRIPOS>MOLECULE
2oyh_III_G_1.pdb
 33 34 0 0 0
SMALL
GASTEIGER

@<TRIPOS>ATOM
      1  N         39.8900    9.0570   68.1320 N.3     1  GLY1       -0.1210
      2  CA        40.5920    8.5850   69.3550 C.3     1  GLY1        0.1956
      3  C         41.4450    9.6690   69.9860 C.2     1  GLY1        0.2612
      4  O         41.6250   10.7420   69.4050 O.2     1  GLY1       -0.2717
      5  N         41.9680    9.3920   71.1790 N.am    2  HIS2       -0.1961
      6  CA        42.8070   10.3540   71.8850 C.3     2  HIS2        0.1784
      7  C         44.2390   10.2770   71.3780 C.2     2  HIS2        0.2620
      8  O         44.7860    9.1900   71.1830 O.2     2  HIS2       -0.2715
      9  CB        42.7790   10.0930   73.3960 C.3     2  HIS2        0.0745
     10  CG        43.5640   11.0880   74.1970 C.2     2  HIS2        0.0653
     11  ND1       43.3580   12.4480   74.1050 N.2     2  HIS2       -0.2310
     12  CD2       44.5520   10.9190   75.1070 C.3     2  HIS2        0.1683
     13  CE1       44.1850   13.0740   74.9230 C.2     2  HIS2        0.1939
     14  NE2       44.9210   12.1690   75.5430 N.2     2  HIS2       -0.2440
     15  N         44.8350   11.4430   71.1630 N.am    3  ARG3       -0.1964
     16  CA        46.2020   11.5350   70.6760 C.3     3  ARG3        0.1714
     17  C         47.0650   12.1220   71.7950 C.2     3  ARG3        0.2459
     18  O         47.2630   13.3350   71.8680 O.2     3  ARG3       -0.2730
     19  CB        46.2390   12.4330   69.4360 C.3     3  ARG3        0.0347
     20  CG        47.1930   11.9750   68.3500 C.3     3  ARG3        0.0492
     21  CD        46.5290   12.0590   66.9830 C.3     3  ARG3        0.2205
     22  NE        45.3370   11.2140   66.9150 N.pl3   3  ARG3       -0.0865
     23  CZ        44.5680   11.0790   65.8390 C.cat   3  ARG3        0.5346
     24  NH1       44.8600   11.7370   64.7250 N.pl3   3  ARG3        0.1354
     25  NH2       43.5060   10.2830   65.8770 N.pl3   3  ARG3        0.1354
     26  N         47.5820   11.2620   72.6910 N.am    4  PRO4       -0.2699
     27  CA        48.4200   11.7200   73.8030 C.3     4  PRO4        0.1791
     28  C         49.7570   12.2780   73.3330 C.2     4  PRO4        0.3825
     29  O         50.0140   12.2250   72.1100 O.co2   4  PRO4       -0.2438
     30  CB        48.5770   10.4610   74.6510 C.3     4  PRO4        0.0332
     31  CG        48.5960    9.3800   73.6190 C.3     4  PRO4        0.0238
     32  CD        47.4640    9.7920   72.7010 C.3     4  PRO4        0.0940
     33  OXT       50.5280   12.7570   74.1940 O.co2   4  PRO4       -0.2438
@<TRIPOS>BOND
     1    24    23    1
     2    23    25    1
     3    23    22    2
     4    22    21    1
     5    21    20    1
     6     1     2    1
     7    20    19    1
     8     2     3    1
     9     4     3    2
    10    19    16    1
    11     3     5   am
    12    16    15    1
    13    16    17    1
    14    15     7   am
    15     5     6    1
    16     8     7    2
    17     7     6    1
    18    17    18    2
    19    17    26   am
    20     6     9    1
    21    29    28   ar
    22    26    32    1
    23    26    27    1
    24    32    31    1
    25    28    27    1
    26    28    33   ar
    27     9    10    1
    28    31    30    1
    29    27    30    1
    30    11    10    2
    31    11    13    1
    32    10    12    1
    33    13    14    2
    34    12    14    1
