@<TRIPOS>MOLECULE
2oyi_III_G_1.pdb
 30 31 0 0 0
SMALL
GASTEIGER

@<TRIPOS>ATOM
      1  N         39.4290    8.8190   68.4990 N.3     1  GLY1       -0.1210
      2  CA        40.8230    9.0860   68.0840 C.3     1  GLY1        0.1940
      3  C         41.5900    9.9990   69.0240 C.2     1  GLY1        0.2454
      4  O         41.6600   11.2060   68.7840 O.2     1  GLY1       -0.2732
      5  N         42.1670    9.4600   70.1150 N.am    2  PRO2       -0.2717
      6  CA        42.9360   10.2600   71.0780 C.3     2  PRO2        0.1535
      7  C         44.4070   10.3580   70.6680 C.2     2  PRO2        0.2598
      8  O         45.1620    9.3970   70.8100 O.2     2  PRO2       -0.2715
      9  CB        42.7620    9.4850   72.3750 C.3     2  PRO2        0.0310
     10  CG        42.8010    8.0740   71.8910 C.3     2  PRO2        0.0237
     11  CD        41.9090    8.1120   70.6560 C.3     2  PRO2        0.0939
     12  N         44.8130   11.5120   70.1510 N.am    3  ARG3       -0.1964
     13  CA        46.1980   11.6870   69.7430 C.3     3  ARG3        0.1714
     14  C         47.0480   11.7310   71.0210 C.2     3  ARG3        0.2459
     15  O         46.5640   12.1500   72.0750 O.2     3  ARG3       -0.2730
     16  CB        46.3540   12.9820   68.9390 C.3     3  ARG3        0.0347
     17  CG        47.2700   12.8340   67.7330 C.3     3  ARG3        0.0492
     18  CD        46.5140   12.5740   66.4360 C.3     3  ARG3        0.2205
     19  NE        45.4720   11.5640   66.5830 N.pl3   3  ARG3       -0.0865
     20  CZ        44.7120   11.1270   65.5840 C.cat   3  ARG3        0.5346
     21  NH1       44.8890   11.6100   64.3600 N.pl3   3  ARG3        0.1354
     22  NH2       43.7610   10.2230   65.8110 N.pl3   3  ARG3        0.1354
     23  N         48.3240   11.3000   70.9460 N.am    4  PRO4       -0.2699
     24  CA        49.2190   11.2930   72.1100 C.3     4  PRO4        0.1791
     25  C         49.3470   12.6370   72.8170 C.2     4  PRO4        0.3825
     26  O         48.9650   12.7070   74.0050 O.co2   4  PRO4       -0.2438
     27  CB        50.5450   10.8240   71.5190 C.3     4  PRO4        0.0332
     28  CG        50.4880   11.3490   70.1190 C.3     4  PRO4        0.0238
     29  CD        49.0800   10.9890   69.7190 C.3     4  PRO4        0.0940
     30  OXT       49.8290   13.5960   72.1790 O.co2   4  PRO4       -0.2438
@<TRIPOS>BOND
     1    21    20    1
     2    20    22    1
     3    20    19    2
     4    18    19    1
     5    18    17    1
     6    17    16    1
     7     2     1    1
     8     2     3    1
     9     4     3    2
    10    16    13    1
    11     3     5   am
    12    29    28    1
    13    29    23    1
    14    13    12    1
    15    13    14    1
    16     5    11    1
    17     5     6    1
    18    28    27    1
    19    12     7   am
    20    11    10    1
    21     7     8    2
    22     7     6    1
    23    23    14   am
    24    23    24    1
    25    14    15    2
    26     6     9    1
    27    27    24    1
    28    10     9    1
    29    24    25    1
    30    30    25   ar
    31    25    26   ar
