@<TRIPOS>MOLECULE
2oyk_9MR_A_1.pdb
 21 22 0 0 0
SMALL
GASTEIGER

@<TRIPOS>ATOM
      1  O2B       28.9510   61.1250  -25.7520 O.3   600  9MR600     -0.2149
      2  C2B       29.3330   59.7590  -25.7350 C.3   600  9MR600      0.2406
      3  C3B       30.8000   59.6320  -26.1520 C.3   600  9MR600      0.2198
      4  O3B       31.6140   60.3200  -25.1940 O.3   600  9MR600     -0.2174
      5  C4B       31.1900   58.1570  -26.2250 C.3   600  9MR600      0.2144
      6  O4B       32.5130   58.0530  -26.7810 O.3   600  9MR600     -0.2176
      7  C5B       30.1900   57.3800  -27.0910 C.3   600  9MR600      0.1835
      8  C6B       30.4760   55.8890  -27.0170 C.3   600  9MR600      0.2142
      9  O6B       30.3750   55.4190  -25.6570 O.3   600  9MR600     -0.2176
     10  O5B       28.8470   57.5630  -26.5880 O.3   600  9MR600     -0.3256
     11  C1B       28.4360   58.9340  -26.6520 C.3   600  9MR600      0.2695
     12  O3A       27.1110   58.9690  -26.1310 O.3   600  9MR600     -0.3283
     13  C3A       26.1360   58.3940  -27.0070 C.3   600  9MR600      0.1533
     14  C4A       25.1900   57.4680  -26.2380 C.3   600  9MR600      0.1963
     15  O4A       25.9310   56.4620  -25.5550 O.3   600  9MR600     -0.2190
     16  C5M       24.2150   56.8000  -27.1970 C.3   600  9MR600      0.1240
     17  N5A       23.4410   57.8170  -27.9400 N.3   600  9MR600     -0.2151
     18  C1A       24.3090   58.7950  -28.6330 C.3   600  9MR600      0.0939
     19  C2A       25.2480   59.4630  -27.6320 C.3   600  9MR600      0.0802
     20  C6A       26.0640   60.5880  -28.2940 C.3   600  9MR600      0.1860
     21  O6A       26.7860   60.1180  -29.4410 O.3   600  9MR600     -0.2203
@<TRIPOS>BOND
     1    21    20    1
     2    18    17    1
     3    18    19    1
     4    20    19    1
     5    17    16    1
     6    19    13    1
     7    16    14    1
     8     7     8    1
     9     7    10    1
    10     7     5    1
    11     8     9    1
    12    13    14    1
    13    13    12    1
    14     6     5    1
    15    11    10    1
    16    11    12    1
    17    11     2    1
    18    14    15    1
    19     5     3    1
    20     3     2    1
    21     3     4    1
    22     1     2    1
