@<TRIPOS>MOLECULE
2oyl_IDC_A_1.pdb
 25 27 0 0 0
SMALL
GASTEIGER

@<TRIPOS>ATOM
      1  C1A       28.6580   59.0970  -26.4550 C.3   600  IDC600      0.2695
      2  C2A       29.6170   59.8630  -25.5440 C.3   600  IDC600      0.2406
      3  C3A       31.0650   59.6880  -26.0140 C.3   600  IDC600      0.2198
      4  C4A       31.4030   58.2110  -26.1100 C.3   600  IDC600      0.2144
      5  C5A       30.3640   57.4790  -26.9800 C.3   600  IDC600      0.1835
      6  C6A       30.6090   55.9670  -26.9480 C.3   600  IDC600      0.2142
      7  O2A       29.3000   61.2320  -25.5330 O.3   600  IDC600     -0.2149
      8  O3A       31.9270   60.3160  -25.0700 O.3   600  IDC600     -0.2174
      9  O4A       32.7210   58.0680  -26.6760 O.3   600  IDC600     -0.2176
     10  O5A       29.0110   57.7000  -26.4710 O.3   600  IDC600     -0.3256
     11  O6A       30.3900   55.4390  -25.6330 O.3   600  IDC600     -0.2176
     12  C1B       24.1230   58.2290  -28.4830 C.ar  600  IDC600      0.1538
     13  C2B       24.4830   57.1950  -27.3960 C.3   600  IDC600      0.2404
     14  C3B       25.3330   57.8290  -26.2930 C.3   600  IDC600      0.2183
     15  C4B       26.3640   58.7810  -26.8970 C.3   600  IDC600      0.1742
     16  C5B       25.5960   59.9910  -27.4510 C.3   600  IDC600      0.1493
     17  C6B       26.5310   61.0610  -28.0110 C.3   600  IDC600      0.2071
     18  O2B       23.3330   56.5350  -26.8220 O.3   600  IDC600     -0.2121
     19  O3B       25.9930   56.7910  -25.5530 O.3   600  IDC600     -0.2172
     20  O4B       27.3320   59.1620  -25.9120 O.3   600  IDC600     -0.3263
     21  N1B       24.6780   59.5290  -28.5060 N.ar  600  IDC600     -0.3083
     22  O6B       27.3190   60.5550  -29.0880 O.3   600  IDC600     -0.2182
     23  N2B       23.3520   58.1390  -29.5630 N.ar  600  IDC600     -0.2266
     24  C7B       23.3950   59.3050  -30.2150 C.ar  600  IDC600      0.1189
     25  C8B       24.1950   60.1500  -29.5720 C.ar  600  IDC600      0.0979
@<TRIPOS>BOND
     1    24    25   ar
     2    24    23   ar
     3    25    21   ar
     4    23    12   ar
     5    22    17    1
     6    21    12   ar
     7    21    16    1
     8    12    13    1
     9    17    16    1
    10    16    15    1
    11    13    18    1
    12    13    14    1
    13     5     6    1
    14     5    10    1
    15     5     4    1
    16     6    11    1
    17    15    14    1
    18    15    20    1
    19     9     4    1
    20    10     1    1
    21     1    20    1
    22     1     2    1
    23    14    19    1
    24     4     3    1
    25     3     2    1
    26     3     8    1
    27     2     7    1
