@<TRIPOS>MOLECULE
2oym_MNI_A_1.pdb
 22 23 0 0 0
SMALL
GASTEIGER

@<TRIPOS>ATOM
      1  O1B       25.3250   58.5110  -32.7080 O.2   600  MNI600     -0.2684
      2  C1B       24.6690   57.5440  -32.3470 C.2   600  MNI600      0.2648
      3  C2B       24.8110   56.2730  -33.1330 C.ar  600  MNI600      0.0551
      4  C3B       24.1070   55.1120  -32.8110 C.ar  600  MNI600      0.0058
      5  C4B       24.2660   53.9600  -33.5690 C.ar  600  MNI600      0.0147
      6  C5B       25.1150   53.9530  -34.6800 C.ar  600  MNI600      0.0479
      7  N5B       25.2750   52.8330  -35.4470 N.pl3 600  MNI600     -0.3041
      8  C8B       26.1610   52.8410  -36.6020 C.3   600  MNI600      0.1122
      9  C9B       24.5750   51.6060  -35.1180 C.3   600  MNI600      0.1122
     10  C6B       25.8000   55.1190  -35.0010 C.ar  600  MNI600      0.0147
     11  C7B       25.6530   56.2640  -34.2340 C.ar  600  MNI600      0.0058
     12  N1B       23.9110   57.6250  -31.2440 N.am  600  MNI600     -0.2001
     13  C1A       23.6830   58.8600  -30.5000 C.3   600  MNI600      0.1354
     14  C2A       24.1770   58.9690  -29.0740 C.3   600  MNI600      0.1274
     15  N5A       23.7900   57.8450  -28.2380 N.3   600  MNI600     -0.2110
     16  C5M       24.9040   57.4260  -27.4190 C.3   600  MNI600      0.1386
     17  C6A       24.4910   57.0810  -25.9990 C.3   600  MNI600      0.2020
     18  O6A       23.4210   56.1360  -26.0670 O.3   600  MNI600     -0.2188
     19  C4A       25.8960   58.5690  -27.5330 C.3   600  MNI600      0.2020
     20  O4A       27.2480   58.1760  -27.2870 O.3   600  MNI600     -0.2188
     21  C3A       25.6790   59.0260  -28.9600 C.3   600  MNI600      0.2011
     22  O3A       26.2270   60.3270  -29.2000 O.3   600  MNI600     -0.2188
@<TRIPOS>BOND
     1     8     7    1
     2     7     9    1
     3     7     6    1
     4    10     6   ar
     5    10    11   ar
     6     6     5   ar
     7    11     3   ar
     8     5     4   ar
     9     3     4   ar
    10     3     2    1
    11     1     2    2
    12     2    12   am
    13    12    13    1
    14    13    14    1
    15    22    21    1
    16    14    21    1
    17    14    15    1
    18    21    19    1
    19    15    16    1
    20    19    16    1
    21    19    20    1
    22    16    17    1
    23    18    17    1
