@<TRIPOS>MOLECULE
2oyn_CDP_A_1.pdb
 25 26 0 0 0
SMALL
GASTEIGER

@<TRIPOS>ATOM
      1  O3B       17.0940    6.7610   28.3490 O.2   301  CDP301     -0.2221
      2  PB        18.4150    6.0480   28.4520 P.3   301  CDP301      0.5373
      3  O1B       19.4640    6.8240   29.1950 O.3   301  CDP301     -0.1143
      4  O2B       18.4150    4.5820   28.8080 O.3   301  CDP301     -0.1143
      5  O3A       18.9950    6.0120   26.9260 O.3   301  CDP301     -0.2261
      6  PA        18.6350    5.2010   25.5660 P.3   301  CDP301      0.2231
      7  O1A       18.3970    6.1860   24.4500 O.2   301  CDP301     -0.5169
      8  O2A       17.4780    4.2270   25.8210 O.3   301  CDP301     -0.4370
      9  O5'       19.9130    4.3550   25.1590 O.3   301  CDP301     -0.3111
     10  C5'       20.2050    3.0670   25.6940 C.3   301  CDP301      0.1813
     11  C4'       21.5280    3.0680   26.4330 C.3   301  CDP301      0.1799
     12  O4'       22.6400    3.2710   25.5390 O.3   301  CDP301     -0.3320
     13  C3'       21.6080    4.1530   27.5010 C.3   301  CDP301      0.2158
     14  O3'       22.3620    3.5900   28.5730 O.3   301  CDP301     -0.2175
     15  C2'       22.4290    5.2310   26.7900 C.3   301  CDP301      0.2319
     16  O2'       23.1640    5.9990   27.7170 O.3   301  CDP301     -0.2157
     17  C1'       23.4090    4.4190   25.9820 C.3   301  CDP301      0.2400
     18  N1        23.9090    4.9490   24.7070 N.am  301  CDP301     -0.1778
     19  C2        25.2830    4.8390   24.4330 C.1   301  CDP301      0.2756
     20  O2        26.0880    4.4820   25.3220 O.2   301  CDP301     -0.1925
     21  N3        25.7470    5.2290   23.2250 N.2   301  CDP301     -0.3024
     22  C4        24.8890    5.6370   22.2700 C.2   301  CDP301      0.2346
     23  N4        25.3950    5.9600   21.0540 N.pl3 301  CDP301     -0.0921
     24  C5        23.5210    5.7230   22.5070 C.2   301  CDP301      0.0687
     25  C6        23.0370    5.3580   23.7510 C.2   301  CDP301      0.0836
@<TRIPOS>BOND
     1    23    22    1
     2    22    24    1
     3    22    21    2
     4    24    25    2
     5    21    19    2
     6    25    18    1
     7    19    18   am
     8    19    20    2
     9     7     6    2
    10    18    17    1
    11     9     6    1
    12     9    10    1
    13    12    17    1
    14    12    11    1
    15     6     8    1
    16     6     5    1
    17    10    11    1
    18    17    15    1
    19    11    13    1
    20    15    13    1
    21    15    16    1
    22     5     2    1
    23    13    14    1
    24     1     2    2
    25     2     4    1
    26     2     3    1
