@<TRIPOS>MOLECULE
2oyq_N5P_A_1.pdb
 32 34 0 0 0
SMALL
GASTEIGER

@<TRIPOS>ATOM
      1  OR2       39.1560  142.7160   74.4120 O.2   904  N5P904     -0.1261
      2  NRO       39.3680  143.9120   74.2780 N.pl3 904  N5P904      0.0577
      3  OR1       40.5190  144.2920   74.1430 O.2   904  N5P904     -0.1261
      4  CZ3       38.2670  144.8760   74.2810 C.ar  904  N5P904      0.1430
      5  CE3       38.5460  146.2370   74.1230 C.ar  904  N5P904      0.0256
      6  CD2       37.4670  147.1370   74.1260 C.ar  904  N5P904      0.0190
      7  CH2       36.9580  144.3900   74.4370 C.ar  904  N5P904      0.0256
      8  CZ2       35.8850  145.2490   74.4390 C.ar  904  N5P904      0.0189
      9  CE2       36.1520  146.6270   74.2830 C.ar  904  N5P904      0.0619
     10  NE1       35.2990  147.7000   74.2560 N.ar  904  N5P904     -0.3040
     11  CD1       36.0230  148.8590   74.0790 C.ar  904  N5P904      0.0777
     12  CG        37.3560  148.5640   73.9960 C.ar  904  N5P904      0.0202
     13  C1'       33.8040  147.6600   74.3730 C.3   904  N5P904      0.2073
     14  O4'       33.2360  147.6810   73.0610 O.3   904  N5P904     -0.3327
     15  C4'       32.2070  148.6640   72.9780 C.3   904  N5P904      0.1775
     16  C3'       32.5110  149.6660   74.0830 C.3   904  N5P904      0.1859
     17  O3'       31.3000  150.2630   74.5580 O.3   904  N5P904     -0.2203
     18  C2'       33.1460  148.7940   75.1590 C.3   904  N5P904      0.0893
     19  C5'       32.1640  149.2590   71.5760 C.3   904  N5P904      0.1812
     20  O5'       33.4260  149.1650   70.9200 O.3   904  N5P904     -0.3112
     21  PA        33.9960  150.3870   70.0340 P.3   904  N5P904      0.2189
     22  O1A       35.3900  150.0420   69.5670 O.3   904  N5P904     -0.4371
     23  O2A       32.9390  150.7030   68.9980 O.2   904  N5P904     -0.5170
     24  O3A       34.1690  151.6480   71.0160 O.3   904  N5P904     -0.2700
     25  PB        33.6880  153.1170   70.5720 P.3   904  N5P904      0.2277
     26  O1B       34.4120  154.1010   71.4640 O.3   904  N5P904     -0.4368
     27  O2B       32.1760  153.0930   70.5080 O.2   904  N5P904     -0.5168
     28  O3B       34.3010  153.2750   69.0830 O.3   904  N5P904     -0.2258
     29  PG        33.5620  154.0530   67.8730 P.3   904  N5P904      0.5373
     30  O3G       34.7130  154.6040   67.0560 O.2   904  N5P904     -0.2221
     31  O2G       32.7580  152.9690   67.1830 O.3   904  N5P904     -0.1143
     32  O1G       32.7130  155.1270   68.5160 O.3   904  N5P904     -0.1143
@<TRIPOS>BOND
     1    30    29    2
     2    31    29    1
     3    29    32    1
     4    29    28    1
     5    23    21    2
     6    28    25    1
     7    22    21    1
     8    21    20    1
     9    21    24    1
    10    27    25    2
    11    25    24    1
    12    25    26    1
    13    20    19    1
    14    19    15    1
    15    15    14    1
    16    15    16    1
    17    14    13    1
    18    12    11   ar
    19    12     6   ar
    20    11    10   ar
    21    16    17    1
    22    16    18    1
    23     5     6   ar
    24     5     4   ar
    25     6     9   ar
    26     3     2    2
    27    10     9   ar
    28    10    13    1
    29     2     4    1
    30     2     1    2
    31     4     7   ar
    32     9     8   ar
    33    13    18    1
    34     7     8   ar
