@<TRIPOS>MOLECULE
2oyr_SAH_A_1.pdb
 26 28 0 0 0
SMALL
GASTEIGER

@<TRIPOS>ATOM
      1  N         21.6330   46.9220   22.5220 N.3   301  SAH301     -0.1208
      2  CA        22.6700   46.8970   23.5890 C.3   301  SAH301      0.1952
      3  CB        22.0530   47.3110   24.9290 C.3   301  SAH301      0.0422
      4  CG        20.7000   47.9980   24.7980 C.3   301  SAH301      0.0597
      5  SD        20.2830   49.0280   26.2220 S.3   301  SAH301     -0.1375
      6  C         23.2450   45.4910   23.7020 C.2   301  SAH301      0.3819
      7  O         23.2160   44.9240   24.8160 O.co2 301  SAH301     -0.2441
      8  OXT       23.7200   44.9720   22.6700 O.co2 301  SAH301     -0.2441
      9  C5'       20.4960   50.7040   25.5970 C.3   301  SAH301      0.0899
     10  C4'       21.4800   51.5190   26.4010 C.3   301  SAH301      0.1630
     11  O4'       21.4930   52.8690   25.8840 O.3   301  SAH301     -0.3153
     12  C3'       21.1650   51.6720   27.8950 C.3   301  SAH301      0.2168
     13  O3'       22.1730   51.0400   28.6800 O.3   301  SAH301     -0.2175
     14  C2'       21.1460   53.1900   28.1340 C.3   301  SAH301      0.2569
     15  O2'       21.8040   53.5970   29.3170 O.3   301  SAH301     -0.2130
     16  C1'       21.9060   53.7150   26.9200 C.3   301  SAH301      0.3185
     17  N9        21.5930   55.0930   26.5570 N.pl3 301  SAH301     -0.1439
     18  C8        20.3610   55.6220   26.2420 C.3   301  SAH301      0.3377
     19  N7        20.4200   56.8400   25.7580 N.2   301  SAH301     -0.2095
     20  C5        21.7780   57.1310   25.7490 C.2   301  SAH301      0.2526
     21  C6        22.5000   58.2700   25.3500 C.2   301  SAH301      0.4393
     22  N6        21.9330   59.3730   24.8600 N.pl3 301  SAH301      0.2180
     23  N1        23.8450   58.2350   25.4730 N.2   301  SAH301      0.0021
     24  C2        24.4170   57.1280   25.9660 C.3   301  SAH301      0.5254
     25  N3        23.8460   55.9970   26.3760 N.2   301  SAH301     -0.0055
     26  C4        22.5090   56.0640   26.2390 C.2   301  SAH301      0.3518
@<TRIPOS>BOND
     1     1     2    1
     2     8     6   ar
     3     2     6    1
     4     2     3    1
     5     6     7   ar
     6     4     3    1
     7     4     5    1
     8    22    21    1
     9    21    23    2
    10    21    20    1
    11    23    24    1
    12     9     5    1
    13     9    10    1
    14    20    19    2
    15    20    26    1
    16    19    18    1
    17    11    10    1
    18    11    16    1
    19    24    25    1
    20    26    25    2
    21    26    17    1
    22    18    17    1
    23    10    12    1
    24    17    16    1
    25    16    14    1
    26    12    14    1
    27    12    13    1
    28    14    15    1
