@<TRIPOS>MOLECULE
2oys_FMN_A_1.pdb
 31 33 0 0 0
SMALL
GASTEIGER

@<TRIPOS>ATOM
      1  N1         8.4040    8.7190    0.5900 N.2   301  FMN301     -0.2887
      2  C2         7.4630    7.7970    0.9700 C.1   301  FMN301      0.3669
      3  O2         6.3970    7.6870    0.3850 O.2   301  FMN301     -0.1744
      4  N3         7.8190    6.9880    2.0870 N.2   301  FMN301     -0.2300
      5  C4         9.0600    7.0130    2.8130 C.1   301  FMN301      0.2513
      6  O4         9.3280    6.2330    3.7150 O.2   301  FMN301     -0.2057
      7  C4A       10.0220    7.9140    2.3240 C.2   301  FMN301      0.2703
      8  N5        11.3330    8.0830    2.7730 N.2   301  FMN301     -0.3882
      9  C5A       12.3240    8.9920    2.4340 C.2   301  FMN301      0.1277
     10  C6        13.6450    8.9990    3.1200 C.3   301  FMN301      0.0820
     11  C7        14.6540   10.0140    2.7110 C.2   301  FMN301     -0.0408
     12  C7M       16.0010    9.9770    3.4460 C.3   301  FMN301      0.0265
     13  C8        14.2940   11.0240    1.6330 C.2   301  FMN301     -0.0280
     14  C8M       15.2400   12.1570    1.1610 C.3   301  FMN301      0.0304
     15  C9        12.9510   10.9990    1.0660 C.2   301  FMN301      0.0123
     16  C9A       11.9430    9.9760    1.4300 C.2   301  FMN301      0.0793
     17  N10       10.6420    9.7540    0.8280 N.pl3 301  FMN301     -0.2545
     18  C10        9.6430    8.7840    1.1940 C.2   301  FMN301      0.2449
     19  C1'       10.1980   10.7230   -0.2820 C.3   301  FMN301      0.1336
     20  C2'        9.5820   11.9880    0.3740 C.3   301  FMN301      0.2048
     21  O2'        8.4660   11.6280    1.2060 O.3   301  FMN301     -0.2185
     22  C3'        9.1220   13.0010   -0.6910 C.3   301  FMN301      0.2165
     23  O3'       10.2480   13.5610   -1.3460 O.3   301  FMN301     -0.2175
     24  C4'        8.2730   14.1950   -0.1100 C.3   301  FMN301      0.2147
     25  O4'        8.1990   15.2960   -1.0390 O.3   301  FMN301     -0.2176
     26  C5'        8.8040   14.7950    1.2020 C.3   301  FMN301      0.1892
     27  O5'       10.1290   15.1930    1.1600 O.3   301  FMN301     -0.2674
     28  P         10.5470   16.6480    0.8030 P.3   301  FMN301      0.5327
     29  O1P       10.2160   16.8770   -0.5980 O.2   301  FMN301     -0.2224
     30  O2P        9.8220   17.5200    1.7190 O.3   301  FMN301     -0.1145
     31  O3P       11.9520   16.6180    1.0790 O.3   301  FMN301     -0.1145
@<TRIPOS>BOND
     1    23    22    1
     2    25    24    1
     3    22    24    1
     4    22    20    1
     5    29    28    2
     6    19    20    1
     7    19    17    1
     8    24    26    1
     9    20    21    1
    10     3     2    2
    11     1     2    2
    12     1    18    2
    13    28    31    1
    14    28    27    1
    15    28    30    1
    16    17    18    1
    17    17    16    1
    18     2     4    2
    19    15    16    2
    20    15    13    1
    21    27    26    1
    22    14    13    1
    23    18     7    1
    24    16     9    1
    25    13    11    2
    26     4     5    2
    27     7     8    2
    28     7     5    1
    29     9     8    2
    30     9    10    1
    31    11    10    1
    32    11    12    1
    33     5     6    2
