@<TRIPOS>MOLECULE
2oyu_IMS_P_1.pdb
 30 32 0 0 0
SMALL
GASTEIGER

@<TRIPOS>ATOM
      1  C2        22.2930   51.5060   11.6120 C.ar  700  IMS700      0.0381
      2  C3        23.1730   51.9800   12.5790 C.ar  700  IMS700      0.1388
      3  C4        23.1720   51.3710   13.8250 C.ar  700  IMS700      0.0384
      4  C5        22.3170   50.3000   14.1050 C.ar  700  IMS700      0.0207
      5  C6        25.4210   53.0200   12.4750 C.3   700  IMS700      0.2525
      6  C7        20.4900   49.8050   11.0860 C.ar  700  IMS700      0.0006
      7  C8        19.9190   48.8070   11.8580 C.ar  700  IMS700      0.0411
      8  C9        20.2220   47.9930   14.0640 C.2   700  IMS700      0.2644
      9  O2        20.0140   48.0060    8.7490 O.2   700  IMS700     -0.2730
     10  C18       19.8330   49.2030    8.6070 C.2   700  IMS700      0.2459
     11  N2        19.3340   49.8460    7.5390 N.am  700  IMS700     -0.2042
     12  C19       18.8530   49.4610    6.2070 C.3   700  IMS700      0.1282
     13  C21       20.0920   49.4540    5.3190 C.3   700  IMS700      0.0244
     14  C22       21.0280   48.3140    5.6190 C.3   700  IMS700      0.0019
     15  C20       18.1160   48.1180    6.1740 C.3   700  IMS700      0.2035
     16  O3        17.1810   48.1140    5.0710 O.3   700  IMS700     -0.2185
     17  C17       20.1760   50.2210    9.6700 C.3   700  IMS700      0.1143
     18  C1        21.4370   50.4380   11.8950 C.ar  700  IMS700      0.0168
     19  C16       18.8570   47.8480   11.4390 C.3   700  IMS700      0.0501
     20  N         20.5130   48.8760   13.0480 N.ar  700  IMS700     -0.2785
     21  C         21.4450   49.8250   13.1340 C.ar  700  IMS700      0.0664
     22  O         24.0020   53.0480   12.3040 O.3   700  IMS700     -0.4714
     23  O1        20.9480   47.0560   14.3590 O.2   700  IMS700     -0.2666
     24  C10       19.0010   48.0700   14.8830 C.ar  700  IMS700      0.0565
     25  C15       17.7930   48.4810   14.3570 C.ar  700  IMS700      0.0056
     26  C14       16.6830   48.5200   15.1730 C.ar  700  IMS700      0.0115
     27  C13       16.8100   48.1290   16.4970 C.ar  700  IMS700      0.0577
     28 CL         15.6260   48.1510   17.4230 Cl    700  IMS700     -0.0822
     29  C12       18.0310   47.7060   17.0020 C.ar  700  IMS700      0.0115
     30  C11       19.1370   47.6630   16.1890 C.ar  700  IMS700      0.0056
@<TRIPOS>BOND
     1    16    15    1
     2    13    14    1
     3    13    12    1
     4    15    12    1
     5    12    11    1
     6    11    10   am
     7    10     9    2
     8    10    17    1
     9    17     6    1
    10     6     7   ar
    11     6    18   ar
    12    19     7    1
    13     1    18   ar
    14     1     2   ar
    15     7    20   ar
    16    18    21   ar
    17    22     5    1
    18    22     2    1
    19     2     3   ar
    20    20    21   ar
    21    20     8   am
    22    21     4   ar
    23     3     4   ar
    24     8    23    2
    25     8    24    1
    26    25    24   ar
    27    25    26   ar
    28    24    30   ar
    29    26    27   ar
    30    30    29   ar
    31    27    29   ar
    32    27    28    1
