@<TRIPOS>MOLECULE
2oyu_HEM_P_1.pdb
 43 50 0 0 0
SMALL
GASTEIGER

@<TRIPOS>ATOM
      1  CHA       32.9560   65.9970   10.2860 C.2   601  HEM601      0.0000
      2  CHB       30.9190   69.1380    7.2670 C.2   601  HEM601      0.0000
      3  CHC       26.6220   66.8630    7.4780 C.2   601  HEM601      0.0000
      4  CHD       28.5880   63.8610   10.7140 C.2   601  HEM601      0.0000
      5  C1A       32.7490   67.1100    9.5260 C.ar  601  HEM601      0.0000
      6  C2A       33.6480   68.2410    9.4040 C.ar  601  HEM601      0.0000
      7  C3A       33.0730   69.1140    8.5690 C.ar  601  HEM601      0.0000
      8  C4A       31.8020   68.5550    8.1380 C.ar  601  HEM601      0.0000
      9  CMA       33.6440   70.4840    8.1140 C.3   601  HEM601      0.0000
     10  CAA       35.0030   68.4050   10.1260 C.3   601  HEM601      0.0000
     11  CBA       36.1530   68.0040    9.2110 C.3   601  HEM601      0.0000
     12  CGA       37.3750   67.6790   10.0420 C.2   601  HEM601      0.0000
     13  O1A       38.3420   67.0550    9.5140 O.co2 601  HEM601      0.0000
     14  O2A       37.3910   68.0460   11.2510 O.co2 601  HEM601      0.0000
     15  C1B       29.5920   68.8260    7.1370 C.2   601  HEM601      0.0000
     16  C2B       28.6180   69.6740    6.4970 C.2   601  HEM601      0.0000
     17  C3B       27.4270   69.0650    6.5500 C.2   601  HEM601      0.0000
     18  C4B       27.6090   67.7950    7.2240 C.2   601  HEM601      0.0000
     19  CMB       28.9370   71.0550    5.8840 C.3   601  HEM601      0.0000
     20  CAB       26.0790   69.5980    6.0060 C.2   601  HEM601      0.0000
     21  CBB       25.9970   70.3920    4.9360 C.2   601  HEM601      0.0000
     22  C1C       26.7930   65.7750    8.3030 C.ar  601  HEM601      0.0000
     23  C2C       25.9030   64.6450    8.4700 C.ar  601  HEM601      0.0000
     24  C3C       26.4610   63.8150    9.3670 C.ar  601  HEM601      0.0000
     25  C4C       27.7200   64.3920    9.7930 C.ar  601  HEM601      0.0000
     26  CMC       24.5620   64.4500    7.7260 C.3   601  HEM601      0.0000
     27  CAC       25.8920   62.4610    9.8640 C.2   601  HEM601      0.0000
     28  CBC       25.4280   62.2950   11.1050 C.2   601  HEM601      0.0000
     29  C1D       29.8940   64.2230   10.9610 C.2   601  HEM601      0.0000
     30  C2D       30.6920   63.6980   12.0500 C.2   601  HEM601      0.0000
     31  C3D       32.0690   64.3650   11.9270 C.2   601  HEM601      0.0000
     32  C4D       31.9500   65.2160   10.7670 C.2   601  HEM601      0.0000
     33  CMD       30.2240   62.6780   13.1090 C.3   601  HEM601      0.0000
     34  CAD       33.3170   64.1770   12.8250 C.3   601  HEM601      0.0000
     35  CBD       33.1260   64.9320   14.1350 C.3   601  HEM601      0.0000
     36  CGD       34.3020   64.8110   15.0820 C.2   601  HEM601      0.0000
     37  O1D       34.2680   65.5580   16.0900 O.co2 601  HEM601      0.0000
     38  O2D       35.2560   64.0030   14.8730 O.co2 601  HEM601      0.0000
     39  NA        31.6320   67.3260    8.7410 N.ar  601  HEM601      0.0000
     40  NB        28.9460   67.6850    7.5660 N.2   601  HEM601      0.0000
     41  NC        27.8890   65.5850    9.1250 N.ar  601  HEM601      0.0000
     42  ND        30.6680   65.1170   10.2280 N.2   601  HEM601      0.0000
     43 FE         29.7400   66.2770    8.6870 Fe    601  HEM601      0.0000
@<TRIPOS>BOND
     1    21    20    2
     2    19    16    1
     3    20    17    1
     4    16    17    2
     5    16    15    1
     6    17    18    1
     7    15     2    1
     8    15    40    2
     9    18     3    2
    10    18    40    1
    11     2     8    2
    12     3    22    1
    13    40    43    1
    14    26    23    1
    15     9     7    1
    16     8     7   ar
    17     8    39   ar
    18    22    23   ar
    19    22    41   ar
    20    23    24   ar
    21     7     6   ar
    22    43    39    1
    23    43    41    1
    24    43    42    1
    25    39     5   ar
    26    41    25   ar
    27    11    12    1
    28    11    10    1
    29    24    25   ar
    30    24    27    1
    31     6     5   ar
    32     6    10    1
    33    13    12   ar
    34     5     1    2
    35    25     4    1
    36    27    28    2
    37    12    14   ar
    38    42    32    2
    39    42    29    1
    40     1    32    1
    41     4    29    2
    42    32    31    1
    43    29    30    1
    44    31    30    2
    45    31    34    1
    46    30    33    1
    47    34    35    1
    48    35    36    1
    49    38    36   ar
    50    36    37   ar
