@<TRIPOS>MOLECULE
2oyy_HEM_A_1.pdb
 43 50 0 0 0
SMALL
GASTEIGER

@<TRIPOS>ATOM
      1  CHA      -15.4560   14.8090    9.8570 C.2   201  HEM201      0.0000
      2  CHB      -12.2250   12.7680    6.9630 C.2   201  HEM201      0.0000
      3  CHC      -12.6020    8.6440    9.4390 C.2   201  HEM201      0.0000
      4  CHD      -16.2360   10.5160   12.0350 C.2   201  HEM201      0.0000
      5  C1A      -14.5360   14.6350    8.8640 C.ar  201  HEM201      0.0000
      6  C2A      -14.1040   15.6520    7.9220 C.ar  201  HEM201      0.0000
      7  C3A      -13.2010   15.0860    7.1140 C.ar  201  HEM201      0.0000
      8  C4A      -13.0500   13.7000    7.5290 C.ar  201  HEM201      0.0000
      9  CMA      -12.4390   15.7540    5.9460 C.3   201  HEM201      0.0000
     10  CAA      -14.6110   17.1160    7.8990 C.3   201  HEM201      0.0000
     11  CBA      -13.9520   17.9220    9.0310 C.3   201  HEM201      0.0000
     12  CGA      -14.4470   19.3540    9.0390 C.2   201  HEM201      0.0000
     13  O1A      -14.5700   19.9830    7.9570 O.co2 201  HEM201      0.0000
     14  O2A      -14.7310   19.8800   10.1380 O.co2 201  HEM201      0.0000
     15  C1B      -12.0600   11.4670    7.3750 C.2   201  HEM201      0.0000
     16  C2B      -11.2160   10.4990    6.7190 C.2   201  HEM201      0.0000
     17  C3B      -11.3110    9.3490    7.4030 C.2   201  HEM201      0.0000
     18  C4B      -12.2270    9.5680    8.5020 C.2   201  HEM201      0.0000
     19  CMB      -10.3720   10.7870    5.4530 C.3   201  HEM201      0.0000
     20  CAB      -10.5820    8.0210    7.0900 C.2   201  HEM201      0.0000
     21  CBB      -11.2710    6.9480    6.6880 C.2   201  HEM201      0.0000
     22  C1C      -13.6050    8.8070   10.3690 C.ar  201  HEM201      0.0000
     23  C2C      -14.0050    7.8210   11.3410 C.ar  201  HEM201      0.0000
     24  C3C      -15.0130    8.3280   12.0610 C.ar  201  HEM201      0.0000
     25  C4C      -15.2810    9.6580   11.5590 C.ar  201  HEM201      0.0000
     26  CMC      -13.3420    6.4350   11.4790 C.3   201  HEM201      0.0000
     27  CAC      -15.7580    7.6700   13.2350 C.2   201  HEM201      0.0000
     28  CBC      -16.5300    6.6130   13.0560 C.2   201  HEM201      0.0000
     29  C1D      -16.3630   11.8400   11.6800 C.2   201  HEM201      0.0000
     30  C2D      -17.3700   12.7330   12.2040 C.2   201  HEM201      0.0000
     31  C3D      -17.1240   14.0460   11.5190 C.2   201  HEM201      0.0000
     32  C4D      -15.9920   13.8380   10.6570 C.2   201  HEM201      0.0000
     33  CMD      -18.4820   12.4540   13.2260 C.3   201  HEM201      0.0000
     34  CAD      -17.9240   15.3430   11.7480 C.3   201  HEM201      0.0000
     35  CBD      -17.1500   16.0500   12.8600 C.3   201  HEM201      0.0000
     36  CGD      -17.7720   17.3570   13.2500 C.2   201  HEM201      0.0000
     37  O1D      -18.8880   17.2950   13.8360 O.co2 201  HEM201      0.0000
     38  O2D      -17.1420   18.4260   12.9850 O.co2 201  HEM201      0.0000
     39  NA       -13.8680   13.4600    8.5990 N.ar  201  HEM201      0.0000
     40  NB       -12.6630   10.8660    8.4620 N.2   201  HEM201      0.0000
     41  NC       -14.4050    9.9270   10.5280 N.ar  201  HEM201      0.0000
     42  ND       -15.5620   12.5280   10.7690 N.2   201  HEM201      0.0000
     43 FE        -13.9490   11.7650    9.6780 Fe    201  HEM201      0.0000
@<TRIPOS>BOND
     1    19    16    1
     2     9     7    1
     3    21    20    2
     4    16    15    1
     5    16    17    2
     6     2    15    1
     7     2     8    2
     8    20    17    1
     9     7     8   ar
    10     7     6   ar
    11    15    40    2
    12    17    18    1
    13     8    39   ar
    14    10     6    1
    15    10    11    1
    16     6     5   ar
    17    13    12   ar
    18    40    18    1
    19    40    43    1
    20    18     3    2
    21    39     5   ar
    22    39    43    1
    23     5     1    2
    24    11    12    1
    25    12    14   ar
    26     3    22    1
    27    43    41    1
    28    43    42    1
    29     1    32    1
    30    22    41   ar
    31    22    23   ar
    32    41    25   ar
    33    32    42    2
    34    32    31    1
    35    42    29    1
    36    23    26    1
    37    23    24   ar
    38    31    34    1
    39    31    30    2
    40    25     4    1
    41    25    24   ar
    42    29     4    2
    43    29    30    1
    44    34    35    1
    45    24    27    1
    46    30    33    1
    47    35    36    1
    48    38    36   ar
    49    28    27    2
    50    36    37   ar
