@<TRIPOS>MOLECULE
2oz0_FMN_A_1.pdb
 31 33 0 0 0
SMALL
GASTEIGER

@<TRIPOS>ATOM
      1  N1       -67.3130   53.1230   38.7620 N.2   569  FMN569     -0.2887
      2  C2       -68.1220   52.0770   39.0420 C.1   569  FMN569      0.3669
      3  O2       -67.8620   50.9020   38.9760 O.2   569  FMN569     -0.1744
      4  N3       -69.4480   52.4240   39.3550 N.2   569  FMN569     -0.2300
      5  C4       -69.9890   53.6590   39.4410 C.1   569  FMN569      0.2513
      6  O4       -71.1080   53.7880   39.8780 O.2   569  FMN569     -0.2057
      7  C4A      -69.0320   54.7600   39.2410 C.2   569  FMN569      0.2706
      8  N5       -69.4080   56.0210   39.3530 N.2   569  FMN569     -0.3841
      9  C5A      -68.5890   57.0260   38.9240 C.2   569  FMN569      0.1452
     10  C6       -68.9890   58.3610   38.8310 C.2   569  FMN569      0.0252
     11  C7       -68.1790   59.3800   38.4010 C.2   569  FMN569     -0.0375
     12  C7M      -68.5940   60.8290   38.3660 C.3   569  FMN569      0.0268
     13  C8       -66.9020   59.0340   37.9070 C.3   569  FMN569      0.0417
     14  C8M      -65.9090   60.0810   37.4230 C.3   569  FMN569      0.0091
     15  C9       -66.4700   57.7280   37.9660 C.2   569  FMN569     -0.0049
     16  C9A      -67.2880   56.6950   38.4170 C.2   569  FMN569      0.0795
     17  N10      -66.8880   55.3890   38.4660 N.pl3 569  FMN569     -0.2545
     18  C10      -67.7230   54.3570   38.8260 C.2   569  FMN569      0.2449
     19  C1'      -65.5210   55.0280   38.0510 C.3   569  FMN569      0.1336
     20  C2'      -65.3400   54.5960   36.6040 C.3   569  FMN569      0.2048
     21  O2'      -66.2820   53.7460   35.9540 O.3   569  FMN569     -0.2185
     22  C3'      -63.9930   54.7980   35.9220 C.3   569  FMN569      0.2165
     23  O3'      -63.2580   53.7280   36.5550 O.3   569  FMN569     -0.2175
     24  C4'      -63.3240   56.1430   35.7680 C.3   569  FMN569      0.2147
     25  O4'      -64.2860   57.1110   35.4060 O.3   569  FMN569     -0.2176
     26  C5'      -62.1520   55.9040   34.8300 C.3   569  FMN569      0.1892
     27  O5'      -61.4850   57.1340   34.7660 O.3   569  FMN569     -0.2674
     28  P        -61.6220   58.5180   33.9920 P.3   569  FMN569      0.5327
     29  O1P      -62.8470   59.2640   34.4570 O.3   569  FMN569     -0.1145
     30  O2P      -61.7960   58.1590   32.5330 O.2   569  FMN569     -0.2224
     31  O3P      -60.3540   59.3280   34.1450 O.3   569  FMN569     -0.1145
@<TRIPOS>BOND
     1    30    28    2
     2    28    31    1
     3    28    29    1
     4    28    27    1
     5    27    26    1
     6    26    24    1
     7    25    24    1
     8    24    22    1
     9    22    23    1
    10    22    20    1
    11    21    20    1
    12    20    19    1
    13    14    13    1
    14    13    15    1
    15    13    11    1
    16    15    16    2
    17    19    17    1
    18    12    11    1
    19    11    10    2
    20    16    17    1
    21    16     9    1
    22    17    18    1
    23     1    18    2
    24     1     2    2
    25    18     7    1
    26    10     9    1
    27     9     8    2
    28     3     2    2
    29     2     4    2
    30     7     8    2
    31     7     5    1
    32     4     5    2
    33     5     6    2
