@<TRIPOS>MOLECULE
2oz0_HEM_A_1.pdb
 43 50 0 0 0
SMALL
GASTEIGER

@<TRIPOS>ATOM
      1 FE        -81.0600   59.4030   46.8720 Fe    560  HEM560      0.0000
      2  CHA      -77.9960   60.3600   45.3530 C.2   560  HEM560      0.0000
      3  CHB      -80.3750   56.1280   45.7030 C.2   560  HEM560      0.0000
      4  CHC      -83.5460   58.4000   48.6270 C.2   560  HEM560      0.0000
      5  CHD      -81.3510   62.4920   47.8360 C.2   560  HEM560      0.0000
      6  NA       -79.5440   58.4370   45.8050 N.ar  560  HEM560      0.0000
      7  C1A      -78.4500   59.0910   45.2350 C.ar  560  HEM560      0.0000
      8  C2A      -77.7020   58.2020   44.3810 C.ar  560  HEM560      0.0000
      9  C3A      -78.3540   57.0410   44.4310 C.ar  560  HEM560      0.0000
     10  C4A      -79.4960   57.1170   45.3360 C.ar  560  HEM560      0.0000
     11  CMA      -77.8560   55.8480   43.6700 C.3   560  HEM560      0.0000
     12  CAA      -76.3510   58.6010   43.6430 C.3   560  HEM560      0.0000
     13  CBA      -75.2130   59.1420   44.6470 C.3   560  HEM560      0.0000
     14  CGA      -73.6300   58.9740   44.6040 C.2   560  HEM560      0.0000
     15  O1A      -73.0270   58.1590   45.3750 O.co2 560  HEM560      0.0000
     16  O2A      -72.8160   59.6910   43.9130 O.co2 560  HEM560      0.0000
     17  NB       -81.6880   57.6740   47.1870 N.2   560  HEM560      0.0000
     18  C1B      -81.4090   56.4650   46.5670 C.2   560  HEM560      0.0000
     19  C2B      -82.4830   55.5910   46.9100 C.2   560  HEM560      0.0000
     20  C3B      -83.3470   56.2300   47.7130 C.2   560  HEM560      0.0000
     21  C4B      -82.8510   57.5350   47.8730 C.2   560  HEM560      0.0000
     22  CMB      -82.5120   54.1490   46.3850 C.3   560  HEM560      0.0000
     23  CAB      -84.6740   55.7750   48.4260 C.3   560  HEM560      0.0000
     24  CBB      -85.5340   56.6550   49.1930 C.3   560  HEM560      0.0000
     25  NC       -82.2490   60.2410   48.0050 N.ar  560  HEM560      0.0000
     26  C1C      -83.2540   59.6790   48.7040 C.ar  560  HEM560      0.0000
     27  C2C      -83.8920   60.6450   49.5370 C.ar  560  HEM560      0.0000
     28  C3C      -83.2670   61.7880   49.3430 C.ar  560  HEM560      0.0000
     29  C4C      -82.2130   61.5590   48.3680 C.ar  560  HEM560      0.0000
     30  CMC      -85.0710   60.3850   50.4940 C.3   560  HEM560      0.0000
     31  CAC      -83.6430   63.0830   50.0380 C.2   560  HEM560      0.0000
     32  CBC      -83.2050   64.2060   49.4980 C.2   560  HEM560      0.0000
     33  ND       -79.7920   61.1400   46.5950 N.2   560  HEM560      0.0000
     34  C1D      -80.2560   62.3480   47.0130 C.2   560  HEM560      0.0000
     35  C2D      -79.4190   63.4340   46.4750 C.2   560  HEM560      0.0000
     36  C3D      -78.3010   62.7880   45.6720 C.2   560  HEM560      0.0000
     37  C4D      -78.6720   61.3840   45.8360 C.2   560  HEM560      0.0000
     38  CMD      -79.5850   64.9510   46.7050 C.3   560  HEM560      0.0000
     39  CAD      -77.0980   63.4740   44.9040 C.3   560  HEM560      0.0000
     40  CBD      -75.9630   64.1220   45.7820 C.3   560  HEM560      0.0000
     41  CGD      -74.4330   63.7650   45.7020 C.2   560  HEM560      0.0000
     42  O1D      -73.5400   64.6480   45.3510 O.co2 560  HEM560      0.0000
     43  O2D      -74.0810   62.5860   46.0590 O.co2 560  HEM560      0.0000
@<TRIPOS>BOND
     1    12     8    1
     2    12    13    1
     3    11     9    1
     4    16    14   ar
     5     8     9   ar
     6     8     7   ar
     7     9    10   ar
     8    14    13    1
     9    14    15   ar
    10    39    36    1
    11    39    40    1
    12     7     2    2
    13     7     6   ar
    14    10     3    2
    15    10     6   ar
    16    42    41   ar
    17     2    37    1
    18    36    37    1
    19    36    35    2
    20    41    40    1
    21    41    43   ar
    22     3    18    1
    23     6     1    1
    24    37    33    2
    25    22    19    1
    26    35    38    1
    27    35    34    1
    28    18    19    1
    29    18    17    2
    30    33     1    1
    31    33    34    1
    32     1    17    1
    33     1    25    1
    34    19    20    2
    35    34     5    2
    36    17    21    1
    37    20    21    1
    38    20    23    1
    39     5    29    1
    40    21     4    2
    41    25    29   ar
    42    25    26   ar
    43    29    28   ar
    44    23    24    1
    45     4    26    1
    46    26    27   ar
    47    28    27   ar
    48    28    31    1
    49    32    31    2
    50    27    30    1
