@<TRIPOS>MOLECULE
2oz1_HEC_A_1.pdb
 43 50 0 0 0
SMALL
GASTEIGER

@<TRIPOS>ATOM
      1 FE          8.3800   27.5130   40.6190 Fe    952  HEC952      0.0000
      2  CHA        7.0750   25.9580   37.9020 C.2   952  HEC952      0.0000
      3  CHB        6.7030   25.2710   42.7120 C.2   952  HEC952      0.0000
      4  CHC        9.9960   28.8230   43.3650 C.2   952  HEC952      0.0000
      5  CHD        9.4980   30.1210   38.6890 C.2   952  HEC952      0.0000
      6  NA         7.1460   25.8700   40.3630 N.2   952  HEC952      0.0000
      7  C1A        6.6820   25.4640   39.1320 C.2   952  HEC952      0.0000
      8  C2A        5.7020   24.4160   39.3720 C.2   952  HEC952      0.0000
      9  C3A        5.5860   24.2230   40.7030 C.2   952  HEC952      0.0000
     10  C4A        6.5040   25.1370   41.3530 C.2   952  HEC952      0.0000
     11  CMA        4.6690   23.2180   41.4420 C.3   952  HEC952      0.0000
     12  CAA        4.9000   23.7210   38.2480 C.3   952  HEC952      0.0000
     13  CBA        3.8620   24.8110   37.9520 C.3   952  HEC952      0.0000
     14  CGA        2.8730   24.5570   36.8450 C.2   952  HEC952      0.0000
     15  O1A        2.8490   23.4690   36.2130 O.co2 952  HEC952      0.0000
     16  O2A        2.0810   25.4930   36.6010 O.co2 952  HEC952      0.0000
     17  NB         8.3260   27.1300   42.6840 N.ar  952  HEC952      0.0000
     18  C1B        7.6250   26.1070   43.3060 C.ar  952  HEC952      0.0000
     19  C2B        8.0490   26.0580   44.6810 C.ar  952  HEC952      0.0000
     20  C3B        8.9690   27.0270   44.8640 C.ar  952  HEC952      0.0000
     21  C4B        9.1600   27.7310   43.6090 C.ar  952  HEC952      0.0000
     22  CMB        7.5130   25.0640   45.7530 C.3   952  HEC952      0.0000
     23  CAB        9.7070   27.3260   46.2010 C.3   952  HEC952      0.0000
     24  CBB       10.5720   26.1710   46.6320 C.3   952  HEC952      0.0000
     25  NC         9.5050   29.2090   40.9800 N.2   952  HEC952      0.0000
     26  C1C       10.1510   29.5100   42.1720 C.2   952  HEC952      0.0000
     27  C2C       10.9380   30.7100   41.9410 C.2   952  HEC952      0.0000
     28  C3C       10.8950   30.9930   40.6080 C.2   952  HEC952      0.0000
     29  C4C        9.9280   30.0900   40.0050 C.2   952  HEC952      0.0000
     30  CMC       11.9060   31.2860   43.0000 C.3   952  HEC952      0.0000
     31  CAC       11.5610   32.1260   39.7530 C.3   952  HEC952      0.0000
     32  CBC       12.7920   32.7760   40.2930 C.3   952  HEC952      0.0000
     33  ND         8.2560   28.0090   38.5900 N.ar  952  HEC952      0.0000
     34  C1D        8.9120   29.0900   38.0030 C.ar  952  HEC952      0.0000
     35  C2D        8.9020   28.9320   36.5690 C.ar  952  HEC952      0.0000
     36  C3D        8.1240   27.6380   36.3240 C.ar  952  HEC952      0.0000
     37  C4D        7.7710   27.1200   37.6370 C.ar  952  HEC952      0.0000
     38  CMD        9.5130   29.8540   35.4760 C.3   952  HEC952      0.0000
     39  CAD        7.8680   27.0230   34.9350 C.3   952  HEC952      0.0000
     40  CBD        9.0680   26.1030   34.7680 C.3   952  HEC952      0.0000
     41  CGD        8.9640   25.1670   33.5970 C.2   952  HEC952      0.0000
     42  O1D        9.8270   24.2640   33.5590 O.co2 952  HEC952      0.0000
     43  O2D        8.0660   25.3050   32.7190 O.co2 952  HEC952      0.0000
@<TRIPOS>BOND
     1    43    41   ar
     2    42    41   ar
     3    41    40    1
     4    40    39    1
     5    39    36    1
     6    38    35    1
     7    15    14   ar
     8    36    35   ar
     9    36    37   ar
    10    35    34   ar
    11    16    14   ar
    12    14    13    1
    13    37     2    2
    14    37    33   ar
    15     2     7    1
    16    13    12    1
    17    34    33   ar
    18    34     5    2
    19    12     8    1
    20    33     1    1
    21     5    29    1
    22     7     8    1
    23     7     6    2
    24     8     9    2
    25    31    32    1
    26    31    28    1
    27    29    28    1
    28    29    25    2
    29     6     1    1
    30     6    10    1
    31    28    27    2
    32     1    25    1
    33     1    17    1
    34     9    10    1
    35     9    11    1
    36    25    26    1
    37    10     3    2
    38    27    26    1
    39    27    30    1
    40    26     4    2
    41    17    18   ar
    42    17    21   ar
    43     3    18    1
    44    18    19   ar
    45     4    21    1
    46    21    20   ar
    47    19    20   ar
    48    19    22    1
    49    20    23    1
    50    23    24    1
