@<TRIPOS>MOLECULE
2oz2_D1R_A_1.pdb
 41 44 0 0 0
SMALL
GASTEIGER

@<TRIPOS>ATOM
      1  C39        5.5680  -11.2350  -24.7960 C.3   301  D1R301      0.1123
      2  C40        4.9960  -12.3190  -25.7230 C.3   301  D1R301      0.0940
      3  N4         4.0320  -11.6350  -26.5900 N.3   301  D1R301     -0.2686
      4  C33        3.7760  -12.3750  -27.8370 C.3   301  D1R301      0.0897
      5  C49        2.7810  -11.4750  -25.8460 C.3   301  D1R301      0.0940
      6  C48        3.0190  -10.7370  -24.5200 C.3   301  D1R301      0.1123
      7  N3         4.4570  -10.4410  -24.2060 N.am  301  D1R301     -0.2600
      8  C8         4.7220   -9.4370  -23.3410 C.2   301  D1R301      0.3237
      9  O2         3.7660   -8.8160  -22.8660 O.2   301  D1R301     -0.2508
     10  N1         5.9800   -9.1140  -23.0030 N.am  301  D1R301     -0.1804
     11  C9         6.1980   -8.0040  -22.0600 C.3   301  D1R301      0.1786
     12  C10        7.6870   -7.7480  -21.7090 C.3   301  D1R301      0.0575
     13  C11        8.5560   -8.9770  -21.4250 C.ar  301  D1R301     -0.0200
     14  C12        9.8790   -8.9750  -21.8790 C.ar  301  D1R301     -0.0042
     15  C13       10.7050  -10.0800  -21.6410 C.ar  301  D1R301     -0.0003
     16  C14       10.2290  -11.1850  -20.9220 C.ar  301  D1R301     -0.0000
     17  C15        8.9110  -11.1880  -20.4600 C.ar  301  D1R301     -0.0003
     18  C16        8.0770  -10.0860  -20.7070 C.ar  301  D1R301     -0.0042
     19  C17        5.6650   -6.7560  -22.7420 C.2   301  D1R301      0.2616
     20  O3         5.9390   -6.5180  -23.9200 O.2   301  D1R301     -0.2715
     21  N2         4.9170   -5.9660  -21.9910 N.am  301  D1R301     -0.2057
     22  C18        4.3730   -4.7260  -22.5570 C.3   301  D1R301      0.0975
     23  C19        2.8220   -4.7290  -22.4220 C.3   301  D1R301      0.0264
     24  C20        2.2040   -5.7100  -23.4480 C.3   301  D1R301      0.0281
     25  C21        0.6640   -5.7730  -23.4400 C.ar  301  D1R301     -0.0221
     26  C22       -0.1060   -4.6670  -23.7950 C.ar  301  D1R301     -0.0043
     27  C23       -1.5050   -4.7610  -23.7900 C.ar  301  D1R301     -0.0003
     28  C24       -2.1410   -5.9590  -23.4310 C.ar  301  D1R301     -0.0000
     29  C25       -1.3770   -7.0730  -23.0840 C.ar  301  D1R301     -0.0003
     30  C26        0.0240   -6.9700  -23.0980 C.ar  301  D1R301     -0.0043
     31  C27        5.0740   -3.5290  -21.8820 C.3   301  D1R301      0.0474
     32  C28        4.6780   -3.5000  -20.3970 C.3   301  D1R301      0.1577
     33  S1         3.6830   -2.0540  -19.9030 S.O2  301  D1R301      0.0087
     34  O4         2.5390   -1.8930  -20.8510 O.2   301  D1R301     -0.1686
     35  O5         4.5550   -0.8600  -19.9500 O.2   301  D1R301     -0.1686
     36  CAB        3.0360   -2.3380  -18.2850 C.ar  301  D1R301      0.1057
     37  CAA        1.8460   -1.7280  -17.8940 C.ar  301  D1R301      0.0183
     38  CAC        1.3330   -1.9630  -16.6140 C.ar  301  D1R301      0.0013
     39  CAE        2.0050   -2.8080  -15.7310 C.ar  301  D1R301      0.0001
     40  CAF        3.1890   -3.4280  -16.1220 C.ar  301  D1R301      0.0013
     41  CAD        3.7010   -3.1870  -17.3990 C.ar  301  D1R301      0.0183
@<TRIPOS>BOND
     1     4     3    1
     2     3     5    1
     3     3     2    1
     4     5     6    1
     5     2     1    1
     6     1     7    1
     7     6     7    1
     8     7     8   am
     9    20    19    2
    10    26    27   ar
    11    26    25   ar
    12    27    28   ar
    13    24    25    1
    14    24    23    1
    15    25    30   ar
    16    28    29   ar
    17     8    10   am
    18     8     9    2
    19    30    29   ar
    20    10    11    1
    21    19    11    1
    22    19    21   am
    23    22    23    1
    24    22    21    1
    25    22    31    1
    26    11    12    1
    27    31    32    1
    28    14    15   ar
    29    14    13   ar
    30    12    13    1
    31    15    16   ar
    32    13    18   ar
    33    16    17   ar
    34    34    33    2
    35    18    17   ar
    36    32    33    1
    37    35    33    2
    38    33    36    1
    39    36    37   ar
    40    36    41   ar
    41    37    38   ar
    42    41    40   ar
    43    38    39   ar
    44    40    39   ar
