@<TRIPOS>MOLECULE
2oz5_7XY_A_1.pdb
 39 42 0 0 0
SMALL
GASTEIGER

@<TRIPOS>ATOM
      1  CAV        8.3010   58.2470    8.1540 C.ar  277  7XY277      0.0088
      2  CBE        9.2070   57.2080    8.3520 C.ar  277  7XY277      0.0574
      3 CLF         9.8490   56.4170    6.9550 Cl    277  7XY277     -0.0823
      4  CAN        9.5800   56.8200    9.6370 C.ar  277  7XY277      0.0114
      5  CAM        9.0430   57.4870   10.7390 C.ar  277  7XY277      0.0006
      6  CAO        8.1400   58.5390   10.5450 C.ar  277  7XY277     -0.0026
      7  CBF        7.7790   58.9230    9.2590 C.ar  277  7XY277     -0.0015
      8  CAY        6.8050   60.0830    9.0330 C.3   277  7XY277      0.1210
      9  NBL        7.4890   61.3600    9.4140 N.am  277  7XY277     -0.2619
     10  CBD        6.9110   62.1320   10.3190 C.2   277  7XY277      0.3297
     11  OAB        5.8570   61.8140   10.8470 O.2   277  7XY277     -0.2626
     12  CBC        7.4880   63.4970   10.6540 C.2   277  7XY277      0.4404
     13  OAE        7.9110   63.6520   11.8160 O.co2 277  7XY277     -0.2354
     14  OAA        7.3710   64.4040    9.7920 O.co2 277  7XY277     -0.2354
     15  CAZ        8.7780   61.7270    8.8100 C.3   277  7XY277      0.1274
     16  CBG        8.6090   62.1220    7.3430 C.ar  277  7XY277      0.0285
     17  SBB        7.7280   63.4480    6.8440 S.2   277  7XY277     -0.0699
     18  CAT        9.1260   61.5280    6.2530 C.ar  277  7XY277      0.0058
     19  CAU        8.8100   62.1100    5.0780 C.ar  277  7XY277      0.0269
     20  CBJ        8.0360   63.1950    5.2260 C.ar  277  7XY277      0.1527
     21  SBM        7.4200   64.1580    3.9920 S.O2  277  7XY277      0.0825
     22  OAC        6.7550   65.3510    4.5870 O.2   277  7XY277     -0.1511
     23  OAD        8.5230   64.5900    3.0800 O.2   277  7XY277     -0.1511
     24  NBA        6.2650   63.3380    3.1520 N.3   277  7XY277     -0.0773
     25  CAW        5.2030   62.9770    4.1180 C.3   277  7XY277      0.1162
     26  CAX        3.9820   62.3540    3.4180 C.3   277  7XY277      0.0295
     27  CBK        4.2000   60.8760    3.1120 C.3   277  7XY277      0.0460
     28  CBI        4.4650   59.9990    4.3400 C.ar  277  7XY277     -0.0184
     29  CAR        3.6000   59.9470    5.4330 C.ar  277  7XY277     -0.0040
     30  CAK        3.9210   59.1030    6.5000 C.ar  277  7XY277     -0.0003
     31  CAH        5.0770   58.3150    6.4600 C.ar  277  7XY277     -0.0000
     32  CAL        5.9160   58.3660    5.3630 C.ar  277  7XY277     -0.0003
     33  CAS        5.6130   59.2130    4.3030 C.ar  277  7XY277     -0.0040
     34  CBH        3.0970   60.2490    2.2110 C.ar  277  7XY277     -0.0184
     35  CAP        1.7860   60.7150    2.1740 C.ar  277  7XY277     -0.0040
     36  CAI        0.8720   60.1260    1.2930 C.ar  277  7XY277     -0.0003
     37  CAG        1.2700   59.0700    0.4630 C.ar  277  7XY277     -0.0000
     38  CAJ        2.5870   58.6050    0.4980 C.ar  277  7XY277     -0.0003
     39  CAQ        3.4890   59.1970    1.3760 C.ar  277  7XY277     -0.0040
@<TRIPOS>BOND
     1    37    38   ar
     2    37    36   ar
     3    38    39   ar
     4    36    35   ar
     5    39    34   ar
     6    35    34   ar
     7    34    27    1
     8    23    21    2
     9    27    26    1
    10    27    28    1
    11    24    21    1
    12    24    25    1
    13    26    25    1
    14    21    22    2
    15    21    20    1
    16    33    28   ar
    17    33    32   ar
    18    28    29   ar
    19    19    20   ar
    20    19    18   ar
    21    20    17   ar
    22    32    31   ar
    23    29    30   ar
    24    18    16   ar
    25    31    30   ar
    26    17    16   ar
    27     3     2    1
    28    16    15    1
    29     1     2   ar
    30     1     7   ar
    31     2     4   ar
    32    15     9    1
    33     8     7    1
    34     8     9    1
    35     7     6   ar
    36     9    10   am
    37     4     5   ar
    38    14    12   ar
    39    10    12    1
    40    10    11    2
    41     6     5   ar
    42    12    13   ar
