@<TRIPOS>MOLECULE
2oz6_CMP_A_1.pdb
 22 25 0 0 0
SMALL
GASTEIGER

@<TRIPOS>ATOM
      1  P        -18.5870   37.0410   18.4140 P.3   302  CMP302      0.2141
      2  O1P      -19.2790   36.5250   19.6640 O.3   302  CMP302     -0.4373
      3  O2P      -17.1720   37.4380   18.7670 O.2   302  CMP302     -0.5172
      4  O5'      -18.6020   35.9310   17.3760 O.3   302  CMP302     -0.3114
      5  C5'      -19.8690   35.4450   16.8650 C.3   302  CMP302      0.1812
      6  C4'      -20.3320   36.6780   16.0750 C.3   302  CMP302      0.1793
      7  O4'      -21.5990   36.5450   15.4320 O.3   302  CMP302     -0.3136
      8  C3'      -20.4850   37.8420   17.0550 C.3   302  CMP302      0.1884
      9  O3'      -19.2520   38.1870   17.6800 O.3   302  CMP302     -0.3111
     10  C2'      -21.3460   38.7740   16.2330 C.3   302  CMP302      0.2541
     11  O2'      -20.6900   39.4420   15.1900 O.3   302  CMP302     -0.2131
     12  C1'      -22.3820   37.6060   15.9780 C.3   302  CMP302      0.3185
     13  N9       -23.8250   37.7630   16.4750 N.pl3 302  CMP302     -0.1439
     14  C8       -24.8130   37.8910   15.4700 C.3   302  CMP302      0.3377
     15  N7       -26.0460   38.0100   15.8910 N.2   302  CMP302     -0.2095
     16  C5       -25.8430   37.9590   17.2640 C.2   302  CMP302      0.2526
     17  C6       -26.6740   38.0190   18.4160 C.2   302  CMP302      0.4393
     18  N6       -27.9870   38.1500   18.3430 N.pl3 302  CMP302      0.2180
     19  N1       -26.0180   37.9230   19.6510 N.2   302  CMP302      0.0021
     20  C2       -24.6850   37.7810   19.8670 C.3   302  CMP302      0.5254
     21  N3       -23.8590   37.7190   18.8110 N.2   302  CMP302     -0.0055
     22  C4       -24.5360   37.8160   17.6370 C.2   302  CMP302      0.3518
@<TRIPOS>BOND
     1    11    10    1
     2     7    12    1
     3     7     6    1
     4    14    15    1
     5    14    13    1
     6    15    16    2
     7    12    10    1
     8    12    13    1
     9     6     5    1
    10     6     8    1
    11    10     8    1
    12    13    22    1
    13     5     4    1
    14     8     9    1
    15    16    22    1
    16    16    17    1
    17     4     1    1
    18    22    21    2
    19     9     1    1
    20    18    17    1
    21     1     3    2
    22     1     2    1
    23    17    19    2
    24    21    20    1
    25    19    20    1
