@<TRIPOS>MOLECULE
2oz7_CA4_A_1.pdb
 29 33 0 0 0
SMALL
GASTEIGER

@<TRIPOS>ATOM
      1  C4        25.3710    5.4860    4.3600 C.3     1  CA41        0.0870
      2  C14       27.7990    0.4200    3.9100 C.3     1  CA41        0.0041
      3  C5        26.0230    4.2600    4.4340 C.2     1  CA41       -0.0310
      4  C6        25.2610    3.1080    4.6110 C.2     1  CA41        0.0279
      5  C11       29.5410    2.7440    3.9590 C.3     1  CA41        0.0004
      6  C7        25.8560    1.8540    4.7240 C.3     1  CA41        0.0373
      7  C8        27.3760    1.6800    4.6680 C.3     1  CA41        0.0056
      8  C9        28.0150    2.8790    3.9640 C.3     1  CA41        0.0038
      9  C10       27.5410    4.1740    4.6230 C.3     1  CA41        0.0165
     10  C12       29.9710    1.4620    3.2380 C.3     1  CA41        0.0038
     11  C13       29.3160    0.2570    3.9150 C.3     1  CA41        0.0401
     12  C3        26.0480    6.6800    4.1380 C.2     1  CA41        0.1543
     13  C19       27.7830    4.1280    6.1340 C.3     1  CA41        0.0041
     14  C1        28.3140    5.3730    4.0650 C.3     1  CA41        0.0108
     15  C22       27.9610    5.8950    2.6730 C.3     1  CA41        0.0081
     16  C2        27.5610    6.6960    3.9160 C.3     1  CA41        0.0583
     17  O3        25.4290    7.7430    4.1380 O.2     1  CA41       -0.2957
     18 CL6        23.5410    3.2460    4.7440 Cl      1  CA41       -0.0876
     19  C18       29.8460    0.1050    5.3430 C.3     1  CA41        0.0039
     20  C15       27.3500   -0.9240    4.4870 C.3     1  CA41        0.0042
     21  C16       28.3530   -1.9110    3.8730 C.3     1  CA41        0.0474
     22  C17       29.3940   -1.0580    3.1380 C.3     1  CA41        0.1859
     23  C20       30.7950   -1.6720    3.1960 C.2     1  CA41        0.1869
     24  C21       31.1210   -2.7110    4.2700 C.3     1  CA41        0.0760
     25  O20       31.6470   -1.3520    2.3680 O.2     1  CA41       -0.2924
     26  O17       28.9720   -0.8100    1.7920 O.3     1  CA41       -0.4486
     27  C23       29.0160   -1.9120    0.9930 C.2     1  CA41        0.3177
     28  C24       28.6380   -1.7700   -0.4820 C.3     1  CA41        0.1212
     29  O23       29.3700   -3.0040    1.4370 O.2     1  CA41       -0.2501
@<TRIPOS>BOND
     1    28    27    1
     2    27    29    2
     3    27    26    1
     4    26    22    1
     5    25    23    2
     6    15    16    1
     7    15    14    1
     8    22    23    1
     9    22    21    1
    10    22    11    1
    11    23    24    1
    12    10    11    1
    13    10     5    1
    14    21    20    1
    15     2    11    1
    16     2    20    1
    17     2     7    1
    18    11    19    1
    19    16    14    1
    20    16    12    1
    21     5     8    1
    22     8     9    1
    23     8     7    1
    24    14     9    1
    25    17    12    2
    26    12     1    1
    27     1     3    1
    28     3     4    2
    29     3     9    1
    30     4     6    1
    31     4    18    1
    32     9    13    1
    33     7     6    1
