@<TRIPOS>MOLECULE
2oz9_TRP_R_1.pdb
 15 16 0 0 0
SMALL
GASTEIGER

@<TRIPOS>ATOM
      1  N         -9.8640    3.4270    8.5920 N.3     1  TRP1       -0.1205
      2  CA       -10.0380    2.5600    9.7840 C.3     1  TRP1        0.1987
      3  C        -10.0610    3.4110   11.0610 C.2     1  TRP1        0.3822
      4  O         -9.5270    4.5380   11.0290 O.co2   1  TRP1       -0.2440
      5  CB        -8.9460    1.4860    9.8900 C.3     1  TRP1        0.0585
      6  CG        -9.4110    0.2280   10.5520 C.2     1  TRP1        0.0001
      7  CD1       -9.2210   -0.1430   11.8560 C.2     1  TRP1        0.0946
      8  CD2      -10.1430   -0.8460    9.9310 C.2     1  TRP1        0.0113
      9  NE1       -9.7970   -1.3660   12.1020 N.2     1  TRP1       -0.2442
     10  CE2      -10.3760   -1.8220   10.9550 C.2     1  TRP1        0.0804
     11  CE3      -10.6300   -1.0440    8.6570 C.2     1  TRP1       -0.0202
     12  CZ2      -11.0600   -3.0010   10.6720 C.2     1  TRP1        0.0148
     13  CZ3      -11.3140   -2.2300    8.3750 C.3     1  TRP1        0.0521
     14  CH2      -11.5260   -3.1630    9.3970 C.2     1  TRP1       -0.0199
     15  OXT      -10.6560    2.9300   12.0230 O.co2   1  TRP1       -0.2440
@<TRIPOS>BOND
     1    13    11    1
     2    13    14    1
     3     1     2    1
     4    11     8    2
     5    14    12    2
     6     2     5    1
     7     2     3    1
     8     5     6    1
     9     8     6    1
    10     8    10    1
    11     6     7    2
    12    12    10    1
    13    10     9    2
    14     4     3   ar
    15     3    15   ar
    16     7     9    1
