@<TRIPOS>MOLECULE
2oze_AGS_A_1.pdb
 31 33 0 0 0
SMALL
GASTEIGER

@<TRIPOS>ATOM
      1  PG        36.9620   27.9490   15.2070 P.3   300  AGS300      0.4340
      2  S1G       38.7720   28.8330   15.4570 S.3   300  AGS300      0.0416
      3  O2G       36.3550   27.7170   16.6160 O.3   300  AGS300     -0.1305
      4  O3G       37.1380   26.8000   14.1790 O.2   300  AGS300     -0.2423
      5  PB        36.1140   29.6760   13.0740 P.3   300  AGS300      0.2262
      6  O1B       37.0940   30.7960   12.8700 O.3   300  AGS300     -0.4369
      7  O2B       36.0960   28.5550   12.0830 O.2   300  AGS300     -0.5168
      8  O3B       36.1220   29.1700   14.5720 O.3   300  AGS300     -0.2405
      9  PA        33.3710   30.0190   12.2720 P.3   300  AGS300      0.2189
     10  O1A       32.8510   28.7120   12.8070 O.3   300  AGS300     -0.4371
     11  O2A       33.5870   30.2330   10.8000 O.2   300  AGS300     -0.5170
     12  O3A       34.6790   30.4540   13.1120 O.3   300  AGS300     -0.2701
     13  O5'       32.3790   31.1920   12.7900 O.3   300  AGS300     -0.3112
     14  C5'       31.9590   31.2660   14.1540 C.3   300  AGS300      0.1813
     15  C4'       30.4490   31.5460   14.2740 C.3   300  AGS300      0.1821
     16  O4'       30.1390   32.8110   13.7160 O.3   300  AGS300     -0.3135
     17  C3'       29.5970   30.5400   13.4950 C.3   300  AGS300      0.2184
     18  O3'       28.3910   30.2870   14.2330 O.3   300  AGS300     -0.2174
     19  C2'       29.3020   31.2140   12.1710 C.3   300  AGS300      0.2570
     20  O2'       28.0530   30.8030   11.5800 O.3   300  AGS300     -0.2130
     21  C1'       29.2870   32.6750   12.5680 C.3   300  AGS300      0.3186
     22  N9        29.7490   33.5760   11.5060 N.pl3 300  AGS300     -0.1439
     23  C8        30.8920   33.4870   10.7890 C.3   300  AGS300      0.3377
     24  N7        30.9730   34.5250    9.9220 N.2   300  AGS300     -0.2095
     25  C5        29.8760   35.3020   10.1060 C.2   300  AGS300      0.2526
     26  C6        29.3150   36.5320    9.5180 C.2   300  AGS300      0.4393
     27  N6        29.9660   37.2080    8.5440 N.pl3 300  AGS300      0.2180
     28  N1        28.1260   36.9780   10.0110 N.2   300  AGS300      0.0021
     29  C2        27.4530   36.3560   10.9890 C.3   300  AGS300      0.5254
     30  N3        27.8910   35.2110   11.5490 N.2   300  AGS300     -0.0055
     31  C4        29.0790   34.6660   11.1480 C.2   300  AGS300      0.3518
@<TRIPOS>BOND
     1    27    26    1
     2    26    28    2
     3    26    25    1
     4    24    25    2
     5    24    23    1
     6    28    29    1
     7    25    31    1
     8    23    22    1
     9    11     9    2
    10    29    30    1
    11    31    22    1
    12    31    30    2
    13    22    21    1
    14    20    19    1
    15     7     5    2
    16    19    21    1
    17    19    17    1
    18     9    13    1
    19     9    10    1
    20     9    12    1
    21    21    16    1
    22    13    14    1
    23     6     5    1
    24     5    12    1
    25     5     8    1
    26    17    18    1
    27    17    15    1
    28    16    15    1
    29    14    15    1
    30     4     1    2
    31     8     1    1
    32     1     2    1
    33     1     3    1
