@<TRIPOS>MOLECULE
2ozg_COA_A_1.pdb
 48 50 0 0 0
SMALL
GASTEIGER

@<TRIPOS>ATOM
      1  N1A       -9.9380   25.7130    8.3760 N.2   500  COA500      0.0021
      2  C2A       -9.8330   26.9030    7.7540 C.3   500  COA500      0.5254
      3  N3A      -10.2300   28.0530    8.3350 N.2   500  COA500     -0.0055
      4  C4A      -10.7630   28.0190    9.5810 C.2   500  COA500      0.3518
      5  C5A      -10.9030   26.8110   10.2580 C.2   500  COA500      0.2526
      6  C6A      -10.4700   25.6340    9.6150 C.2   500  COA500      0.4393
      7  N6A      -10.5510   24.4080   10.1760 N.pl3 500  COA500      0.2180
      8  N7A      -11.4670   27.1140   11.4520 N.2   500  COA500     -0.2095
      9  C8A      -11.6690   28.4550   11.5060 C.3   500  COA500      0.3377
     10  N9A      -11.2300   28.9950   10.3570 N.pl3 500  COA500     -0.1439
     11  C1B      -11.2220   30.4230    9.9190 C.3   500  COA500      0.3185
     12  C2B      -12.5970   30.8770    9.4350 C.3   500  COA500      0.2543
     13  O2B      -12.8270   30.5660    8.0410 O.3   500  COA500     -0.2131
     14  C3B      -12.5900   32.3630    9.7720 C.3   500  COA500      0.1928
     15  O3B      -12.2680   33.1880    8.6440 O.3   500  COA500     -0.2673
     16  P3B      -13.4510   33.9360    7.8070 P.3   500  COA500      0.5327
     17  O7A      -13.8310   35.1130    8.6900 O.3   500  COA500     -0.1145
     18  O8A      -12.7860   34.2510    6.4710 O.2   500  COA500     -0.2224
     19  O9A      -14.5920   32.9310    7.7020 O.3   500  COA500     -0.1145
     20  C4B      -11.5640   32.5410   10.8880 C.3   500  COA500      0.1795
     21  O4B      -10.8280   31.3140   10.9760 O.3   500  COA500     -0.3136
     22  C5B      -12.2170   32.8680   12.2320 C.3   500  COA500      0.1812
     23  O5B      -13.0060   31.7440   12.6490 O.3   500  COA500     -0.3112
     24  P1A      -13.3740   31.4230   14.2040 P.3   500  COA500      0.2189
     25  O1A      -12.7520   32.4690   15.0990 O.3   500  COA500     -0.4371
     26  O2A      -14.8850   31.1990   14.2760 O.2   500  COA500     -0.5170
     27  O3A      -12.6590   29.9660   14.4070 O.3   500  COA500     -0.2703
     28  P2A      -13.2120   28.7830   15.3990 P.3   500  COA500      0.2188
     29  O4A      -13.6620   29.4800   16.6860 O.3   500  COA500     -0.4371
     30  O5A      -14.2470   27.9720   14.6220 O.2   500  COA500     -0.5170
     31  O6A      -11.8360   27.8830   15.6540 O.3   500  COA500     -0.3138
     32  CBP      -10.3270   25.8000   15.6820 C.3   500  COA500      0.0645
     33  CCP      -11.7390   26.4260   15.6870 C.3   500  COA500      0.1519
     34  CDP       -9.4300   26.7890   16.4240 C.3   500  COA500      0.0056
     35  CEP       -9.8620   25.8440   14.2290 C.3   500  COA500      0.0056
     36  CAP      -10.3830   24.3670   16.3830 C.3   500  COA500      0.2312
     37  OAP       -9.8770   24.3810   17.7610 O.3   500  COA500     -0.2131
     38  C9P       -9.8130   23.0720   15.7400 C.2   500  COA500      0.2719
     39  O9P      -10.4950   22.3680   14.8170 O.2   500  COA500     -0.2706
     40  N8P       -8.6600   22.4800   16.1120 N.am  500  COA500     -0.2028
     41  C7P       -7.5650   22.7800   17.0360 C.3   500  COA500      0.1248
     42  C6P       -6.3770   22.7770   16.0870 C.3   500  COA500      0.1102
     43  C5P       -5.9660   24.1980   15.7310 C.2   500  COA500      0.2432
     44  O5P       -6.7970   25.0280   15.3680 O.2   500  COA500     -0.2733
     45  N4P       -4.6590   24.4920   15.8030 N.am  500  COA500     -0.2044
     46  C3P       -4.0400   25.7750   15.4840 C.3   500  COA500      0.1276
     47  C2P       -2.5820   25.6210   15.8570 C.3   500  COA500      0.0920
     48  S1P       -2.3800   25.5260   17.6840 S.3   500  COA500     -0.0802
@<TRIPOS>BOND
     1    18    16    2
     2    19    16    1
     3     2     3    1
     4     2     1    1
     5    16    15    1
     6    16    17    1
     7    13    12    1
     8     3     4    2
     9     1     6    2
    10    15    14    1
    11    12    14    1
    12    12    11    1
    13     4     5    1
    14     4    10    1
    15     6     7    1
    16     6     5    1
    17    14    20    1
    18    11    10    1
    19    11    21    1
    20     5     8    2
    21    10     9    1
    22    20    21    1
    23    20    22    1
    24     8     9    1
    25    22    23    1
    26    23    24    1
    27    24    26    2
    28    24    27    1
    29    24    25    1
    30    35    32    1
    31    27    28    1
    32    30    28    2
    33    39    38    2
    34    44    43    2
    35    28    31    1
    36    28    29    1
    37    46    45    1
    38    46    47    1
    39    31    33    1
    40    32    33    1
    41    32    36    1
    42    32    34    1
    43    43    45   am
    44    43    42    1
    45    38    40   am
    46    38    36    1
    47    47    48    1
    48    42    41    1
    49    40    41    1
    50    36    37    1
