@<TRIPOS>MOLECULE
2ozl_TPP_A_1.pdb
 26 27 0 0 0
SMALL
GASTEIGER

@<TRIPOS>ATOM
      1  N1'       10.2620   -9.0460   70.6510 N.2   2330  TPP2330    -0.1861
      2  C2'        9.0080   -8.5820   70.8820 C.1   2330  TPP2330     0.0663
      3  CM2        8.8700   -7.4220   71.8680 C.3   2330  TPP2330     0.1291
      4  N3'        7.9140   -9.0920   70.2890 N.2   2330  TPP2330    -0.3368
      5  C4'        8.1160  -10.1280   69.4190 C.2   2330  TPP2330     0.2292
      6  N4'        6.9750  -10.6110   68.8470 N.pl3 2330  TPP2330    -0.0925
      7  C5'        9.4040  -10.6880   69.1100 C.2   2330  TPP2330     0.0654
      8  C6'       10.4760  -10.0700   69.7940 C.2   2330  TPP2330     0.1115
      9  C7'        9.5840  -11.8610   68.1340 C.3   2330  TPP2330     0.1237
     10  N3         9.0810  -13.0970   68.7510 N.pl3 2330  TPP2330    -0.2970
     11  C2         7.7850  -13.5320   68.5680 C.3   2330  TPP2330     0.1543
     12  S1         7.4970  -15.0050   69.4640 S.3   2330  TPP2330    -0.0951
     13  C5         9.1410  -14.9950   70.0560 C.2   2330  TPP2330     0.0164
     14  C4         9.9070  -13.9570   69.6300 C.2   2330  TPP2330     0.0279
     15  CM4       11.3830  -13.6660   69.9740 C.3   2330  TPP2330     0.0473
     16  C6         9.4690  -16.1560   70.9790 C.3   2330  TPP2330     0.0661
     17  C7         8.7850  -16.0390   72.3700 C.3   2330  TPP2330     0.1544
     18  O7         9.0380  -17.2720   73.0570 O.3   2330  TPP2330    -0.3134
     19  PA         8.1690  -17.7070   74.2480 P.3   2330  TPP2330     0.2230
     20  O1A        7.8000  -16.5020   75.1000 O.3   2330  TPP2330    -0.4370
     21  O2A        8.9630  -18.6790   75.0500 O.2   2330  TPP2330    -0.5169
     22  O3A        6.8510  -18.3580   73.7960 O.3   2330  TPP2330    -0.2261
     23  PB         6.4470  -19.6230   72.9160 P.3   2330  TPP2330     0.5373
     24  O1B        7.5790  -20.6200   73.1030 O.3   2330  TPP2330    -0.1143
     25  O2B        5.1490  -20.0410   73.5690 O.3   2330  TPP2330    -0.1143
     26  O3B        6.2930  -19.2570   71.4870 O.2   2330  TPP2330    -0.2221
@<TRIPOS>BOND
     1     9    10    1
     2     9     7    1
     3    11    10    1
     4    11    12    1
     5    10    14    1
     6     6     5    1
     7     7     5    1
     8     7     8    2
     9     5     4    2
    10    12    13    1
    11    14    15    1
    12    14    13    2
    13     8     1    1
    14    13    16    1
    15     4     2    2
    16     1     2    2
    17     2     3    1
    18    16    17    1
    19    26    23    2
    20    17    18    1
    21    23    24    1
    22    23    25    1
    23    23    22    1
    24    18    19    1
    25    22    19    1
    26    19    21    2
    27    19    20    1
