@<TRIPOS>MOLECULE
2ozm_N5P_A_1.pdb
 32 34 0 0 0
SMALL
GASTEIGER

@<TRIPOS>ATOM
      1  OR2        3.0480   53.4880   22.5460 O.2   905  N5P905     -0.1261
      2  NRO        2.5450   52.3730   22.4030 N.pl3 905  N5P905      0.0577
      3  OR1        2.5200   51.6090   23.3550 O.2   905  N5P905     -0.1261
      4  CZ3        1.9790   51.9380   21.1260 C.ar  905  N5P905      0.1430
      5  CE3        1.4120   50.6650   21.0070 C.ar  905  N5P905      0.0256
      6  CD2        0.8860   50.3000   19.7610 C.ar  905  N5P905      0.0190
      7  CH2        2.0300   52.8370   20.0610 C.ar  905  N5P905      0.0256
      8  CZ2        1.5210   52.5030   18.8400 C.ar  905  N5P905      0.0189
      9  CE2        0.9520   51.2270   18.7000 C.ar  905  N5P905      0.0619
     10  NE1        0.3720   50.6370   17.6130 N.ar  905  N5P905     -0.3040
     11  CD1       -0.0420   49.3670   17.9440 C.ar  905  N5P905      0.0777
     12  CG         0.2470   49.1170   19.2530 C.ar  905  N5P905      0.0202
     13  C1'        0.2450   51.2550   16.2590 C.3   905  N5P905      0.2073
     14  O4'       -0.6070   50.5300   15.3750 O.3   905  N5P905     -0.3327
     15  C4'        0.1580   50.0250   14.2790 C.3   905  N5P905      0.1775
     16  C3'        1.5630   49.9370   14.8490 C.3   905  N5P905      0.1859
     17  O3'        2.5500   49.8210   13.8190 O.3   905  N5P905     -0.2203
     18  C2'        1.6010   51.2700   15.5710 C.3   905  N5P905      0.0893
     19  C5'       -0.4220   48.6960   13.8380 C.3   905  N5P905      0.1812
     20  O5'       -0.1510   47.7430   14.8610 O.3   905  N5P905     -0.3112
     21  PA        -0.1900   46.1670   14.5750 P.3   905  N5P905      0.2189
     22  O1A       -0.8610   45.5320   15.7700 O.3   905  N5P905     -0.4371
     23  O2A       -0.7520   45.9420   13.1950 O.2   905  N5P905     -0.5170
     24  O3A        1.3180   45.6140   14.5730 O.3   905  N5P905     -0.2700
     25  PB         2.5160   46.3530   13.8050 P.3   905  N5P905      0.2277
     26  O1B        3.2540   47.2350   14.7760 O.3   905  N5P905     -0.4368
     27  O2B        1.9780   46.9460   12.5300 O.2   905  N5P905     -0.5168
     28  O3B        3.4880   45.1110   13.4550 O.3   905  N5P905     -0.2258
     29  PG         2.9840   43.6680   12.9290 P.3   905  N5P905      0.5373
     30  O3G        4.1740   43.1180   12.1860 O.3   905  N5P905     -0.1143
     31  O2G        1.7770   43.8890   12.0610 O.2   905  N5P905     -0.2221
     32  O1G        2.6950   42.9590   14.2160 O.3   905  N5P905     -0.1143
@<TRIPOS>BOND
     1    31    29    2
     2    30    29    1
     3    27    25    2
     4    29    28    1
     5    29    32    1
     6    23    21    2
     7    28    25    1
     8    25    24    1
     9    25    26    1
    10    17    16    1
    11    19    15    1
    12    19    20    1
    13    15    16    1
    14    15    14    1
    15    24    21    1
    16    21    20    1
    17    21    22    1
    18    16    18    1
    19    14    13    1
    20    18    13    1
    21    13    10    1
    22    10    11   ar
    23    10     9   ar
    24    11    12   ar
    25     9     8   ar
    26     9     6   ar
    27     8     7   ar
    28    12     6   ar
    29     6     5   ar
    30     7     4   ar
    31     5     4   ar
    32     4     2    1
    33     2     1    2
    34     2     3    2
