@<TRIPOS>MOLECULE
2ozo_ANP_A_1.pdb
 31 33 0 0 0
SMALL
GASTEIGER

@<TRIPOS>ATOM
      1  PG        29.1610  -23.1770   -8.8860 P.3   615  ANP615      0.4884
      2  O1G       29.4740  -23.6810  -10.2720 O.2   615  ANP615     -0.2331
      3  O2G       27.7050  -22.8830   -8.6560 O.3   615  ANP615     -0.1240
      4  O3G       29.7340  -24.0220   -7.8000 O.3   615  ANP615     -0.1240
      5  PB        29.6170  -20.1780   -8.8110 P.3   615  ANP615      0.4669
      6  O1B       30.8060  -19.4250   -9.1970 O.2   615  ANP615     -0.2351
      7  O2B       28.9130  -19.7780   -7.5640 O.3   615  ANP615     -0.1253
      8  N3B       30.0250  -21.7850   -8.7240 N.3   615  ANP615     -0.0163
      9  PA        27.7100  -19.2320  -10.8610 P.3   615  ANP615      0.2220
     10  O1A       27.7260  -19.5240  -12.3130 O.2   615  ANP615     -0.5170
     11  O2A       26.3820  -19.0710  -10.2480 O.3   615  ANP615     -0.4370
     12  O3A       28.6300  -20.2030   -9.9980 O.3   615  ANP615     -0.2360
     13  O5'       28.4920  -17.9200  -10.6330 O.3   615  ANP615     -0.3111
     14  C5'       28.2180  -17.1110   -9.4980 C.3   615  ANP615      0.1813
     15  C4'       28.2890  -15.6810   -9.8360 C.3   615  ANP615      0.1821
     16  O4'       27.2780  -15.4090  -10.8260 O.3   615  ANP615     -0.3135
     17  C3'       28.0310  -14.7900   -8.6530 C.3   615  ANP615      0.2184
     18  O3'       29.2290  -14.0610   -8.4380 O.3   615  ANP615     -0.2174
     19  C2'       26.8300  -13.9590   -9.0230 C.3   615  ANP615      0.2570
     20  O2'       27.1150  -12.5510   -9.0820 O.3   615  ANP615     -0.2130
     21  C1'       26.3370  -14.3980  -10.4040 C.3   615  ANP615      0.3186
     22  N9        24.9310  -14.9550  -10.3160 N.pl3 615  ANP615     -0.1439
     23  C8        24.4960  -16.2680  -10.3120 C.3   615  ANP615      0.3377
     24  N7        23.2020  -16.4230  -10.2060 N.2   615  ANP615     -0.2095
     25  C5        22.7380  -15.1180  -10.1320 C.2   615  ANP615      0.2526
     26  C6        21.4140  -14.5490   -9.9960 C.2   615  ANP615      0.4393
     27  N6        20.3430  -15.3160   -9.9110 N.pl3 615  ANP615      0.2180
     28  N1        21.2890  -13.1850   -9.9510 N.2   615  ANP615      0.0021
     29  C2        22.3860  -12.4180  -10.0340 C.3   615  ANP615      0.5254
     30  N3        23.6690  -12.8240  -10.1560 N.2   615  ANP615     -0.0055
     31  C4        23.7760  -14.2120  -10.2020 C.2   615  ANP615      0.3518
@<TRIPOS>BOND
     1    10     9    2
     2     9    13    1
     3     9    11    1
     4     9    12    1
     5    16    21    1
     6    16    15    1
     7    13    14    1
     8    21    22    1
     9    21    19    1
    10    22    23    1
    11    22    31    1
    12    23    24    1
    13     2     1    2
    14    24    25    2
    15    31    30    2
    16    31    25    1
    17    30    29    1
    18    25    26    1
    19    29    28    1
    20    12     5    1
    21    26    28    2
    22    26    27    1
    23    15    14    1
    24    15    17    1
    25     6     5    2
    26    20    19    1
    27    19    17    1
    28     1     8    1
    29     1     3    1
    30     1     4    1
    31     5     8    1
    32     5     7    1
    33    17    18    1
