@<TRIPOS>MOLECULE
2ozr_GG1_A_1.pdb
 32 35 0 0 0
SMALL
GASTEIGER

@<TRIPOS>ATOM
      1  N1         6.1160   33.5450    4.5750 N.ar  2001  GG12001    -0.2791
      2  C4         6.1860   34.0960    8.2370 C.3   2001  GG12001     0.1403
      3  C5         7.7950   34.5970    6.4920 C.ar  2001  GG12001     0.2659
      4  C6         8.9640   34.5620    2.4830 C.ar  2001  GG12001     0.0097
      5  C7        10.9690   35.5660    3.1060 C.1   2001  GG12001    -0.0640
      6  C8         9.8190   35.0950    3.4560 C.ar  2001  GG12001     0.0419
      7  C10        7.5120   30.5890   10.3940 C.ar  2001  GG12001     0.0798
      8  C13        6.2830   30.5700    9.7150 C.ar  2001  GG12001     0.0063
      9  C15        5.8520   31.6960    9.0150 C.ar  2001  GG12001    -0.0022
     10  C17        7.8680   32.8640    9.6630 C.ar  2001  GG12001    -0.0022
     11  C20       14.4830   35.7010    2.7490 C.ar  2001  GG12001    -0.0092
     12  C21        6.6460   32.8480    8.9840 C.ar  2001  GG12001     0.0006
     13  C22        8.1820   34.5870    5.1560 C.ar  2001  GG12001     0.0728
     14  C24        7.9870   29.3910   11.1770 C.2   2001  GG12001     0.3878
     15  C26       12.0110   35.9830    2.7280 C.1   2001  GG12001    -0.0816
     16  O6         7.4800   28.2920   11.0400 O.co2 2001  GG12001    -0.2406
     17  O5         8.9370   29.5240   12.0910 O.co2 2001  GG12001    -0.2406
     18  C19        8.3010   31.7410   10.3620 C.ar  2001  GG12001     0.0063
     19  N6         6.5980   34.0880    6.8290 N.ar  2001  GG12001    -0.2445
     20  O2         8.5420   35.0730    7.3830 O.2   2001  GG12001    -0.2668
     21  C3         7.3160   34.0460    4.1890 C.ar  2001  GG12001     0.0685
     22  C2         7.7200   34.0350    2.8500 C.ar  2001  GG12001     0.0181
     23  C25        5.1560   32.9630    3.6320 C.3   2001  GG12001     0.1351
     24  C1         5.7710   33.5720    5.8840 C.ar  2001  GG12001     0.3341
     25  O1         4.6600   33.1010    6.2280 O.2   2001  GG12001    -0.2462
     26  C23        9.4310   35.0980    4.7890 C.ar  2001  GG12001     0.0144
     27  C11       13.2950   36.4940    2.2150 C.3   2001  GG12001     0.1026
     28  C16       15.7490   35.8910    2.1860 C.ar  2001  GG12001    -0.0033
     29  C18       16.8560   35.1940    2.6630 C.ar  2001  GG12001    -0.0003
     30  C14       14.3380   34.8000    3.8060 C.ar  2001  GG12001    -0.0033
     31  C12       15.4400   34.0940    4.2910 C.ar  2001  GG12001    -0.0003
     32  C9        16.7020   34.2930    3.7180 C.ar  2001  GG12001    -0.0000
@<TRIPOS>BOND
     1    28    29   ar
     2    28    11   ar
     3    27    15    1
     4    27    11    1
     5     4    22   ar
     6     4     6   ar
     7    29    32   ar
     8    15     5    3
     9    11    30   ar
    10    22    21   ar
    11     5     6    1
    12     6    26   ar
    13    23     1    1
    14    32    31   ar
    15    30    31   ar
    16    21     1   ar
    17    21    13   ar
    18     1    24   ar
    19    26    13   ar
    20    13     3   ar
    21    24    25    2
    22    24    19   ar
    23     3    19   ar
    24     3    20    2
    25    19     2    1
    26     2    12    1
    27    12     9   ar
    28    12    10   ar
    29     9     8   ar
    30    10    18   ar
    31     8     7   ar
    32    18     7   ar
    33     7    14    1
    34    16    14   ar
    35    14    17   ar
