@<TRIPOS>MOLECULE
2ozs_DTP_A_1.pdb
 30 32 0 0 0
SMALL
GASTEIGER

@<TRIPOS>ATOM
      1  PG         3.3230   43.9470   14.3930 P.3   905  DTP905      0.5373
      2  O1G        2.0720   44.2650   13.6230 O.3   905  DTP905     -0.1143
      3  O2G        4.4880   43.4100   13.5910 O.2   905  DTP905     -0.2221
      4  O3G        3.0770   43.1550   15.6530 O.3   905  DTP905     -0.1143
      5  PB         2.9860   46.7090   15.0470 P.3   905  DTP905      0.2277
      6  O1B        3.7840   47.7420   15.7880 O.3   905  DTP905     -0.4368
      7  O2B        2.3480   47.1050   13.7420 O.2   905  DTP905     -0.5168
      8  O3B        3.8960   45.3900   14.8640 O.3   905  DTP905     -0.2258
      9  PA         0.3490   46.4760   15.9760 P.3   905  DTP905      0.2189
     10  O1A       -0.2540   45.8600   17.2220 O.3   905  DTP905     -0.4371
     11  O2A       -0.1180   46.1030   14.5870 O.2   905  DTP905     -0.5170
     12  O3A        1.8980   46.1010   16.0460 O.3   905  DTP905     -0.2700
     13  O5'        0.2120   48.0690   16.1120 O.3   905  DTP905     -0.3112
     14  C5'        0.0520   48.9480   15.0090 C.3   905  DTP905      0.1813
     15  C4'        0.5550   50.2960   15.4770 C.3   905  DTP905      0.1795
     16  O4'       -0.2400   50.7470   16.5780 O.3   905  DTP905     -0.3155
     17  C3'        1.9380   50.2030   16.0850 C.3   905  DTP905      0.1883
     18  O3'        2.9330   50.0970   15.0660 O.3   905  DTP905     -0.2202
     19  C2'        1.9450   51.5260   16.8220 C.3   905  DTP905      0.1151
     20  C1'        0.5850   51.4680   17.5050 C.3   905  DTP905      0.2873
     21  N9         0.6860   50.7690   18.8260 N.pl3 905  DTP905     -0.1460
     22  C8         0.3680   49.4970   19.0850 C.3   905  DTP905      0.3377
     23  N7         0.5620   49.1480   20.3760 N.2   905  DTP905     -0.2095
     24  C5         1.0480   50.2270   21.0090 C.2   905  DTP905      0.2526
     25  C6         1.4710   50.5630   22.3920 C.2   905  DTP905      0.4393
     26  N6         1.4560   49.6800   23.4290 N.pl3 905  DTP905      0.2180
     27  N1         1.9270   51.8080   22.6070 N.2   905  DTP905      0.0021
     28  C2         1.9730   52.7380   21.6460 C.3   905  DTP905      0.5254
     29  N3         1.5660   52.4890   20.3880 N.2   905  DTP905     -0.0055
     30  C4         1.1190   51.2750   19.9930 C.2   905  DTP905      0.3518
@<TRIPOS>BOND
     1     3     1    2
     2     2     1    1
     3     7     5    2
     4     1     8    1
     5     1     4    1
     6    11     9    2
     7     8     5    1
     8    14    15    1
     9    14    13    1
    10     5     6    1
    11     5    12    1
    12    18    17    1
    13    15    17    1
    14    15    16    1
    15     9    12    1
    16     9    13    1
    17     9    10    1
    18    17    19    1
    19    16    20    1
    20    19    20    1
    21    20    21    1
    22    21    22    1
    23    21    30    1
    24    22    23    1
    25    30    29    2
    26    30    24    1
    27    23    24    2
    28    29    28    1
    29    24    25    1
    30    28    27    1
    31    25    27    2
    32    25    26    1
