@<TRIPOS>MOLECULE
2ozy_HEC_A_1.pdb
 43 50 0 0 0
SMALL
GASTEIGER

@<TRIPOS>ATOM
      1 FE        -21.9910   -4.8230   16.5240 Fe    201  HEC201      0.0000
      2  CHA      -20.1810   -7.4040   17.8470 C.2   201  HEC201      0.0000
      3  CHB      -20.1370   -5.0370   13.6830 C.2   201  HEC201      0.0000
      4  CHC      -24.0150   -2.4740   15.0510 C.2   201  HEC201      0.0000
      5  CHD      -23.3220   -4.1040   19.5230 C.2   201  HEC201      0.0000
      6  NA       -20.4530   -6.0070   15.8910 N.ar  201  HEC201      0.0000
      7  C1A      -19.8180   -6.9860   16.6060 C.ar  201  HEC201      0.0000
      8  C2A      -18.7230   -7.5240   15.8060 C.ar  201  HEC201      0.0000
      9  C3A      -18.7070   -6.8540   14.6540 C.ar  201  HEC201      0.0000
     10  C4A      -19.7970   -5.9020   14.6800 C.ar  201  HEC201      0.0000
     11  CMA      -17.7270   -7.0560   13.4750 C.3   201  HEC201      0.0000
     12  CAA      -17.7650   -8.6430   16.2410 C.3   201  HEC201      0.0000
     13  CBA      -16.6620   -8.0780   17.1350 C.3   201  HEC201      0.0000
     14  CGA      -15.9940   -9.1760   17.9370 C.2   201  HEC201      0.0000
     15  O1A      -15.3410  -10.0790   17.3410 O.co2 201  HEC201      0.0000
     16  O2A      -16.1000   -9.1600   19.1940 O.co2 201  HEC201      0.0000
     17  NB       -22.0520   -3.9110   14.6940 N.2   201  HEC201      0.0000
     18  C1B      -21.2450   -4.2290   13.6230 C.2   201  HEC201      0.0000
     19  C2B      -21.7620   -3.5430   12.4480 C.2   201  HEC201      0.0000
     20  C3B      -22.8430   -2.8400   12.8380 C.2   201  HEC201      0.0000
     21  C4B      -23.0340   -3.0480   14.2610 C.2   201  HEC201      0.0000
     22  CMB      -21.1620   -3.6270   11.0160 C.3   201  HEC201      0.0000
     23  CAB      -23.7790   -1.9470   11.9940 C.3   201  HEC201      0.0000
     24  CBB      -24.3890   -2.6300   10.7470 C.3   201  HEC201      0.0000
     25  NC       -23.3800   -3.4770   17.1690 N.ar  201  HEC201      0.0000
     26  C1C      -24.1720   -2.6610   16.4010 C.ar  201  HEC201      0.0000
     27  C2C      -25.1420   -2.0130   17.2620 C.ar  201  HEC201      0.0000
     28  C3C      -24.9990   -2.5390   18.4940 C.ar  201  HEC201      0.0000
     29  C4C      -23.8590   -3.4320   18.4550 C.ar  201  HEC201      0.0000
     30  CMC      -26.2630   -1.1000   16.7240 C.3   201  HEC201      0.0000
     31  CAC      -25.7730   -2.2370   19.8140 C.3   201  HEC201      0.0000
     32  CBC      -27.3050   -2.1260   19.6820 C.3   201  HEC201      0.0000
     33  ND       -21.7680   -5.6210   18.3840 N.2   201  HEC201      0.0000
     34  C1D      -22.4640   -5.1780   19.5020 C.2   201  HEC201      0.0000
     35  C2D      -22.1330   -6.0300   20.6290 C.2   201  HEC201      0.0000
     36  C3D      -21.1570   -7.0700   20.0950 C.2   201  HEC201      0.0000
     37  C4D      -20.9900   -6.7300   18.7110 C.2   201  HEC201      0.0000
     38  CMD      -22.6270   -5.9750   22.0830 C.3   201  HEC201      0.0000
     39  CAD      -20.4960   -8.2240   20.8640 C.3   201  HEC201      0.0000
     40  CBD      -21.2510   -9.5010   20.5000 C.3   201  HEC201      0.0000
     41  CGD      -20.4390  -10.6920   20.9140 C.2   201  HEC201      0.0000
     42  O1D      -20.3610  -10.9270   22.1480 O.co2 201  HEC201      0.0000
     43  O2D      -19.8680  -11.4010   20.0290 O.co2 201  HEC201      0.0000
@<TRIPOS>BOND
     1    24    23    1
     2    22    19    1
     3    23    20    1
     4    19    20    2
     5    19    18    1
     6    20    21    1
     7    11     9    1
     8    18     3    1
     9    18    17    2
    10     3    10    2
    11    21    17    1
    12    21     4    2
    13     9    10   ar
    14     9     8   ar
    15    10     6   ar
    16    17     1    1
    17     4    26    1
    18     8    12    1
    19     8     7   ar
    20     6     1    1
    21     6     7   ar
    22    12    13    1
    23    26    25   ar
    24    26    27   ar
    25     1    25    1
    26     1    33    1
    27     7     2    2
    28    30    27    1
    29    13    14    1
    30    25    29   ar
    31    27    28   ar
    32    15    14   ar
    33     2    37    1
    34    14    16   ar
    35    33    37    2
    36    33    34    1
    37    29    28   ar
    38    29     5    1
    39    28    31    1
    40    37    36    1
    41    34     5    2
    42    34    35    1
    43    32    31    1
    44    43    41   ar
    45    36    35    2
    46    36    39    1
    47    40    39    1
    48    40    41    1
    49    35    38    1
    50    41    42   ar
