@<TRIPOS>MOLECULE
2p02_SAM_A_1.pdb
 27 29 0 0 0
SMALL
GASTEIGER

@<TRIPOS>ATOM
      1  N        -10.2250    8.0600   43.3330 N.3     2  SAM2       -0.1208
      2  CA       -11.0440    9.2060   42.8080 C.3     2  SAM2        0.1952
      3  C        -12.4440    9.1500   43.3820 C.2     2  SAM2        0.3819
      4  O        -13.3830    9.4780   42.6580 O.co2   2  SAM2       -0.2441
      5  OXT      -12.5400    8.7650   44.5720 O.co2   2  SAM2       -0.2441
      6  CB       -10.9970    9.1650   41.2840 C.3     2  SAM2        0.0414
      7  CG        -9.6040    9.5420   40.7170 C.3     2  SAM2        0.0503
      8  SD        -9.0840   11.3750   41.0370 S.3     2  SAM2       -0.1761
      9  CE       -10.1770   12.2640   39.8960 C.3     2  SAM2        0.0590
     10  C5'       -7.6330   11.1090   40.0120 C.3     2  SAM2        0.0806
     11  C4'       -6.7110   12.3090   39.9990 C.3     2  SAM2        0.1622
     12  O4'       -7.4100   13.4710   39.5580 O.3     2  SAM2       -0.3153
     13  C3'       -6.0520   12.7020   41.3160 C.3     2  SAM2        0.2168
     14  O3'       -4.8880   11.9290   41.5920 O.3     2  SAM2       -0.2175
     15  C2'       -5.7380   14.1770   41.0840 C.3     2  SAM2        0.2569
     16  O2'       -4.5880   14.3360   40.2620 O.3     2  SAM2       -0.2130
     17  C1'       -6.9460   14.6120   40.2490 C.3     2  SAM2        0.3185
     18  N9        -8.0370   15.1720   41.0960 N.pl3   2  SAM2       -0.1439
     19  C8        -8.2690   14.9700   42.4380 C.3     2  SAM2        0.3377
     20  N7        -9.2960   15.7230   42.8590 N.2     2  SAM2       -0.2095
     21  C5        -9.7090   16.4370   41.7630 C.2     2  SAM2        0.2526
     22  C6       -10.6590   17.4340   41.6130 C.2     2  SAM2        0.4393
     23  N6       -11.4650   17.8800   42.5950 N.pl3   2  SAM2        0.2180
     24  N1       -10.7910   17.9630   40.3740 N.2     2  SAM2        0.0021
     25  C2       -10.0020   17.5580   39.3560 C.3     2  SAM2        0.5254
     26  N3        -9.0750   16.5970   39.4350 N.2     2  SAM2       -0.0055
     27  C4        -8.9320   16.0910   40.6680 C.2     2  SAM2        0.3518
@<TRIPOS>BOND
     1    25    26    1
     2    25    24    1
     3    26    27    2
     4    12    11    1
     5    12    17    1
     6     9     8    1
     7    11    10    1
     8    11    13    1
     9    10     8    1
    10    17    15    1
    11    17    18    1
    12    16    15    1
    13    24    22    2
    14    27    18    1
    15    27    21    1
    16     7     8    1
    17     7     6    1
    18    15    13    1
    19    18    19    1
    20     6     2    1
    21    13    14    1
    22    22    21    1
    23    22    23    1
    24    21    20    2
    25    19    20    1
    26     4     3   ar
    27     2     1    1
    28     2     3    1
    29     3     5   ar
