@<TRIPOS>MOLECULE
2p05_ADP_A_1.pdb
 27 29 0 0 0
SMALL
GASTEIGER

@<TRIPOS>ATOM
      1  PB        -1.3730   25.6190   18.7540 P.3   100  ADP100      0.5373
      2  O1B       -1.1460   24.9660   17.3830 O.2   100  ADP100     -0.2221
      3  O2B       -2.6300   26.5000   18.8650 O.3   100  ADP100     -0.1143
      4  O3B       -1.0600   24.7490   19.9820 O.3   100  ADP100     -0.1143
      5  PA        -0.2210   28.1190   18.6680 P.3   100  ADP100      0.2231
      6  O1A        1.1180   28.5130   19.2610 O.2   100  ADP100     -0.5169
      7  O2A       -1.5690   28.4610   19.2950 O.3   100  ADP100     -0.4370
      8  O3A       -0.0660   26.5490   18.6760 O.3   100  ADP100     -0.2261
      9  O5'       -0.2890   28.5060   17.1000 O.3   100  ADP100     -0.3111
     10  C5'        0.6320   27.9050   16.1950 C.3   100  ADP100      0.1813
     11  C4'        1.0850   28.8010   15.0380 C.3   100  ADP100      0.1821
     12  O4'        0.6450   30.1410   15.1950 O.3   100  ADP100     -0.3135
     13  C3'        2.5960   28.8360   15.1010 C.3   100  ADP100      0.2184
     14  O3'        3.2320   28.8000   13.8130 O.3   100  ADP100     -0.2174
     15  C2'        2.8270   30.1470   15.7900 C.3   100  ADP100      0.2570
     16  O2'        4.0820   30.7240   15.4890 O.3   100  ADP100     -0.2130
     17  C1'        1.7790   31.0040   15.1740 C.3   100  ADP100      0.3186
     18  N9         1.6550   32.2020   16.0430 N.pl3 100  ADP100     -0.1439
     19  C8         0.6300   32.3950   16.8880 C.3   100  ADP100      0.3377
     20  N7         0.7740   33.5680   17.5430 N.2   100  ADP100     -0.2095
     21  C5         1.9010   34.1360   17.1420 C.2   100  ADP100      0.2526
     22  C6         2.5620   35.3920   17.4810 C.2   100  ADP100      0.4393
     23  N6         1.9610   36.1810   18.4070 N.pl3 100  ADP100      0.2180
     24  N1         3.7360   35.6690   16.8610 N.2   100  ADP100      0.0021
     25  C2         4.2550   34.8060   15.9490 C.3   100  ADP100      0.5254
     26  N3         3.6790   33.6400   15.5940 N.2   100  ADP100     -0.0055
     27  C4         2.5040   33.2510   16.1480 C.2   100  ADP100      0.3518
@<TRIPOS>BOND
     1    14    13    1
     2    11    13    1
     3    11    12    1
     4    11    10    1
     5    13    15    1
     6    17    12    1
     7    17    15    1
     8    17    18    1
     9    16    15    1
    10    26    25    1
    11    26    27    2
    12    25    24    1
    13    18    27    1
    14    18    19    1
    15    27    21    1
    16    10     9    1
    17    24    22    2
    18    19    20    1
    19     9     5    1
    20    21    22    1
    21    21    20    2
    22     2     1    2
    23    22    23    1
    24     5     8    1
    25     5     6    2
    26     5     7    1
    27     8     1    1
    28     1     3    1
    29     1     4    1
