@<TRIPOS>MOLECULE
2p09_ATP_A_1.pdb
 31 33 0 0 0
SMALL
GASTEIGER

@<TRIPOS>ATOM
      1  PG        -3.2400   26.0270   20.6140 P.3   500  ATP500      0.5373
      2  O1G       -3.5630   25.4860   22.0040 O.3   500  ATP500     -0.1143
      3  O2G       -3.8050   25.1340   19.5150 O.2   500  ATP500     -0.2221
      4  O3G       -3.5840   27.5050   20.4060 O.3   500  ATP500     -0.1143
      5  PB        -0.7210   25.7520   19.1450 P.3   500  ATP500      0.2277
      6  O1B       -1.6470   25.3820   17.9860 O.2   500  ATP500     -0.5168
      7  O2B        0.4760   24.8390   19.5070 O.3   500  ATP500     -0.4368
      8  O3B       -1.5900   25.9870   20.5070 O.3   500  ATP500     -0.2258
      9  PA        -0.2770   28.6810   19.1860 P.3   500  ATP500      0.2189
     10  O1A       -1.7430   29.0980   19.4140 O.2   500  ATP500     -0.5170
     11  O2A        0.6920   28.9140   20.3340 O.3   500  ATP500     -0.4371
     12  O3A       -0.0910   27.1800   18.6420 O.3   500  ATP500     -0.2700
     13  O5'        0.2570   29.4780   17.9420 O.3   500  ATP500     -0.3112
     14  C5'       -0.3620   29.3290   16.6370 C.3   500  ATP500      0.1813
     15  C4'        0.5290   29.9810   15.5690 C.3   500  ATP500      0.1821
     16  O4'        0.4590   31.4100   15.6640 O.3   500  ATP500     -0.3135
     17  C3'        2.0060   29.6410   15.6620 C.3   500  ATP500      0.2184
     18  O3'        2.5910   29.7290   14.3410 O.3   500  ATP500     -0.2174
     19  C2'        2.5420   30.8290   16.4810 C.3   500  ATP500      0.2570
     20  O2'        3.9230   31.0820   16.3450 O.3   500  ATP500     -0.2130
     21  C1'        1.7420   31.9900   15.8340 C.3   500  ATP500      0.3186
     22  N9         1.5790   33.1250   16.7850 N.pl3 500  ATP500     -0.1439
     23  C8         0.6150   33.2490   17.7370 C.3   500  ATP500      0.3377
     24  N7         0.7750   34.4250   18.4050 N.2   500  ATP500     -0.2095
     25  C5         1.8340   35.0600   17.8760 C.2   500  ATP500      0.2526
     26  C6         2.5310   36.3250   18.1300 C.2   500  ATP500      0.4393
     27  N6         2.1010   37.1530   19.1260 N.pl3 500  ATP500      0.2180
     28  N1         3.6300   36.6300   17.3590 N.2   500  ATP500      0.0021
     29  C2         4.0480   35.7750   16.3690 C.3   500  ATP500      0.5254
     30  N3         3.4490   34.5930   16.0920 N.2   500  ATP500     -0.0055
     31  C4         2.3640   34.1890   16.7960 C.2   500  ATP500      0.3518
@<TRIPOS>BOND
     1    18    17    1
     2    15    17    1
     3    15    16    1
     4    15    14    1
     5    17    19    1
     6    16    21    1
     7    21    19    1
     8    21    22    1
     9    30    29    1
    10    30    31    2
    11    20    19    1
    12    29    28    1
    13    14    13    1
    14    22    31    1
    15    22    23    1
    16    31    25    1
    17    28    26    2
    18    23    24    1
    19    25    26    1
    20    25    24    2
    21    13     9    1
    22     6     5    2
    23    26    27    1
    24    12     5    1
    25    12     9    1
    26     5     7    1
    27     5     8    1
    28     9    10    2
    29     9    11    1
    30     3     1    2
    31     4     1    1
    32     8     1    1
    33     1     2    1
