@<TRIPOS>MOLECULE
2p0a_ANP_A_1.pdb
 31 33 0 0 0
SMALL
GASTEIGER

@<TRIPOS>ATOM
      1  PG       -14.2650   -9.3740  -14.7250 P.3   707  ANP707      0.4884
      2  O1G      -13.0250   -8.5410  -14.7450 O.3   707  ANP707     -0.1240
      3  O2G      -14.3450  -10.2690  -16.0600 O.2   707  ANP707     -0.2331
      4  O3G      -14.2860  -10.4270  -13.5450 O.3   707  ANP707     -0.1240
      5  PB       -16.1170   -7.9350  -13.2220 P.3   707  ANP707      0.4669
      6  O1B      -15.0490   -7.4080  -12.3740 O.3   707  ANP707     -0.1253
      7  O2B      -16.9900   -8.9890  -12.6400 O.2   707  ANP707     -0.2351
      8  N3B      -15.6190   -8.4330  -14.6820 N.3   707  ANP707     -0.0163
      9  PA       -18.1580   -6.3900  -14.6990 P.3   707  ANP707      0.2220
     10  O1A      -18.1880   -7.3460  -15.8480 O.2   707  ANP707     -0.5170
     11  O2A      -18.1580   -4.9500  -15.0140 O.3   707  ANP707     -0.4370
     12  O3A      -17.0040   -6.6510  -13.6160 O.3   707  ANP707     -0.2360
     13  O5'      -19.4850   -6.5840  -13.8230 O.3   707  ANP707     -0.3111
     14  C5'      -19.9670   -7.8470  -13.3500 C.3   707  ANP707      0.1813
     15  C4'      -21.3820   -8.1100  -13.8500 C.3   707  ANP707      0.1821
     16  O4'      -22.2670   -7.0880  -13.3240 O.3   707  ANP707     -0.3135
     17  C3'      -21.5500   -8.0430  -15.3680 C.3   707  ANP707      0.2184
     18  O3'      -21.3140   -9.3070  -15.9350 O.3   707  ANP707     -0.2174
     19  C2'      -23.0250   -7.7290  -15.4900 C.3   707  ANP707      0.2570
     20  O2'      -23.8020   -8.9460  -15.3520 O.3   707  ANP707     -0.2130
     21  C1'      -23.2560   -6.7840  -14.3190 C.3   707  ANP707      0.3186
     22  N9       -23.0890   -5.3790  -14.7130 N.pl3 707  ANP707     -0.1439
     23  C8       -21.9400   -4.6820  -14.8630 C.3   707  ANP707      0.3377
     24  N7       -22.2230   -3.4290  -15.2550 N.2   707  ANP707     -0.2095
     25  C5       -23.5590   -3.3520  -15.3610 C.2   707  ANP707      0.2526
     26  C6       -24.4310   -2.3260  -15.7130 C.2   707  ANP707      0.4393
     27  N6       -24.0180   -1.1010  -16.0310 N.pl3 707  ANP707      0.2180
     28  N1       -25.7950   -2.5960  -15.7030 N.2   707  ANP707      0.0021
     29  C2       -26.2790   -3.8650  -15.3600 C.3   707  ANP707      0.5254
     30  N3       -25.4400   -4.8250  -15.0490 N.2   707  ANP707     -0.0055
     31  C4       -24.1020   -4.5840  -15.0400 C.2   707  ANP707      0.3518
@<TRIPOS>BOND
     1     3     1    2
     2    27    26    1
     3    18    17    1
     4    10     9    2
     5    26    28    2
     6    26    25    1
     7    28    29    1
     8    19    17    1
     9    19    20    1
    10    19    21    1
    11    17    15    1
    12    25    24    2
    13    25    31    1
    14    29    30    1
    15    24    23    1
    16    30    31    2
    17    31    22    1
    18    11     9    1
    19    23    22    1
    20     2     1    1
    21     1     8    1
    22     1     4    1
    23    22    21    1
    24     9    13    1
    25     9    12    1
    26     8     5    1
    27    21    16    1
    28    15    14    1
    29    15    16    1
    30    13    14    1
    31    12     5    1
    32     5     7    2
    33     5     6    1
