@<TRIPOS>MOLECULE
2p0b_HEC_A_1.pdb
 43 50 0 0 0
SMALL
GASTEIGER

@<TRIPOS>ATOM
      1 FE        -21.9840   -5.1040   16.6140 Fe    201  HEC201      0.0000
      2  CHA      -20.1080   -7.6790   17.9250 C.2   201  HEC201      0.0000
      3  CHB      -20.3000   -5.3220   13.7170 C.2   201  HEC201      0.0000
      4  CHC      -24.1060   -2.7300   15.1550 C.2   201  HEC201      0.0000
      5  CHD      -23.3830   -4.5130   19.6280 C.2   201  HEC201      0.0000
      6  NA       -20.4960   -6.2950   15.9570 N.ar  201  HEC201      0.0000
      7  C1A      -19.8250   -7.2690   16.6510 C.ar  201  HEC201      0.0000
      8  C2A      -18.7540   -7.7740   15.8050 C.ar  201  HEC201      0.0000
      9  C3A      -18.8060   -7.1020   14.6420 C.ar  201  HEC201      0.0000
     10  C4A      -19.9090   -6.1710   14.7170 C.ar  201  HEC201      0.0000
     11  CMA      -17.9020   -7.2590   13.3830 C.3   201  HEC201      0.0000
     12  CAA      -17.7630   -8.8830   16.2310 C.3   201  HEC201      0.0000
     13  CBA      -16.5760   -8.2720   16.9730 C.3   201  HEC201      0.0000
     14  CGA      -15.4210   -9.2410   16.9160 C.2   201  HEC201      0.0000
     15  O1A      -14.7980   -9.3900   15.8150 O.co2 201  HEC201      0.0000
     16  O2A      -15.1350   -9.8490   17.9800 O.co2 201  HEC201      0.0000
     17  NB       -22.2040   -4.1760   14.7490 N.2   201  HEC201      0.0000
     18  C1B      -21.3870   -4.4850   13.6750 C.2   201  HEC201      0.0000
     19  C2B      -21.8890   -3.7930   12.5070 C.2   201  HEC201      0.0000
     20  C3B      -22.9480   -3.0600   12.8990 C.2   201  HEC201      0.0000
     21  C4B      -23.1460   -3.2820   14.3210 C.2   201  HEC201      0.0000
     22  CMB      -21.2590   -3.8750   11.0910 C.3   201  HEC201      0.0000
     23  CAB      -23.8500   -2.1260   12.0460 C.3   201  HEC201      0.0000
     24  CBB      -24.4400   -2.7890   10.7750 C.3   201  HEC201      0.0000
     25  NC       -23.4400   -3.8260   17.2520 N.ar  201  HEC201      0.0000
     26  C1C      -24.2140   -2.9700   16.5100 C.ar  201  HEC201      0.0000
     27  C2C      -25.0910   -2.2610   17.4340 C.ar  201  HEC201      0.0000
     28  C3C      -25.0120   -2.8880   18.6260 C.ar  201  HEC201      0.0000
     29  C4C      -23.8900   -3.7980   18.5620 C.ar  201  HEC201      0.0000
     30  CMC      -26.2220   -1.3680   16.8740 C.3   201  HEC201      0.0000
     31  CAC      -25.7560   -2.6250   19.9790 C.3   201  HEC201      0.0000
     32  CBC      -27.2130   -2.1350   19.8190 C.3   201  HEC201      0.0000
     33  ND       -21.7520   -5.9600   18.4990 N.2   201  HEC201      0.0000
     34  C1D      -22.4890   -5.5670   19.6150 C.2   201  HEC201      0.0000
     35  C2D      -22.1550   -6.4390   20.7370 C.2   201  HEC201      0.0000
     36  C3D      -21.1310   -7.4360   20.1950 C.2   201  HEC201      0.0000
     37  C4D      -20.9530   -7.0570   18.8060 C.2   201  HEC201      0.0000
     38  CMD      -22.7130   -6.4090   22.1830 C.3   201  HEC201      0.0000
     39  CAD      -20.4390   -8.6040   20.9330 C.3   201  HEC201      0.0000
     40  CBD      -21.2050   -9.8830   20.5810 C.3   201  HEC201      0.0000
     41  CGD      -20.4210  -11.1200   20.9450 C.2   201  HEC201      0.0000
     42  O1D      -20.3290  -11.4270   22.1590 O.co2 201  HEC201      0.0000
     43  O2D      -19.8810  -11.8130   20.0370 O.co2 201  HEC201      0.0000
@<TRIPOS>BOND
     1    24    23    1
     2    22    19    1
     3    23    20    1
     4    19    20    2
     5    19    18    1
     6    20    21    1
     7    11     9    1
     8    18     3    1
     9    18    17    2
    10     3    10    2
    11    21    17    1
    12    21     4    2
    13     9    10   ar
    14     9     8   ar
    15    10     6   ar
    16    17     1    1
    17     4    26    1
    18     8    12    1
    19     8     7   ar
    20    15    14   ar
    21     6     1    1
    22     6     7   ar
    23    12    13    1
    24    26    25   ar
    25    26    27   ar
    26     1    25    1
    27     1    33    1
    28     7     2    2
    29    30    27    1
    30    14    13    1
    31    14    16   ar
    32    25    29   ar
    33    27    28   ar
    34     2    37    1
    35    33    37    2
    36    33    34    1
    37    29    28   ar
    38    29     5    1
    39    28    31    1
    40    37    36    1
    41    34     5    2
    42    34    35    1
    43    32    31    1
    44    43    41   ar
    45    36    35    2
    46    36    39    1
    47    40    39    1
    48    40    41    1
    49    35    38    1
    50    41    42   ar
