@<TRIPOS>MOLECULE
2p0c_ANP_A_1.pdb
 31 33 0 0 0
SMALL
GASTEIGER

@<TRIPOS>ATOM
      1  PG        -8.1080   11.3100  -14.0260 P.3     1  ANP1        0.4884
      2  O1G       -7.8410   10.0050  -13.3040 O.3     1  ANP1       -0.1240
      3  O2G       -8.2590   12.5250  -13.1320 O.3     1  ANP1       -0.1240
      4  O3G       -9.1600   11.1850  -15.1060 O.2     1  ANP1       -0.2331
      5  PB        -6.2440   11.0800  -16.4700 P.3     1  ANP1        0.4669
      6  O1B       -4.7570   11.1580  -16.6980 O.2     1  ANP1       -0.2351
      7  O2B       -6.9020    9.7310  -16.6150 O.3     1  ANP1       -0.1253
      8  N3B       -6.5900   11.6630  -14.8590 N.3     1  ANP1       -0.0163
      9  PA        -7.4870   13.5220  -17.3430 P.3     1  ANP1        0.2220
     10  O1A       -7.0770   14.1070  -16.0190 O.3     1  ANP1       -0.4370
     11  O2A       -8.9540   13.4550  -17.6940 O.2     1  ANP1       -0.5170
     12  O3A       -6.9110   12.0360  -17.5810 O.3     1  ANP1       -0.2360
     13  O5'       -6.7290   14.4050  -18.4650 O.3     1  ANP1       -0.3111
     14  C5'       -6.4910   13.9410  -19.7980 C.3     1  ANP1        0.1813
     15  C4'       -5.0970   14.3520  -20.2780 C.3     1  ANP1        0.1821
     16  O4'       -4.8880   15.7620  -20.1090 O.3     1  ANP1       -0.3135
     17  C3'       -4.0250   13.6750  -19.4530 C.3     1  ANP1        0.2184
     18  O3'       -2.9540   13.3360  -20.3210 O.3     1  ANP1       -0.2174
     19  C2'       -3.5680   14.7530  -18.4860 C.3     1  ANP1        0.2570
     20  O2'       -2.2320   14.5810  -17.9890 O.3     1  ANP1       -0.2130
     21  C1'       -3.7140   16.0060  -19.3250 C.3     1  ANP1        0.3186
     22  N9        -3.8370   17.1690  -18.4110 N.pl3   1  ANP1       -0.1439
     23  C8        -4.7080   17.3030  -17.3890 C.3     1  ANP1        0.3377
     24  N7        -4.5380   18.4840  -16.7500 N.2     1  ANP1       -0.2095
     25  C5        -3.5330   19.1320  -17.3710 C.2     1  ANP1        0.2526
     26  C6        -2.8230   20.4260  -17.2090 C.2     1  ANP1        0.4393
     27  N6        -3.1640   21.3070  -16.2430 N.pl3   1  ANP1        0.2180
     28  N1        -1.8260   20.7040  -18.0800 N.2     1  ANP1        0.0021
     29  C2        -1.4490   19.8520  -19.0560 C.3     1  ANP1        0.5254
     30  N3        -2.0440   18.6640  -19.2520 N.2     1  ANP1       -0.0055
     31  C4        -3.0680   18.2570  -18.4580 C.2     1  ANP1        0.3518
@<TRIPOS>BOND
     1    18    17    1
     2    15    16    1
     3    15    14    1
     4    15    17    1
     5    16    21    1
     6    14    13    1
     7    17    19    1
     8    21    19    1
     9    21    22    1
    10    30    29    1
    11    30    31    2
    12    29    28    1
    13    19    20    1
    14    13     9    1
    15    31    22    1
    16    31    25    1
    17    22    23    1
    18    28    26    2
    19    11     9    2
    20    12     9    1
    21    12     5    1
    22    23    24    1
    23    25    26    1
    24    25    24    2
    25     9    10    1
    26    26    27    1
    27     6     5    2
    28     7     5    1
    29     5     8    1
    30     4     1    2
    31     8     1    1
    32     1     2    1
    33     1     3    1
