@<TRIPOS>MOLECULE
2p0d_I3P_A_1.pdb
 24 24 0 0 0
SMALL
GASTEIGER

@<TRIPOS>ATOM
      1  C1        -9.0730  -16.6550   -0.5780 C.3   800  I3P800      0.1918
      2  C2        -8.7130  -16.6340   -2.0400 C.3   800  I3P800      0.2147
      3  C3        -7.2130  -16.8260   -2.2070 C.3   800  I3P800      0.2146
      4  C4        -6.8070  -18.1640   -1.5160 C.3   800  I3P800      0.1892
      5  C5        -7.2310  -18.2050   -0.0530 C.3   800  I3P800      0.1891
      6  C6        -8.7530  -17.9900    0.1300 C.3   800  I3P800      0.2120
      7  O1       -10.4510  -16.3270   -0.5670 O.3   800  I3P800     -0.2673
      8  O2        -9.4580  -17.6610   -2.7340 O.3   800  I3P800     -0.2176
      9  O3        -6.9170  -16.9390   -3.6070 O.3   800  I3P800     -0.2176
     10  O4        -5.3610  -18.3370   -1.6240 O.3   800  I3P800     -0.2674
     11  O5        -6.8640  -19.4350    0.5490 O.3   800  I3P800     -0.2674
     12  O6        -8.9780  -17.7550    1.5090 O.3   800  I3P800     -0.2177
     13  P1       -10.9500  -14.8550   -0.1500 P.3   800  I3P800      0.5327
     14  O11      -10.4100  -14.4330    1.1600 O.3   800  I3P800     -0.1145
     15  O12      -12.4770  -15.0820    0.0030 O.3   800  I3P800     -0.1145
     16  O13      -10.6150  -14.0910   -1.4030 O.2   800  I3P800     -0.2224
     17  P4        -4.6010  -19.1520   -2.7680 P.3   800  I3P800      0.5327
     18  O41       -4.8830  -20.6170   -2.6710 O.3   800  I3P800     -0.1145
     19  O42       -5.0410  -18.6300   -4.1030 O.2   800  I3P800     -0.2224
     20  O43       -3.1610  -18.8100   -2.4500 O.3   800  I3P800     -0.1145
     21  P5        -6.2130  -19.5690    2.0030 P.3   800  I3P800      0.5327
     22  O51       -6.1900  -21.0690    2.1610 O.3   800  I3P800     -0.1145
     23  O52       -7.0920  -18.8590    2.9830 O.3   800  I3P800     -0.1145
     24  O53       -4.8660  -18.9000    1.9170 O.2   800  I3P800     -0.2224
@<TRIPOS>BOND
     1    19    17    2
     2     9     3    1
     3    17    18    1
     4    17    20    1
     5    17    10    1
     6     8     2    1
     7     3     2    1
     8     3     4    1
     9     2     1    1
    10    10     4    1
    11     4     5    1
    12    16    13    2
    13     1     7    1
    14     1     6    1
    15     7    13    1
    16    13    15    1
    17    13    14    1
    18     5     6    1
    19     5    11    1
    20     6    12    1
    21    11    21    1
    22    24    21    2
    23    21    22    1
    24    21    23    1
