@<TRIPOS>MOLECULE
2p0e_TIZ_A_1.pdb
 17 18 0 0 0
SMALL
GASTEIGER

@<TRIPOS>ATOM
      1  O2'       10.3880  -12.8550    1.1060 O.3   201  TIZ201     -0.2172
      2  C2'        9.9040  -14.2180    1.3020 C.3   201  TIZ201      0.2189
      3  C3'       10.9020  -15.3450    0.8370 C.3   201  TIZ201      0.2145
      4  O3'       12.0150  -14.8570    0.0460 O.3   201  TIZ201     -0.2176
      5  C4'       10.0170  -16.2060   -0.0850 C.3   201  TIZ201      0.1814
      6  C5'       10.2440  -17.6860    0.1800 C.3   201  TIZ201      0.2141
      7  O5'        9.4080  -18.4410   -0.7110 O.3   201  TIZ201     -0.2176
      8  O4'        8.6710  -15.8590    0.2500 O.3   201  TIZ201     -0.3430
      9  C1'        8.7060  -14.4560    0.3900 C.3   201  TIZ201      0.2057
     10  C1M        7.4740  -13.9040    1.0810 C.2   201  TIZ201      0.1642
     11  N1H        6.4790  -14.6190    1.6120 N.2   201  TIZ201     -0.3963
     12  S1J        7.1500  -12.2530    1.2740 S.3   201  TIZ201     -0.0765
     13  C1F        5.6870  -12.5070    2.0790 C.3   201  TIZ201      0.1280
     14  C1L        5.5130  -13.8360    2.1610 C.2   201  TIZ201      0.1768
     15  C1K        4.2910  -14.4730    2.8250 C.2   201  TIZ201      0.3106
     16  O1B        4.0850  -15.6810    2.7040 O.2   201  TIZ201     -0.2642
     17  N1A        3.4930  -13.6520    3.5150 N.am  201  TIZ201     -0.0817
@<TRIPOS>BOND
     1     7     6    1
     2     5     6    1
     3     5     8    1
     4     5     3    1
     5     4     3    1
     6     8     9    1
     7     9    10    1
     8     9     2    1
     9     3     2    1
    10    10    12    1
    11    10    11    2
    12     1     2    1
    13    12    13    1
    14    11    14    2
    15    13    14    1
    16    14    15    1
    17    16    15    2
    18    15    17   am
