@<TRIPOS>MOLECULE
2p0h_I3S_A_1.pdb
 24 24 0 0 0
SMALL
GASTEIGER

@<TRIPOS>ATOM
      1  O11       -4.4410   26.5760  -25.5490 O.3   101  I3S101     -0.1145
      2  P3        -3.8820   27.8050  -24.8460 P.3   101  I3S101      0.5327
      3  O12       -4.8940   28.4270  -23.9300 O.3   101  I3S101     -0.1145
      4  O10       -3.0450   28.7380  -25.7230 O.2   101  I3S101     -0.2224
      5  O3        -2.8540   27.2460  -23.7840 O.3   101  I3S101     -0.2674
      6  C3        -1.6330   27.8850  -23.4350 C.3   101  I3S101      0.1891
      7  C2        -1.7740   28.5960  -22.0920 C.3   101  I3S101      0.2120
      8  O2        -2.3290   27.7350  -21.0920 O.3   101  I3S101     -0.2177
      9  C1        -0.3830   29.1290  -21.7360 C.3   101  I3S101      0.1918
     10  O1        -0.3840   29.8430  -20.4980 O.3   101  I3S101     -0.2673
     11  P1         0.5640   31.1850  -20.3180 P.3   101  I3S101      0.5327
     12  OP2        1.8090   30.6110  -19.7110 O.3   101  I3S101     -0.1145
     13  OP3       -0.3720   32.0180  -19.4920 O.3   101  I3S101     -0.1145
     14  OP1        0.7860   31.7070  -21.7300 O.2   101  I3S101     -0.2224
     15  C6         0.7570   28.1030  -21.7600 C.3   101  I3S101      0.2147
     16  O6         1.9850   28.7980  -21.5930 O.3   101  I3S101     -0.2176
     17  C5         0.7840   27.2900  -23.0360 C.3   101  I3S101      0.2146
     18  O5         1.6840   26.1830  -22.9090 O.3   101  I3S101     -0.2176
     19  C4        -0.6200   26.7710  -23.3290 C.3   101  I3S101      0.1892
     20  O4        -0.7020   26.0710  -24.5930 O.3   101  I3S101     -0.2674
     21  P4        -0.4040   24.5530  -24.7970 P.3   101  I3S101      0.5327
     22  OP5       -1.2850   23.7030  -23.9420 O.3   101  I3S101     -0.1145
     23  OP6       -0.7630   24.3210  -26.2620 O.2   101  I3S101     -0.2224
     24  OP4        1.0390   24.3290  -24.4670 O.3   101  I3S101     -0.1145
@<TRIPOS>BOND
     1    23    21    2
     2     4     2    2
     3     1     2    1
     4     2     3    1
     5     2     5    1
     6    21    20    1
     7    21    24    1
     8    21    22    1
     9    20    19    1
    10     5     6    1
    11     6    19    1
    12     6     7    1
    13    19    17    1
    14    17    18    1
    15    17    15    1
    16     7     9    1
    17     7     8    1
    18    15     9    1
    19    15    16    1
    20     9    10    1
    21    14    11    2
    22    10    11    1
    23    11    12    1
    24    11    13    1
