@<TRIPOS>MOLECULE
2p0m_RS7_B_1.pdb
 19 19 0 0 0
SMALL
GASTEIGER

@<TRIPOS>ATOM
      1  C1       -54.3200  165.3130   36.5100 C.2   841  RS7841      0.3880
      2  O19      -54.8040  166.4730   36.5330 O.co2 841  RS7841     -0.2405
      3  O18      -54.7090  164.4170   37.3440 O.co2 841  RS7841     -0.2405
      4  C2       -53.2540  164.9250   35.5630 C.2   841  RS7841      0.0862
      5  C3       -52.7990  165.7760   34.6350 C.2   841  RS7841      0.0074
      6  C4       -51.5270  165.4280   33.8720 C.ar  841  RS7841      0.0079
      7  C5       -50.8150  164.2020   34.0280 C.ar  841  RS7841      0.0006
      8  C6       -49.6560  163.9670   33.3040 C.ar  841  RS7841      0.0000
      9  C7       -49.1860  164.8880   32.2790 C.ar  841  RS7841      0.0006
     10  C8       -49.9280  166.1220   32.0830 C.ar  841  RS7841      0.0082
     11  C9       -51.1260  166.3940   32.8250 C.ar  841  RS7841      0.0416
     12  C10      -51.7600  167.6140   32.6210 C.1   841  RS7841     -0.0644
     13  C11      -52.3700  168.6640   32.3940 C.1   841  RS7841     -0.0864
     14  C12      -52.9600  170.0370   32.3870 C.3   841  RS7841      0.0764
     15  C13      -54.5890  170.0310   32.0840 C.3   841  RS7841      0.0140
     16  C14      -55.4680  169.4420   33.3260 C.3   841  RS7841      0.0010
     17  C15      -55.0090  170.0020   34.7100 C.3   841  RS7841      0.0000
     18  C16      -55.9050  169.4140   35.8220 C.3   841  RS7841      0.0000
     19  C17      -55.6740  170.2000   37.1000 C.3   841  RS7841      0.0000
@<TRIPOS>BOND
     1    10     9   ar
     2    10    11   ar
     3    15    14    1
     4    15    16    1
     5     9     8   ar
     6    14    13    1
     7    13    12    3
     8    12    11    1
     9    11     6   ar
    10     8     7   ar
    11    16    17    1
    12     6     7   ar
    13     6     5    1
    14     5     4    2
    15    17    18    1
    16     4     1    1
    17    18    19    1
    18     1     2   ar
    19     1     3   ar
