@<TRIPOS>MOLECULE
2p0r_III_D_1.pdb
 30 29 0 0 0
SMALL
GASTEIGER

@<TRIPOS>ATOM
      1  C         -5.7650   19.7920   27.6580 C.2   355  ACE355      0.2423
      2  O         -5.4600   20.6660   26.8110 O.2   355  ACE355     -0.2733
      3  CH3       -5.8410   18.3230   27.3100 C.3   355  ACE355      0.0964
      4  N         -6.1680   20.1110   28.8990 N.am  356  LEU356     -0.1978
      5  CA        -5.2430   20.6610   29.8780 C.3   356  LEU356      0.1727
      6  C         -4.0470   19.7220   30.1630 C.2   356  LEU356      0.2616
      7  O         -4.1980   18.6060   30.6600 O.2   356  LEU356     -0.2715
      8  CB        -5.9790   21.0970   31.1540 C.3   356  LEU356      0.0311
      9  CG        -6.1640   22.6300   31.2060 C.3   356  LEU356      0.0022
     10  CD1       -6.8860   23.1950   29.9580 C.3   356  LEU356      0.0001
     11  CD2       -6.8360   23.0980   32.5180 C.3   356  LEU356      0.0001
     12  N         -2.8620   20.2200   29.8130 N.am  357  LEU357     -0.1963
     13  CA        -1.6140   19.4710   29.8520 C.3   357  LEU357      0.1728
     14  C         -0.8000   19.8690   31.0890 C.2   357  LEU357      0.2616
     15  O         -0.9590   20.9660   31.6140 O.2   357  LEU357     -0.2715
     16  CB        -0.8310   19.7350   28.5500 C.3   357  LEU357      0.0311
     17  CG        -1.6520   19.5650   27.2590 C.3   357  LEU357      0.0022
     18  CD1       -0.9160   20.1110   26.0580 C.3   357  LEU357      0.0001
     19  CD2       -2.0530   18.0920   27.0540 C.3   357  LEU357      0.0001
     20  N          0.0690   18.9660   31.5420 N.am  358  AR7358     -0.1977
     21  CA         0.8680   19.1650   32.7640 C.3   358  AR7358      0.1597
     22  C          2.3390   18.8210   32.5820 C.2   358  AR7358      0.2287
     23  O          3.1990   19.4060   33.2360 O.2   358  AR7358     -0.2864
     24  CB         0.2840   18.3370   33.9050 C.3   358  AR7358      0.0334
     25  CG        -0.8530   19.0490   34.5940 C.3   358  AR7358      0.0492
     26  CD        -1.6590   18.1450   35.4950 C.3   358  AR7358      0.2205
     27  NE        -2.7740   18.8930   36.0860 N.pl3 358  AR7358     -0.0865
     28  CZ        -3.1890   18.7950   37.3500 C.cat 358  AR7358      0.5346
     29  NH1       -4.2180   19.5230   37.7560 N.pl3 358  AR7358      0.1354
     30  NH2       -2.5870   17.9900   38.2170 N.pl3 358  AR7358      0.1354
@<TRIPOS>BOND
     1    18    17    1
     2     2     1    2
     3    19    17    1
     4    17    16    1
     5     3     1    1
     6     1     4   am
     7    16    13    1
     8     4     5    1
     9    12    13    1
    10    12     6   am
    11    13    14    1
    12     5     6    1
    13     5     8    1
    14    10     9    1
    15     6     7    2
    16    14    20   am
    17    14    15    2
    18     8     9    1
    19     9    11    1
    20    20    21    1
    21    22    21    1
    22    22    23    2
    23    21    24    1
    24    24    25    1
    25    25    26    1
    26    26    27    1
    27    27    28    2
    28    28    29    1
    29    28    30    1
