@<TRIPOS>MOLECULE
2p0x_ATP_A_1.pdb
 43 45 0 0 0
SMALL
GASTEIGER

@<TRIPOS>ATOM
      1  PG         1.6760    0.0200   12.4610 P.3   1318  ATP1318     0.5373
      2  O1G        0.8670   -0.7850   13.4040 O.3   1318  ATP1318    -0.1143
      3  O2G        3.1870    0.1240   13.0090 O.3   1318  ATP1318    -0.1143
      4  O3G        1.0460    1.4930   12.3210 O.2   1318  ATP1318    -0.2221
      5  PB         0.1710   -0.6460   10.4630 P.3   1318  ATP1318     0.2277
      6  O1B       -0.7800   -0.6640   11.5980 O.3   1318  ATP1318    -0.4368
      7  O2B       -0.0490    0.6970    9.6020 O.2   1318  ATP1318    -0.5168
      8  O3B        1.6820   -0.6980   11.0170 O.3   1318  ATP1318    -0.2258
      9  PA         0.9450   -1.8340    8.3000 P.3   1318  ATP1318     0.2182
     10  O1A        2.2920   -1.4980    8.8120 O.3   1318  ATP1318    -0.4371
     11  O2A        0.4670   -0.6930    7.2640 O.2   1318  ATP1318    -0.5170
     12  O3A       -0.0960   -1.9260    9.5240 O.3   1318  ATP1318    -0.2700
     13  O5'        1.0010   -3.2570    7.5440 O.3   1318  ATP1318    -0.3246
     14  C5'        1.5460   -3.0220    6.2440 C.3   1318  ATP1318     0.0836
     15  C4'        2.6690   -4.0270    5.9720 C.3   1318  ATP1318     0.1131
     16  O4'        2.1470   -5.2560    5.4020 O.3   1318  ATP1318    -0.3474
     17  C3'        3.6810   -3.4820    4.9590 C.3   1318  ATP1318     0.1133
     18  O3'        5.0050   -3.9330    5.2640 O.3   1318  ATP1318    -0.3864
     19  C2'        3.1810   -4.0000    3.6060 C.3   1318  ATP1318     0.1266
     20  O2'        4.2710   -4.4540    2.7980 O.3   1318  ATP1318    -0.3849
     21  C1'        2.1900   -5.1360    3.9460 C.3   1318  ATP1318     0.1617
     22  N9         0.8560   -4.8190    3.4240 N.pl3 1318  ATP1318    -0.2234
     23  C8        -0.2540   -4.5370    4.1700 C.2   1318  ATP1318     0.1451
     24  N7        -1.2330   -4.1720    3.3940 N.2   1318  ATP1318    -0.3871
     25  C5        -0.8720   -4.3700    2.1070 C.2   1318  ATP1318     0.2211
     26  C6        -1.5180   -4.2780    0.8480 C.2   1318  ATP1318     0.2227
     27  N6        -2.8790   -4.0440    0.7750 N.pl3 1318  ATP1318    -0.3300
     28  N1        -0.7800   -4.4220   -0.2830 N.2   1318  ATP1318    -0.3296
     29  C2         0.4930   -4.8370   -0.2470 C.1   1318  ATP1318     0.0930
     30  N3         1.1230   -4.9850    0.9200 N.2   1318  ATP1318    -0.3287
     31  C4         0.4920   -4.7580    2.1020 C.2   1318  ATP1318     0.2354
     32 H5'1        0.7630   -3.1390    5.4940 H     1318  ATP1318     0.0591
     33 H5'2        1.9460   -2.0090    6.1950 H     1318  ATP1318     0.0591
     34  H4'        3.1450   -4.2090    6.9360 H     1318  ATP1318     0.0647
     35  H3'        3.7480   -2.3940    4.9680 H     1318  ATP1318     0.0647
     36 HO3'        5.3260   -4.4900    4.5510 H     1318  ATP1318     0.2100
     37  H2'        2.6940   -3.2210    3.0190 H     1318  ATP1318     0.0663
     38 HO2'        4.4650   -3.7980    2.1240 H     1318  ATP1318     0.2101
     39  H1'        2.5110   -6.0740    3.4920 H     1318  ATP1318     0.0841
     40  H8         0.1420   -4.7400    5.1650 H     1318  ATP1318     0.1149
     41 HN61       -3.2300   -4.3720   -0.1130 H     1318  ATP1318     0.1448
     42 HN62       -3.0560   -3.0530    0.8620 H     1318  ATP1318     0.1448
     43  H2         1.3960   -5.1590   -0.7660 H     1318  ATP1318     0.1751
@<TRIPOS>BOND
     1    43    29    1
     2    28    29    2
     3    28    26    2
     4    29    30    2
     5    41    27    1
     6    27    26    1
     7    27    42    1
     8    26    25    1
     9    30    31    2
    10    31    25    1
    11    31    22    1
    12    25    24    2
    13    38    20    1
    14    20    19    1
    15    37    19    1
    16    24    23    2
    17    22    21    1
    18    22    23    1
    19    39    21    1
    20    19    21    1
    21    19    17    1
    22    21    16    1
    23    23    40    1
    24    36    18    1
    25    17    35    1
    26    17    18    1
    27    17    15    1
    28    16    15    1
    29    32    14    1
    30    15    14    1
    31    15    34    1
    32    33    14    1
    33    14    13    1
    34    11     9    2
    35    13     9    1
    36     9    10    1
    37     9    12    1
    38    12     5    1
    39     7     5    2
    40     5     8    1
    41     5     6    1
    42     8     1    1
    43     4     1    2
    44     1     3    1
    45     1     2    1
