@<TRIPOS>MOLECULE
2p15_EZT_A_1.pdb
 32 36 0 0 0
SMALL
GASTEIGER

@<TRIPOS>ATOM
      1  C18      -36.7690    1.4740   21.4410 C.3   600  EZT600      0.0028
      2  C13      -36.7330    2.9750   21.0600 C.3   600  EZT600      0.0295
      3  C12      -36.4740    3.0800   19.5290 C.3   600  EZT600      0.0030
      4  C11      -35.0260    2.6480   19.1350 C.3   600  EZT600      0.0044
      5  C9       -33.9710    3.4520   19.9770 C.3   600  EZT600      0.0220
      6  C10      -32.4930    3.2460   19.5510 C.ar  600  EZT600     -0.0263
      7  C1       -32.1850    3.0220   18.2180 C.ar  600  EZT600     -0.0013
      8  C2       -30.8480    2.8710   17.8490 C.ar  600  EZT600      0.0417
      9  C3       -29.8390    2.9430   18.8160 C.ar  600  EZT600      0.1954
     10  O3       -28.5390    2.7850   18.4800 O.3   600  EZT600     -0.2866
     11  C4       -30.1470    3.1670   20.1440 C.ar  600  EZT600      0.0375
     12  C5       -31.4690    3.3480   20.5160 C.ar  600  EZT600     -0.0230
     13  C6       -31.7280    3.5610   22.0260 C.3   600  EZT600      0.0261
     14  C7       -33.1350    4.1440   22.2660 C.3   600  EZT600      0.0050
     15  C8       -34.1850    3.2790   21.5130 C.3   600  EZT600      0.0045
     16  C14      -35.6350    3.7630   21.8190 C.3   600  EZT600      0.0030
     17  C15      -36.1520    3.7540   23.2820 C.3   600  EZT600      0.0030
     18  C16      -37.6710    3.9290   23.1000 C.3   600  EZT600      0.0347
     19  C17      -37.9770    3.7810   21.5860 C.3   600  EZT600      0.1449
     20  O17      -39.2210    3.0820   21.3760 O.3   600  EZT600     -0.2212
     21  C19      -38.0230    5.0580   20.9440 C.2   600  EZT600      0.0033
     22  C20      -37.7730    6.3080   21.5410 C.2   600  EZT600     -0.0022
     23  C21      -37.7500    7.5330   20.8310 C.ar  600  EZT600      0.0036
     24  C22      -38.6210    7.7700   19.7630 C.ar  600  EZT600     -0.0001
     25  C23      -38.5550    8.9770   19.0450 C.ar  600  EZT600     -0.0000
     26  C24      -37.6220    9.9690   19.3950 C.ar  600  EZT600     -0.0001
     27  C25      -36.7400    9.7390   20.4450 C.ar  600  EZT600      0.0039
     28  C26      -36.7980    8.5310   21.1620 C.ar  600  EZT600      0.0714
     29  C27      -35.7960    8.3650   22.3380 C.3   600  EZT600      0.4186
     30  F02      -34.9920    9.4060   22.3590 F     600  EZT600     -0.1659
     31  F03      -36.3940    8.3520   23.5370 F     600  EZT600     -0.1659
     32  F01      -35.0690    7.2540   22.2500 F     600  EZT600     -0.1659
@<TRIPOS>BOND
     1     8     7   ar
     2     8     9   ar
     3     7     6   ar
     4    10     9    1
     5     9    11   ar
     6    25    26   ar
     7    25    24   ar
     8     4     3    1
     9     4     5    1
    10    26    27   ar
    11     3     2    1
    12     6     5    1
    13     6    12   ar
    14    24    23   ar
    15     5    15    1
    16    11    12   ar
    17    27    28   ar
    18    12    13    1
    19    23    28   ar
    20    23    22    1
    21    21    22    2
    22    21    19    1
    23     2     1    1
    24     2    19    1
    25     2    16    1
    26    28    29    1
    27    20    19    1
    28    15    16    1
    29    15    14    1
    30    19    18    1
    31    16    17    1
    32    13    14    1
    33    32    29    1
    34    29    30    1
    35    29    31    1
    36    18    17    1
