@<TRIPOS>MOLECULE
2p18_SPD_A_1.pdb
 10 9 0 0 0
SMALL
GASTEIGER

@<TRIPOS>ATOM
      1  N1        13.1900   15.3540   52.6580 N.3   304  SPD304     -0.1314
      2  C2        14.1140   15.7790   51.6160 C.3   304  SPD304      0.1094
      3  C3        14.2090   14.7240   50.5220 C.3   304  SPD304      0.0220
      4  C4        14.0530   15.3230   49.1270 C.3   304  SPD304      0.0203
      5  C5        15.2050   15.0020   48.1750 C.3   304  SPD304      0.0887
      6  N6        15.2250   13.6360   47.6950 N.3   304  SPD304     -0.2180
      7  C7        16.4420   13.0350   47.1620 C.3   304  SPD304      0.0902
      8  C8        17.0320   12.0920   48.2060 C.3   304  SPD304      0.0393
      9  C9        17.7850   10.9120   47.6330 C.3   304  SPD304      0.1108
     10  N10       18.2730   10.2180   48.7980 N.3   304  SPD304     -0.1313
@<TRIPOS>BOND
     1     7     6    1
     2     7     8    1
     3     9     8    1
     4     9    10    1
     5     6     5    1
     6     5     4    1
     7     4     3    1
     8     3     2    1
     9     2     1    1
