@<TRIPOS>MOLECULE
2p1c_GG3_A_1.pdb
 24 24 0 0 0
SMALL
GASTEIGER

@<TRIPOS>ATOM
      1  C2        70.2990   36.9170    0.6930 C.3   3001  GG33001     0.0756
      2  C6        71.4470   37.7870   -1.2770 C.3   3001  GG33001     0.0721
      3  C7        70.8280   35.8090    1.6510 C.3   3001  GG33001     0.0620
      4  C8        71.4490   34.6920    0.7790 C.3   3001  GG33001     0.2173
      5  O16       71.2690   32.7360    2.7170 O.3   3001  GG33001    -0.3553
      6  P14       70.8370   33.0770    1.3150 P.3   3001  GG33001     0.1511
      7  O17       71.3170   32.1430    0.2630 O.2   3001  GG33001    -0.4573
      8  O15       69.3140   33.2720    1.2510 O.3   3001  GG33001    -0.3553
      9  P9        73.2990   34.7380    0.8190 P.3   3001  GG33001     0.1511
     10  O11       73.6200   34.3700    2.2510 O.3   3001  GG33001    -0.3553
     11  O10       73.8220   33.6220   -0.0860 O.2   3001  GG33001    -0.4573
     12  O12       73.6200   36.1430    0.3890 O.3   3001  GG33001    -0.3553
     13  O13       70.9320   34.8000   -0.5820 O.3   3001  GG33001    -0.2108
     14  N13       71.3710   37.8260    0.2190 N.3   3001  GG33001    -0.2714
     15  C21       71.1500   39.1790    0.7560 C.3   3001  GG33001     0.0896
     16  C22       70.7410   38.8750   -2.0820 C.3   3001  GG33001     0.0177
     17  C26       71.0090   38.5320   -3.5370 C.3   3001  GG33001     0.0061
     18  C27       71.2980   39.8110   -4.2670 C.3   3001  GG33001     0.0264
     19  C28       71.5740   39.6100   -5.7500 C.ar  3001  GG33001    -0.0222
     20  C33       71.8720   40.7690   -6.5220 C.ar  3001  GG33001    -0.0043
     21  C32       72.1240   40.6580   -7.9130 C.ar  3001  GG33001    -0.0003
     22  C31       72.0840   39.3800   -8.5300 C.ar  3001  GG33001    -0.0000
     23  C30       71.7990   38.2190   -7.7700 C.ar  3001  GG33001    -0.0003
     24  C29       71.5500   38.3180   -6.3830 C.ar  3001  GG33001    -0.0043
@<TRIPOS>BOND
     1    22    21   ar
     2    22    23   ar
     3    21    20   ar
     4    23    24   ar
     5    20    19   ar
     6    24    19   ar
     7    19    18    1
     8    18    17    1
     9    17    16    1
    10    16     2    1
    11     2    14    1
    12    13     4    1
    13    11     9    2
    14    14     1    1
    15    14    15    1
    16     7     6    2
    17    12     9    1
    18     1     3    1
    19     4     9    1
    20     4     6    1
    21     4     3    1
    22     9    10    1
    23     8     6    1
    24     6     5    1
