@<TRIPOS>MOLECULE
2p1d_SAH_A_1.pdb
 26 28 0 0 0
SMALL
GASTEIGER

@<TRIPOS>ATOM
      1  N         10.2870  -45.9830   -1.3950 N.3   911  SAH911     -0.1245
      2  CA        11.5270  -46.7570   -1.3780 C.3   911  SAH911      0.1844
      3  CB        12.1140  -46.8360    0.0380 C.3   911  SAH911      0.0388
      4  CG        13.1720  -45.8760    0.2490 C.3   911  SAH911      0.0594
      5  SD        13.9370  -45.8980    1.9100 S.3   911  SAH911     -0.1376
      6  C         11.3290  -48.1810   -1.9610 C.3   911  SAH911      0.4429
      7  O         10.1680  -48.4210   -2.3620 O.2   911  SAH911     -0.2654
      8  OXT       12.2190  -48.4590   -2.8210 O.2   911  SAH911     -0.2654
      9  C5'       14.2850  -44.1430    2.0680 C.3   911  SAH911      0.0899
     10  C4'       15.3930  -43.5740    1.1980 C.3   911  SAH911      0.1630
     11  O4'       15.5170  -42.1720    1.4770 O.3   911  SAH911     -0.3153
     12  C3'       16.7820  -44.1420    1.4680 C.3   911  SAH911      0.2168
     13  O3'       17.0990  -45.0420    0.4010 O.3   911  SAH911     -0.2175
     14  C2'       17.7540  -42.9460    1.5110 C.3   911  SAH911      0.2569
     15  O2'       18.9180  -43.0130    0.6990 O.3   911  SAH911     -0.2130
     16  C1'       16.8280  -41.7730    1.2070 C.3   911  SAH911      0.3185
     17  N9        17.1050  -40.5280    1.9400 N.pl3 911  SAH911     -0.1439
     18  C8        17.2680  -40.3340    3.2910 C.3   911  SAH911      0.3377
     19  N7        17.4990  -39.0850    3.6240 N.2   911  SAH911     -0.2095
     20  C5        17.4880  -38.4010    2.4110 C.2   911  SAH911      0.2526
     21  C6        17.6710  -37.0210    2.0600 C.2   911  SAH911      0.4393
     22  N6        17.9060  -36.0670    2.9620 N.pl3 911  SAH911      0.2180
     23  N1        17.5980  -36.6710    0.7210 N.2   911  SAH911      0.0021
     24  C2        17.3600  -37.6430   -0.1590 C.3   911  SAH911      0.5254
     25  N3        17.1690  -38.9700    0.0510 N.2   911  SAH911     -0.0055
     26  C4        17.2450  -39.2890    1.3500 C.2   911  SAH911      0.3518
@<TRIPOS>BOND
     1     8     6    1
     2     7     6    1
     3     6     2    1
     4     1     2    1
     5     2     3    1
     6    24    25    1
     7    24    23    1
     8     3     4    1
     9    25    26    2
    10     4     5    1
    11    13    12    1
    12    15    14    1
    13    23    21    2
    14    10    12    1
    15    10    11    1
    16    10     9    1
    17    16    11    1
    18    16    14    1
    19    16    17    1
    20    26    17    1
    21    26    20    1
    22    12    14    1
    23     5     9    1
    24    17    18    1
    25    21    20    1
    26    21    22    1
    27    20    19    2
    28    18    19    1
