@<TRIPOS>MOLECULE
2p1d_5GP_A_1.pdb
 24 26 0 0 0
SMALL
GASTEIGER

@<TRIPOS>ATOM
      1  P         15.5780  -51.6790   12.6040 P.3   912  5GP912      0.5327
      2  O1P       15.3910  -53.1200   12.5970 O.3   912  5GP912     -0.1145
      3  O2P       17.0420  -51.0830   12.6320 O.3   912  5GP912     -0.1145
      4  O3P       15.0810  -50.9720   11.1660 O.2   912  5GP912     -0.2224
      5  O5'       14.8770  -51.2380   14.0530 O.3   912  5GP912     -0.2675
      6  C5'       14.8980  -49.8180   14.3340 C.3   912  5GP912      0.1859
      7  C4'       14.7500  -49.8910   15.9400 C.3   912  5GP912      0.1801
      8  O4'       14.5380  -51.1150   16.7100 O.3   912  5GP912     -0.3326
      9  C3'       15.8790  -49.2230   16.6040 C.3   912  5GP912      0.2158
     10  O3'       15.7690  -47.8200   16.5700 O.3   912  5GP912     -0.2175
     11  C2'       16.0330  -49.7740   18.0610 C.3   912  5GP912      0.2310
     12  O2'       15.4140  -49.0230   18.9890 O.3   912  5GP912     -0.2158
     13  C1'       15.4070  -51.2970   17.8680 C.3   912  5GP912      0.2293
     14  N9        16.5020  -52.4140   17.6440 N.pl3 912  5GP912     -0.2354
     15  C8        17.2640  -52.6310   16.4610 C.3   912  5GP912      0.2246
     16  N7        18.0090  -53.7220   16.8570 N.2   912  5GP912     -0.2322
     17  C5        17.7610  -54.1770   18.1580 C.2   912  5GP912      0.2182
     18  C6        18.2900  -55.1800   18.8290 C.1   912  5GP912      0.2372
     19  O6        19.1460  -56.1090   18.6740 O.2   912  5GP912     -0.2069
     20  N1        17.6890  -55.3090   20.2830 N.2   912  5GP912     -0.2485
     21  C2        16.7560  -54.4080   20.6250 C.1   912  5GP912      0.2531
     22  N2        16.1870  -54.5410   22.0140 N.pl3 912  5GP912     -0.0226
     23  N3        16.2110  -53.3650   19.9250 N.2   912  5GP912     -0.3074
     24  C4        16.8060  -53.3300   18.6370 C.2   912  5GP912      0.2300
@<TRIPOS>BOND
     1     4     1    2
     2     2     1    1
     3     1     3    1
     4     1     5    1
     5     5     6    1
     6     6     7    1
     7     7     9    1
     8     7     8    1
     9    15    16    1
    10    15    14    1
    11    10     9    1
    12     9    11    1
    13     8    13    1
    14    16    17    2
    15    14    13    1
    16    14    24    1
    17    13    11    1
    18    11    12    1
    19    17    24    1
    20    17    18    1
    21    24    23    2
    22    19    18    2
    23    18    20    2
    24    23    21    2
    25    20    21    2
    26    21    22    1
