@<TRIPOS>MOLECULE
2p1e_SPD_A_1.pdb
 10 9 0 0 0
SMALL
GASTEIGER

@<TRIPOS>ATOM
      1  N1        13.7360   15.0550   53.3230 N.3   304  SPD304     -0.1314
      2  C2        13.5190   15.6230   51.9890 C.3   304  SPD304      0.1094
      3  C3        14.6120   15.0990   51.0500 C.3   304  SPD304      0.0220
      4  C4        14.1150   14.8870   49.6090 C.3   304  SPD304      0.0203
      5  C5        15.2520   14.9940   48.5770 C.3   304  SPD304      0.0887
      6  N6        15.1610   13.9200   47.5740 N.3   304  SPD304     -0.2180
      7  C7        16.4640   13.3820   47.1220 C.3   304  SPD304      0.0902
      8  C8        16.7760   12.1100   47.9260 C.3   304  SPD304      0.0393
      9  C9        17.7880   11.1860   47.2560 C.3   304  SPD304      0.1108
     10  N10       18.5700   10.5240   48.3250 N.3   304  SPD304     -0.1313
@<TRIPOS>BOND
     1     7     6    1
     2     7     8    1
     3     9     8    1
     4     9    10    1
     5     6     5    1
     6     5     4    1
     7     4     3    1
     8     3     2    1
     9     2     1    1
