@<TRIPOS>MOLECULE
2p1m_IHP_B_1.pdb
 36 36 0 0 0
SMALL
GASTEIGER

@<TRIPOS>ATOM
      1  C1        13.7330 -123.7830  -24.9000 C.3   601  IHP601      0.1863
      2  C2        13.7140 -124.3770  -26.3170 C.3   601  IHP601      0.1863
      3  C3        13.0580 -123.3380  -27.2340 C.3   601  IHP601      0.1863
      4  C4        13.9700 -122.1270  -27.3490 C.3   601  IHP601      0.1863
      5  C5        13.9910 -121.4560  -25.9890 C.3   601  IHP601      0.1863
      6  C6        14.4580 -122.4360  -24.8960 C.3   601  IHP601      0.1863
      7  O11       14.5200 -124.5990  -24.0470 O.3   601  IHP601     -0.2675
      8  P1        14.0070 -125.4270  -22.7410 P.3   601  IHP601      0.5327
      9  O21       15.1950 -125.5780  -21.8140 O.3   601  IHP601     -0.1145
     10  O31       12.6730 -124.7420  -22.1830 O.3   601  IHP601     -0.1145
     11  O41       13.4180 -126.7190  -23.3770 O.2   601  IHP601     -0.2224
     12  O12       15.0790 -124.5430  -26.7270 O.3   601  IHP601     -0.2675
     13  P2        16.0580 -125.8710  -26.5430 P.3   601  IHP601      0.5327
     14  O22       17.3550 -125.5840  -25.8660 O.3   601  IHP601     -0.1145
     15  O32       15.1850 -127.0480  -25.8030 O.3   601  IHP601     -0.1145
     16  O42       16.2220 -126.3320  -28.0570 O.2   601  IHP601     -0.2224
     17  O13       12.8120 -123.8410  -28.5450 O.3   601  IHP601     -0.2675
     18  P3        11.3140 -123.5800  -29.2240 P.3   601  IHP601      0.5327
     19  O23       10.5330 -124.8230  -29.1290 O.3   601  IHP601     -0.1145
     20  O33       11.5250 -123.1190  -30.7490 O.2   601  IHP601     -0.2224
     21  O43       10.5560 -122.3050  -28.5480 O.3   601  IHP601     -0.1145
     22  O14       13.4140 -121.1920  -28.2640 O.3   601  IHP601     -0.2675
     23  P4        14.1010 -120.6260  -29.6420 P.3   601  IHP601      0.5327
     24  O24       13.6880 -119.2090  -29.8950 O.3   601  IHP601     -0.1145
     25  O34       15.6810 -120.9140  -29.5090 O.3   601  IHP601     -0.1145
     26  O44       13.5300 -121.6440  -30.7430 O.2   601  IHP601     -0.2224
     27  O15       14.9290 -120.3800  -26.0490 O.3   601  IHP601     -0.2675
     28  P5        14.4810 -118.8510  -25.7030 P.3   601  IHP601      0.5327
     29  O25       13.8450 -118.8740  -24.3420 O.3   601  IHP601     -0.1145
     30  O35       13.5540 -118.3880  -26.8610 O.2   601  IHP601     -0.2224
     31  O45       15.8810 -118.1420  -25.7660 O.3   601  IHP601     -0.1145
     32  O16       14.2550 -121.8410  -23.6140 O.3   601  IHP601     -0.2675
     33  P6        15.5550 -121.4140  -22.7740 P.3   601  IHP601      0.5327
     34  O26       16.8720 -121.7850  -23.3500 O.2   601  IHP601     -0.2224
     35  O36       15.3480 -122.0760  -21.3300 O.3   601  IHP601     -0.1145
     36  O46       15.3430 -119.8850  -22.5940 O.3   601  IHP601     -0.1145
@<TRIPOS>BOND
     1    20    18    2
     2    26    23    2
     3    24    23    1
     4    23    25    1
     5    23    22    1
     6    18    19    1
     7    18    21    1
     8    18    17    1
     9    17     3    1
    10    22     4    1
    11    16    13    2
    12     4     3    1
    13     4     5    1
    14     3     2    1
    15    30    28    2
    16    12    13    1
    17    12     2    1
    18    13    14    1
    19    13    15    1
    20     2     1    1
    21    27     5    1
    22    27    28    1
    23     5     6    1
    24    31    28    1
    25    28    29    1
    26     1     6    1
    27     1     7    1
    28     6    32    1
    29     7     8    1
    30    32    33    1
    31    11     8    2
    32    34    33    2
    33    33    36    1
    34    33    35    1
    35     8    10    1
    36     8     9    1
