@<TRIPOS>MOLECULE
2p1n_IHP_B_1.pdb
 36 36 0 0 0
SMALL
GASTEIGER

@<TRIPOS>ATOM
      1  C1       -26.1120   -0.3760  -37.6940 C.3   601  IHP601      0.1863
      2  C2       -25.7120   -1.0540  -36.3790 C.3   601  IHP601      0.1863
      3  C3       -25.2520   -0.0520  -35.3350 C.3   601  IHP601      0.1863
      4  C4       -26.3160    1.0670  -35.1150 C.3   601  IHP601      0.1863
      5  C5       -26.5120    1.8180  -36.4300 C.3   601  IHP601      0.1863
      6  C6       -27.0010    0.8790  -37.5250 C.3   601  IHP601      0.1863
      7  O11      -26.9690   -1.2750  -38.3590 O.3   601  IHP601     -0.2675
      8  P1       -26.5880   -2.2440  -39.5660 P.3   601  IHP601      0.5327
      9  O21      -27.8010   -2.1200  -40.5100 O.2   601  IHP601     -0.2224
     10  O31      -25.1050   -1.9690  -40.0720 O.3   601  IHP601     -0.1145
     11  O41      -26.0500   -3.7670  -39.0840 O.3   601  IHP601     -0.1145
     12  O12      -26.9760   -1.3730  -35.8280 O.3   601  IHP601     -0.2675
     13  P2       -27.5330   -2.8490  -35.2930 P.3   601  IHP601      0.5327
     14  O22      -28.9130   -2.9430  -35.9430 O.2   601  IHP601     -0.2224
     15  O32      -26.1720   -3.9290  -35.6800 O.3   601  IHP601     -0.1145
     16  O42      -27.7040   -2.6020  -33.6310 O.3   601  IHP601     -0.1145
     17  O13      -24.9700   -0.8320  -34.1230 O.3   601  IHP601     -0.2675
     18  P3       -23.3470   -0.4420  -33.6770 P.3   601  IHP601      0.5327
     19  O23      -22.8750   -1.7960  -33.3060 O.3   601  IHP601     -0.1145
     20  O33      -23.4360    0.7140  -32.4650 O.3   601  IHP601     -0.1145
     21  O43      -22.4020    0.1160  -35.0330 O.2   601  IHP601     -0.2224
     22  O14      -25.7470    2.0610  -34.3480 O.3   601  IHP601     -0.2675
     23  P4       -26.2150    2.4390  -32.8950 P.3   601  IHP601      0.5327
     24  O24      -25.5860    3.8300  -32.6730 O.3   601  IHP601     -0.1145
     25  O34      -27.8040    2.5100  -32.8720 O.2   601  IHP601     -0.2224
     26  O44      -25.5190    1.4780  -31.8300 O.3   601  IHP601     -0.1145
     27  O15      -27.3730    2.9230  -36.1650 O.3   601  IHP601     -0.2675
     28  P5       -26.8090    4.4630  -36.6640 P.3   601  IHP601      0.5327
     29  O25      -26.4120    4.6190  -38.0770 O.2   601  IHP601     -0.2224
     30  O35      -25.6660    4.9070  -35.6180 O.3   601  IHP601     -0.1145
     31  O45      -28.1750    5.1260  -36.5080 O.3   601  IHP601     -0.1145
     32  O16      -26.9350    1.4880  -38.7230 O.3   601  IHP601     -0.2675
     33  P6       -28.2370    1.8650  -39.5800 P.3   601  IHP601      0.5327
     34  O26      -29.5090    1.4930  -38.8290 O.3   601  IHP601     -0.1145
     35  O36      -27.8160    1.1150  -40.9000 O.2   601  IHP601     -0.2224
     36  O46      -27.9780    3.4590  -39.7080 O.3   601  IHP601     -0.1145
@<TRIPOS>BOND
     1    35    33    2
     2     9     8    2
     3    10     8    1
     4    36    33    1
     5    33    34    1
     6    33    32    1
     7     8    11    1
     8     8     7    1
     9    32     6    1
    10     7     1    1
    11    29    28    2
    12     1     6    1
    13     1     2    1
    14     6     5    1
    15    28    31    1
    16    28    27    1
    17    28    30    1
    18     5    27    1
    19     5     4    1
    20     2    12    1
    21     2     3    1
    22    14    13    2
    23    12    13    1
    24    15    13    1
    25     3     4    1
    26     3    17    1
    27    13    16    1
    28     4    22    1
    29    21    18    2
    30    22    23    1
    31    17    18    1
    32    18    19    1
    33    18    20    1
    34    23    25    2
    35    23    24    1
    36    23    26    1
