@<TRIPOS>MOLECULE
2p1n_CFA_B_1.pdb
 13 13 0 0 0
SMALL
GASTEIGER

@<TRIPOS>ATOM
      1  C1       -21.2560   10.1090  -34.4290 C.2   602  CFA602      0.4084
      2  C2       -20.6880   11.5450  -34.1050 C.3   602  CFA602      0.3186
      3  C1'      -19.6820   12.0050  -36.1920 C.ar  602  CFA602      0.1499
      4  C2'      -18.5570   12.4490  -36.8890 C.ar  602  CFA602      0.0924
      5  C3'      -18.6080   12.7890  -38.2220 C.ar  602  CFA602      0.0258
      6  C4'      -19.7990   12.6910  -38.8510 C.ar  602  CFA602      0.0587
      7  C5'      -20.9720   12.2770  -38.1790 C.ar  602  CFA602      0.0146
      8 CL3       -17.0070   12.4760  -36.0590 Cl    602  CFA602     -0.0791
      9  C6'      -20.9440   11.9080  -36.8200 C.ar  602  CFA602      0.0387
     10  O1       -22.4870    9.9370  -34.2370 O.co2 602  CFA602     -0.2415
     11  O2       -20.4360    9.2310  -34.7930 O.co2 602  CFA602     -0.2415
     12  O1'      -19.4940   11.7700  -34.8620 O.3   602  CFA602     -0.4629
     13 CL4       -19.7890   13.1480  -40.4830 Cl    602  CFA602     -0.0822
@<TRIPOS>BOND
     1    13     6    1
     2     6     5   ar
     3     6     7   ar
     4     5     4   ar
     5     7     9   ar
     6     4     3   ar
     7     4     8    1
     8     9     3   ar
     9     3    12    1
    10    12     2    1
    11    11     1   ar
    12     1    10   ar
    13     1     2    1
