@<TRIPOS>MOLECULE
2p1o_IHP_B_1.pdb
 36 36 0 0 0
SMALL
GASTEIGER

@<TRIPOS>ATOM
      1  C1        13.2030 -123.9490  -24.8410 C.3   701  IHP701      0.1863
      2  C2        13.1130 -124.6390  -26.1980 C.3   701  IHP701      0.1863
      3  C3        12.5310 -123.6780  -27.2280 C.3   701  IHP701      0.1863
      4  C4        13.4240 -122.4290  -27.3990 C.3   701  IHP701      0.1863
      5  C5        13.4850 -121.7060  -26.0660 C.3   701  IHP701      0.1863
      6  C6        14.0080 -122.6420  -24.9660 C.3   701  IHP701      0.1863
      7  O11       13.9870 -124.8310  -24.0500 O.3   701  IHP701     -0.2675
      8  P1        13.6010 -125.6100  -22.6980 P.3   701  IHP701      0.5327
      9  O21       14.8420 -125.6920  -21.8480 O.3   701  IHP701     -0.1145
     10  O31       12.4040 -124.8340  -21.9890 O.3   701  IHP701     -0.1145
     11  O41       13.0260 -126.9240  -23.3070 O.2   701  IHP701     -0.2224
     12  O12       14.4460 -124.8700  -26.6220 O.3   701  IHP701     -0.2675
     13  P2        15.3770 -126.2280  -26.5550 P.3   701  IHP701      0.5327
     14  O22       16.7440 -125.8210  -26.0910 O.3   701  IHP701     -0.1145
     15  O32       14.6050 -127.3530  -25.6570 O.3   701  IHP701     -0.1145
     16  O42       15.2520 -126.6890  -28.0730 O.2   701  IHP701     -0.2224
     17  O13       12.4330 -124.3870  -28.4440 O.3   701  IHP701     -0.2675
     18  P3        10.9390 -124.5510  -29.0920 P.3   701  IHP701      0.5327
     19  O23       10.4270 -125.8820  -28.6450 O.3   701  IHP701     -0.1145
     20  O33       11.0870 -124.3640  -30.7310 O.2   701  IHP701     -0.2224
     21  O43       10.0560 -123.2080  -28.6460 O.3   701  IHP701     -0.1145
     22  O14       12.7820 -121.4910  -28.2500 O.3   701  IHP701     -0.2675
     23  P4        13.3280 -120.9330  -29.6560 P.3   701  IHP701      0.5327
     24  O24       12.8890 -119.5290  -29.8890 O.3   701  IHP701     -0.1145
     25  O34       14.8210 -121.1890  -29.8350 O.3   701  IHP701     -0.1145
     26  O44       12.6830 -122.0040  -30.6130 O.2   701  IHP701     -0.2224
     27  O15       14.3570 -120.5770  -26.2050 O.3   701  IHP701     -0.2675
     28  P5        13.9080 -119.0490  -25.9080 P.3   701  IHP701      0.5327
     29  O25       13.4280 -118.9880  -24.5180 O.3   701  IHP701     -0.1145
     30  O35       12.9170 -118.6650  -27.0490 O.2   701  IHP701     -0.2224
     31  O45       15.2350 -118.2750  -26.0780 O.3   701  IHP701     -0.1145
     32  O16       13.9050 -121.9370  -23.7500 O.3   701  IHP701     -0.2675
     33  P6        15.2050 -121.4750  -22.9050 P.3   701  IHP701      0.5327
     34  O26       16.4630 -121.9080  -23.5630 O.2   701  IHP701     -0.2224
     35  O36       14.9870 -122.0820  -21.4370 O.3   701  IHP701     -0.1145
     36  O46       14.9800 -119.9490  -22.7770 O.3   701  IHP701     -0.1145
@<TRIPOS>BOND
     1    20    18    2
     2    26    23    2
     3    24    23    1
     4    25    23    1
     5    23    22    1
     6    18    21    1
     7    18    19    1
     8    18    17    1
     9    17     3    1
    10    22     4    1
    11    16    13    2
    12     4     3    1
    13     4     5    1
    14     3     2    1
    15    30    28    2
    16    12    13    1
    17    12     2    1
    18    13    14    1
    19    13    15    1
    20    27     5    1
    21    27    28    1
    22     2     1    1
    23    31    28    1
    24     5     6    1
    25    28    29    1
    26     6     1    1
    27     6    32    1
    28     1     7    1
    29     7     8    1
    30    32    33    1
    31    34    33    2
    32    11     8    2
    33    33    36    1
    34    33    35    1
    35     8    10    1
    36     8     9    1
