@<TRIPOS>MOLECULE
2p1o_NLA_B_1.pdb
 14 15 0 0 0
SMALL
GASTEIGER

@<TRIPOS>ATOM
      1  C1         7.0000 -111.3720  -26.0280 C.ar  801  NLA801     -0.0034
      2  C2         6.7320 -111.7160  -27.3680 C.ar  801  NLA801     -0.0109
      3  C3         5.4140 -111.6640  -27.8490 C.ar  801  NLA801     -0.0037
      4  C4         4.3660 -111.2920  -27.0080 C.ar  801  NLA801     -0.0003
      5  C5         4.6230 -110.9850  -25.6850 C.ar  801  NLA801     -0.0000
      6  C6         5.9310 -110.9950  -25.1960 C.ar  801  NLA801     -0.0003
      7  C7         6.1300 -110.6760  -23.8520 C.ar  801  NLA801     -0.0000
      8  C8         7.4280 -110.6640  -23.3330 C.ar  801  NLA801     -0.0000
      9  C9         8.5080 -111.0540  -24.1530 C.ar  801  NLA801     -0.0000
     10  C10        8.3220 -111.4030  -25.5100 C.ar  801  NLA801     -0.0003
     11  C11        7.8080 -112.1360  -28.4000 C.3   801  NLA801      0.1404
     12  C12        8.4250 -113.4880  -27.9960 C.2   801  NLA801      0.3692
     13  O1         9.6590 -113.6120  -28.1280 O.co2 801  NLA801     -0.2453
     14  O2         7.6440 -114.3800  -27.5810 O.co2 801  NLA801     -0.2453
@<TRIPOS>BOND
     1    11    12    1
     2    11     2    1
     3    13    12   ar
     4    12    14   ar
     5     3     2   ar
     6     3     4   ar
     7     2     1   ar
     8     4     5   ar
     9     1    10   ar
    10     1     6   ar
    11     5     6   ar
    12    10     9   ar
    13     6     7   ar
    14     9     8   ar
    15     7     8   ar
