@<TRIPOS>MOLECULE
2p1p_IAC_B_1.pdb
 13 14 0 0 0
SMALL
GASTEIGER

@<TRIPOS>ATOM
      1  C          6.1530 -110.9540  -25.0660 C.2   601  IAC601      0.0665
      2  C1         7.4020 -111.2920  -25.6190 C.3   601  IAC601      0.0824
      3  C2         8.5750 -111.3380  -24.8210 C.2   601  IAC601     -0.0164
      4  C3         8.4580 -111.0190  -23.4450 C.2   601  IAC601     -0.0038
      5  C4         7.2120 -110.6730  -22.9180 C.2   601  IAC601      0.0009
      6  C5         6.0480 -110.6540  -23.7130 C.2   601  IAC601      0.0153
      7  C7         7.1650 -111.5410  -26.9790 C.2   601  IAC601     -0.0046
      8  C8         5.8520 -111.3360  -27.2020 C.2   601  IAC601      0.0912
      9  C17        8.2230 -111.9350  -28.0540 C.3   601  IAC601      0.1383
     10  C18        9.0040 -113.2270  -27.7750 C.2   601  IAC601      0.3690
     11  N          5.2480 -111.0050  -26.0500 N.2   601  IAC601     -0.2481
     12  O2        10.2270 -113.2040  -27.9800 O.co2 601  IAC601     -0.2453
     13  O3         8.3900 -114.2110  -27.3790 O.co2 601  IAC601     -0.2453
@<TRIPOS>BOND
     1     9    10    1
     2     9     7    1
     3    12    10   ar
     4    10    13   ar
     5     8     7    2
     6     8    11    1
     7     7     2    1
     8    11     1    2
     9     2     1    1
    10     2     3    1
    11     1     6    1
    12     3     4    2
    13     6     5    2
    14     4     5    1
