@<TRIPOS>MOLECULE
2p1p_IHP_B_1.pdb
 36 36 0 0 0
SMALL
GASTEIGER

@<TRIPOS>ATOM
      1  C1        13.8210 -123.8480  -24.7820 C.3   595  IHP595      0.1863
      2  C2        13.6850 -124.4890  -26.1430 C.3   595  IHP595      0.1863
      3  C3        13.0630 -123.5140  -27.0750 C.3   595  IHP595      0.1863
      4  C4        13.9980 -122.3240  -27.2430 C.3   595  IHP595      0.1863
      5  C5        14.1310 -121.5890  -25.9390 C.3   595  IHP595      0.1863
      6  C6        14.5720 -122.5230  -24.8250 C.3   595  IHP595      0.1863
      7  O11       14.6220 -124.6750  -23.9910 O.3   595  IHP595     -0.2675
      8  P1        14.0450 -125.6320  -22.8630 P.3   595  IHP595      0.5327
      9  O21       15.1820 -125.8720  -21.9120 O.3   595  IHP595     -0.1145
     10  O31       12.6510 -124.9820  -22.3180 O.3   595  IHP595     -0.1145
     11  O41       13.4960 -126.9250  -23.6730 O.2   595  IHP595     -0.2224
     12  O12       14.9830 -124.6460  -26.6500 O.3   595  IHP595     -0.2675
     13  P2        15.8200 -126.0540  -26.6490 P.3   595  IHP595      0.5327
     14  O22       17.1330 -125.8520  -25.9160 O.3   595  IHP595     -0.1145
     15  O32       14.7840 -127.2230  -26.0680 O.3   595  IHP595     -0.1145
     16  O42       15.9810 -126.4010  -28.2280 O.2   595  IHP595     -0.2224
     17  O13       13.1100 -124.2170  -28.2750 O.3   595  IHP595     -0.2675
     18  P3        11.8240 -124.7810  -29.0820 P.3   595  IHP595      0.5327
     19  O23       11.0820 -125.8400  -28.2890 O.3   595  IHP595     -0.1145
     20  O33       12.4460 -125.4220  -30.5120 O.2   595  IHP595     -0.2224
     21  O43       11.0480 -123.3320  -29.5550 O.3   595  IHP595     -0.1145
     22  O14       13.3940 -121.4070  -28.1300 O.3   595  IHP595     -0.2675
     23  P4        14.0590 -120.8540  -29.5300 P.3   595  IHP595      0.5327
     24  O24       13.6670 -119.4320  -29.7650 O.3   595  IHP595     -0.1145
     25  O34       15.6380 -121.2080  -29.5370 O.3   595  IHP595     -0.1145
     26  O44       13.3800 -121.8560  -30.5770 O.2   595  IHP595     -0.2224
     27  O15       15.0580 -120.4960  -26.0660 O.3   595  IHP595     -0.2675
     28  P5        14.5510 -118.9990  -25.6400 P.3   595  IHP595      0.5327
     29  O25       13.9160 -118.9880  -24.2870 O.3   595  IHP595     -0.1145
     30  O35       13.6520 -118.5030  -26.8070 O.2   595  IHP595     -0.2224
     31  O45       15.8880 -118.1690  -25.7130 O.3   595  IHP595     -0.1145
     32  O16       14.3550 -121.9050  -23.5880 O.3   595  IHP595     -0.2675
     33  P6        15.6290 -121.4630  -22.7480 P.3   595  IHP595      0.5327
     34  O26       16.9330 -121.9630  -23.2260 O.2   595  IHP595     -0.2224
     35  O36       15.3000 -121.9590  -21.3100 O.3   595  IHP595     -0.1145
     36  O46       15.4020 -119.8950  -22.7590 O.3   595  IHP595     -0.1145
@<TRIPOS>BOND
     1    26    23    2
     2    20    18    2
     3    24    23    1
     4    21    18    1
     5    25    23    1
     6    23    22    1
     7    18    19    1
     8    18    17    1
     9    17     3    1
    10    16    13    2
    11    22     4    1
    12     4     3    1
    13     4     5    1
    14     3     2    1
    15    30    28    2
    16    12    13    1
    17    12     2    1
    18    13    15    1
    19    13    14    1
    20     2     1    1
    21    27     5    1
    22    27    28    1
    23     5     6    1
    24    31    28    1
    25    28    29    1
    26     6     1    1
    27     6    32    1
    28     1     7    1
    29     7     8    1
    30    11     8    2
    31    32    33    1
    32    34    33    2
    33     8    10    1
    34     8     9    1
    35    36    33    1
    36    33    35    1
