@<TRIPOS>MOLECULE
2p1q_IHP_B_1.pdb
 36 36 0 0 0
SMALL
GASTEIGER

@<TRIPOS>ATOM
      1  C1        13.3330 -123.8140  -24.7080 C.3   801  IHP801      0.1863
      2  C2        13.2480 -124.5610  -26.0320 C.3   801  IHP801      0.1863
      3  C3        12.5910 -123.6750  -27.0700 C.3   801  IHP801      0.1863
      4  C4        13.4290 -122.3860  -27.2890 C.3   801  IHP801      0.1863
      5  C5        13.5180 -121.5710  -25.9880 C.3   801  IHP801      0.1863
      6  C6        14.0460 -122.4530  -24.8410 C.3   801  IHP801      0.1863
      7  O11       14.1500 -124.6310  -23.8770 O.3   801  IHP801     -0.2675
      8  P1        13.6820 -125.5030  -22.6010 P.3   801  IHP801      0.5327
      9  O21       14.8800 -125.5840  -21.6950 O.3   801  IHP801     -0.1145
     10  O31       12.4040 -124.8310  -21.9240 O.3   801  IHP801     -0.1145
     11  O41       13.1000 -126.8220  -23.2500 O.2   801  IHP801     -0.2224
     12  O12       14.5750 -124.7890  -26.4990 O.3   801  IHP801     -0.2675
     13  P2        15.5190 -126.1580  -26.3460 P.3   801  IHP801      0.5327
     14  O22       16.8270 -125.7440  -25.7440 O.3   801  IHP801     -0.1145
     15  O32       14.6770 -127.3020  -25.5080 O.3   801  IHP801     -0.1145
     16  O42       15.6330 -126.6670  -27.8470 O.2   801  IHP801     -0.2224
     17  O13       12.5940 -124.4260  -28.2720 O.3   801  IHP801     -0.2675
     18  P3        11.4030 -125.4940  -28.6360 P.3   801  IHP801      0.5327
     19  O23       11.1100 -126.5670  -27.6380 O.3   801  IHP801     -0.1145
     20  O33       11.7410 -126.0600  -30.1180 O.2   801  IHP801     -0.2224
     21  O43       10.1400 -124.4820  -28.8300 O.3   801  IHP801     -0.1145
     22  O14       12.7340 -121.6080  -28.2430 O.3   801  IHP801     -0.2675
     23  P4        13.3320 -120.9890  -29.5950 P.3   801  IHP801      0.5327
     24  O24       12.9910 -119.5250  -29.7320 O.3   801  IHP801     -0.1145
     25  O34       14.8790 -121.3310  -29.7310 O.3   801  IHP801     -0.1145
     26  O44       12.7010 -121.8720  -30.7010 O.2   801  IHP801     -0.2224
     27  O15       14.4130 -120.4600  -26.2030 O.3   801  IHP801     -0.2675
     28  P5        13.9420 -118.8940  -25.9150 P.3   801  IHP801      0.5327
     29  O25       13.3830 -118.8670  -24.5400 O.3   801  IHP801     -0.1145
     30  O35       12.9450 -118.6180  -27.0470 O.2   801  IHP801     -0.2224
     31  O45       15.3020 -118.1760  -26.1210 O.3   801  IHP801     -0.1145
     32  O16       13.9410 -121.7790  -23.5760 O.3   801  IHP801     -0.2675
     33  P6        15.2250 -121.2240  -22.7860 P.3   801  IHP801      0.5327
     34  O26       16.5430 -121.7050  -23.3670 O.2   801  IHP801     -0.2224
     35  O36       14.8890 -121.7120  -21.3050 O.3   801  IHP801     -0.1145
     36  O46       14.9960 -119.6790  -22.8880 O.3   801  IHP801     -0.1145
@<TRIPOS>BOND
     1    26    23    2
     2    20    18    2
     3    24    23    1
     4    25    23    1
     5    23    22    1
     6    21    18    1
     7    18    17    1
     8    18    19    1
     9    17     3    1
    10    22     4    1
    11    16    13    2
    12     4     3    1
    13     4     5    1
    14     3     2    1
    15    30    28    2
    16    12    13    1
    17    12     2    1
    18    13    14    1
    19    13    15    1
    20    27     5    1
    21    27    28    1
    22    31    28    1
    23     2     1    1
    24     5     6    1
    25    28    29    1
    26     6     1    1
    27     6    32    1
    28     1     7    1
    29     7     8    1
    30    32    33    1
    31    34    33    2
    32    11     8    2
    33    36    33    1
    34    33    35    1
    35     8    10    1
    36     8     9    1
