@<TRIPOS>MOLECULE
2p1q_IAC_B_1.pdb
 13 14 0 0 0
SMALL
GASTEIGER

@<TRIPOS>ATOM
      1  C          5.7460 -110.9510  -25.1870 C.2   901  IAC901      0.0804
      2  C1         6.9540 -111.2500  -25.8200 C.2   901  IAC901      0.0118
      3  C2         8.2020 -111.1960  -25.1320 C.2   901  IAC901     -0.0202
      4  C3         8.2030 -110.8360  -23.7680 C.3   901  IAC901      0.0521
      5  C4         6.9770 -110.5380  -23.1460 C.2   901  IAC901     -0.0199
      6  C5         5.7430 -110.6180  -23.8230 C.2   901  IAC901      0.0148
      7  C7         6.6080 -111.5480  -27.1500 C.2   901  IAC901      0.0094
      8  C8         5.2560 -111.4270  -27.2650 C.2   901  IAC901      0.0951
      9  C17        7.5830 -111.9480  -28.2980 C.3   901  IAC901      0.1419
     10  C18        8.2840 -113.2910  -27.9940 C.2   901  IAC901      0.3693
     11  N          4.7470 -111.0620  -26.0730 N.2   901  IAC901     -0.2442
     12  O2         9.4970 -113.2960  -28.1430 O.co2 901  IAC901     -0.2453
     13  O3         7.6010 -114.2740  -27.6380 O.co2 901  IAC901     -0.2453
@<TRIPOS>BOND
     1     9    10    1
     2     9     7    1
     3    12    10   ar
     4    10    13   ar
     5     8     7    2
     6     8    11    1
     7     7     2    1
     8    11     1    2
     9     2     1    1
    10     2     3    2
    11     1     6    1
    12     3     4    1
    13     6     5    2
    14     4     5    1
