@<TRIPOS>MOLECULE
2p1s_GFG_A_1.pdb
 34 36 0 0 0
SMALL
GASTEIGER

@<TRIPOS>ATOM
      1  O63       10.2580   14.5420   10.5150 O.3   700  GFG700     -0.2176
      2  C63        8.8650   14.6870   10.8510 C.3   700  GFG700      0.2142
      3  C53        8.6770   14.7380   12.3600 C.3   700  GFG700      0.1835
      4  O53        8.8100   16.1120   12.7850 O.3   700  GFG700     -0.3256
      5  C43        7.2820   14.2250   12.7040 C.3   700  GFG700      0.2144
      6  O43        7.1380   12.8190   12.4140 O.3   700  GFG700     -0.2176
      7  C33        6.9860   14.3910   14.1850 C.3   700  GFG700      0.2198
      8  O33        5.6050   14.0030   14.4240 O.3   700  GFG700     -0.2174
      9  C23        7.2790   15.8200   14.6620 C.3   700  GFG700      0.2406
     10  O23        7.1600   15.8520   16.1010 O.3   700  GFG700     -0.2149
     11  C13        8.6570   16.3250   14.1990 C.3   700  GFG700      0.2696
     12  O13        9.7280   15.6310   14.8530 O.3   700  GFG700     -0.3232
     13  C32       11.0160   16.2550   14.6580 C.3   700  GFG700      0.2042
     14  C42       11.9180   15.9850   15.8560 C.3   700  GFG700      0.2135
     15  O42       11.6660   16.9000   16.9370 O.3   700  GFG700     -0.2176
     16  C52       13.3380   16.1650   15.2850 C.3   700  GFG700      0.1834
     17  O52       13.2370   16.0350   13.8510 O.3   700  GFG700     -0.3273
     18  C62       14.4100   15.2310   15.8930 C.3   700  GFG700      0.2142
     19  O62       14.0100   13.8420   15.9970 O.3   700  GFG700     -0.2176
     20  C22       11.8650   15.7580   13.4720 C.3   700  GFG700      0.2484
     21  C12       11.7870   14.2300   13.2770 C.3   700  GFG700      0.2405
     22  O12       12.8510   13.8600   12.3730 O.3   700  GFG700     -0.2149
     23  O1        11.4980   16.4460   12.2410 O.3   700  GFG700     -0.3034
     24  C1        12.5530   17.3030   11.7400 C.3   700  GFG700      0.2713
     25  C2        12.2850   18.7990   12.0090 C.3   700  GFG700      0.2406
     26  O2        10.9250   19.0810   12.4260 O.3   700  GFG700     -0.2149
     27  C3        12.6670   19.6970   10.8150 C.3   700  GFG700      0.2198
     28  O3        14.1030   19.8050   10.7130 O.3   700  GFG700     -0.2174
     29  C4        12.1540   19.2310    9.4520 C.3   700  GFG700      0.2144
     30  O4        13.1910   19.5750    8.5000 O.3   700  GFG700     -0.2176
     31  C5        11.8590   17.7300    9.4740 C.3   700  GFG700      0.1835
     32  O5        12.7840   17.0760   10.3390 O.3   700  GFG700     -0.3256
     33  C6        11.9890   17.0810    8.1020 C.3   700  GFG700      0.2142
     34  O6        11.8580   15.6520    8.2610 O.3   700  GFG700     -0.2176
@<TRIPOS>BOND
     1    33    34    1
     2    33    31    1
     3    30    29    1
     4    29    31    1
     5    29    27    1
     6    31    32    1
     7    32    24    1
     8     1     2    1
     9    28    27    1
    10    27    25    1
    11     2     3    1
    12    24    25    1
    13    24    23    1
    14    25    26    1
    15    23    20    1
    16     3     5    1
    17     3     4    1
    18    22    21    1
    19     6     5    1
    20     5     7    1
    21     4    11    1
    22    21    20    1
    23    20    17    1
    24    20    13    1
    25    17    16    1
    26     7     8    1
    27     7     9    1
    28    11     9    1
    29    11    12    1
    30    13    12    1
    31    13    14    1
    32     9    10    1
    33    16    14    1
    34    16    18    1
    35    14    15    1
    36    18    19    1
