@<TRIPOS>MOLECULE
2p1t_3TN_A_1.pdb
 28 30 0 0 0
SMALL
GASTEIGER

@<TRIPOS>ATOM
      1  CAA       -0.8760  -20.7740   29.3230 C.3   201  3TN201      0.2525
      2  OAR       -1.1370  -19.3960   29.4770 O.3   201  3TN201     -0.4714
      3  CAV       -1.3130  -18.9710   30.7570 C.ar  201  3TN201      0.1384
      4  CAN       -0.2810  -19.1520   31.6930 C.ar  201  3TN201      0.0323
      5  CAY       -0.4080  -18.7100   33.0170 C.ar  201  3TN201     -0.0238
      6  CBA        0.7700  -18.9670   34.0000 C.3   201  3TN201      0.0187
      7  CAB        0.8200  -20.4760   34.3520 C.3   201  3TN201      0.0044
      8  CAC        2.1180  -18.5540   33.3860 C.3   201  3TN201      0.0044
      9  CAP        0.5610  -18.1440   35.2780 C.3   201  3TN201      0.0044
     10  CAQ       -0.8740  -18.2120   35.8140 C.3   201  3TN201      0.0044
     11  CBB       -1.8800  -17.5720   34.8390 C.3   201  3TN201      0.0186
     12  CAD       -1.7540  -16.0390   34.8490 C.3   201  3TN201      0.0044
     13  CAE       -3.2850  -17.9690   35.2810 C.3   201  3TN201      0.0044
     14  CAZ       -1.6210  -18.0830   33.4020 C.ar  201  3TN201     -0.0266
     15  CAO       -2.6530  -17.9120   32.4470 C.ar  201  3TN201     -0.0015
     16  CAX       -2.5160  -18.3440   31.1240 C.ar  201  3TN201      0.0367
     17  CAW       -3.5750  -18.1440   30.2100 C.ar  201  3TN201      0.0419
     18  CAM       -4.8530  -18.6690   30.4850 C.ar  201  3TN201      0.0033
     19  CAU       -3.4000  -17.3940   29.0360 C.ar  201  3TN201      0.1957
     20  OAH       -2.1630  -16.8550   28.7560 O.3   201  3TN201     -0.2866
     21  CAL       -4.4890  -17.2000   28.1560 C.ar  201  3TN201      0.0420
     22  CAK       -5.7590  -17.7400   28.4450 C.ar  201  3TN201      0.0033
     23  CAT       -5.9450  -18.5000   29.6110 C.ar  201  3TN201      0.0004
     24  CAJ       -7.1760  -19.0410   30.0430 C.2   201  3TN201      0.0068
     25  CAI       -8.4070  -18.4300   29.7420 C.2   201  3TN201      0.0861
     26  CAS       -9.6610  -18.8650   30.1980 C.2   201  3TN201      0.3880
     27  OAG      -10.6470  -18.2010   29.8190 O.co2 201  3TN201     -0.2405
     28  OAF       -9.7570  -19.8670   30.9550 O.co2 201  3TN201     -0.2405
@<TRIPOS>BOND
     1    21    22   ar
     2    21    19   ar
     3    22    23   ar
     4    20    19    1
     5    19    17   ar
     6     1     2    1
     7     2     3    1
     8    23    24    1
     9    23    18   ar
    10    25    24    2
    11    25    26    1
    12    27    26   ar
    13    26    28   ar
    14    17    18   ar
    15    17    16    1
    16     3    16   ar
    17     3     4   ar
    18    16    15   ar
    19     4     5   ar
    20    15    14   ar
    21     5    14   ar
    22     5     6    1
    23     8     6    1
    24    14    11    1
    25     6     7    1
    26     6     9    1
    27    11    12    1
    28    11    13    1
    29    11    10    1
    30     9    10    1
