@<TRIPOS>MOLECULE
2p1u_4TN_A_1.pdb
 29 31 0 0 0
SMALL
GASTEIGER

@<TRIPOS>ATOM
      1  CAA        1.0500   21.5820   27.2180 C.3   201  4TN201      0.0512
      2  CAP        0.1450   21.2010   28.3810 C.3   201  4TN201      0.2055
      3  OAS        0.2960   19.7880   28.5710 O.3   201  4TN201     -0.4755
      4  CAW        0.5010   19.4950   29.8890 C.ar  201  4TN201      0.1382
      5  CAN       -0.5360   19.7320   30.7950 C.ar  201  4TN201      0.0323
      6  CAZ       -0.3990   19.4560   32.1560 C.ar  201  4TN201     -0.0238
      7  CBB       -1.5980   19.7530   33.0960 C.3   201  4TN201      0.0187
      8  CAB       -1.7380   21.2680   33.3540 C.3   201  4TN201      0.0044
      9  CAC       -2.8930   19.2460   32.4490 C.3   201  4TN201      0.0044
     10  CAQ       -1.4190   18.9920   34.4260 C.3   201  4TN201      0.0044
     11  CAR       -0.0080   19.1420   35.0190 C.3   201  4TN201      0.0044
     12  CBC        1.0700   18.5750   34.0940 C.3   201  4TN201      0.0186
     13  CAD        1.1350   17.0420   34.1920 C.3   201  4TN201      0.0044
     14  CAE        2.4010   19.2140   34.4910 C.3   201  4TN201      0.0044
     15  CBA        0.8230   18.9230   32.6060 C.ar  201  4TN201     -0.0266
     16  CAO        1.8670   18.6760   31.6860 C.ar  201  4TN201     -0.0015
     17  CAY        1.7240   18.9530   30.3220 C.ar  201  4TN201      0.0367
     18  CAX        2.7820   18.7170   29.4160 C.ar  201  4TN201      0.0419
     19  CAM        4.0200   19.3340   29.6380 C.ar  201  4TN201      0.0033
     20  CAV        2.6230   17.9000   28.2860 C.ar  201  4TN201      0.1957
     21  OAH        1.4250   17.2840   28.0580 O.3   201  4TN201     -0.2866
     22  CAL        3.6990   17.7040   27.3970 C.ar  201  4TN201      0.0420
     23  CAK        4.9440   18.3200   27.6460 C.ar  201  4TN201      0.0033
     24  CAU        5.1040   19.1590   28.7650 C.ar  201  4TN201      0.0004
     25  CAJ        6.3090   19.7910   29.1200 C.2   201  4TN201      0.0068
     26  CAI        7.5470   19.1730   28.8920 C.2   201  4TN201      0.0861
     27  CAT        8.8030   19.6700   29.2750 C.2   201  4TN201      0.3880
     28  OAG        9.7960   18.9830   28.9670 O.co2 201  4TN201     -0.2405
     29  OAF        8.9030   20.7540   29.8840 O.co2 201  4TN201     -0.2405
@<TRIPOS>BOND
     1     1     2    1
     2    22    23   ar
     3    22    20   ar
     4    23    24   ar
     5    21    20    1
     6    20    18   ar
     7     2     3    1
     8     3     4    1
     9    24    25    1
    10    24    19   ar
    11    26    25    2
    12    26    27    1
    13    28    27   ar
    14    27    29   ar
    15    18    19   ar
    16    18    17    1
    17     4    17   ar
    18     4     5   ar
    19    17    16   ar
    20     5     6   ar
    21    16    15   ar
    22     6    15   ar
    23     6     7    1
    24     9     7    1
    25    15    12    1
    26     7     8    1
    27     7    10    1
    28    12    13    1
    29    12    14    1
    30    12    11    1
    31    10    11    1
