@<TRIPOS>MOLECULE
2p1v_5TN_A_1.pdb
 30 32 0 0 0
SMALL
GASTEIGER

@<TRIPOS>ATOM
      1  CAA        1.0580   19.1740   27.1890 C.3   201  5TN201      0.0040
      2  CAP        0.8130   20.4280   28.0430 C.3   201  5TN201      0.0473
      3  CAQ        0.4080   20.0380   29.4700 C.3   201  5TN201      0.2054
      4  OAT        1.2110   18.8500   29.7040 O.3   201  5TN201     -0.4755
      5  CAX        1.3570   18.4470   30.9980 C.ar  201  5TN201      0.1382
      6  CAN        0.3520   18.6640   31.9400 C.ar  201  5TN201      0.0323
      7  CBA        0.4790   18.2480   33.2640 C.ar  201  5TN201     -0.0238
      8  CBC       -0.6890   18.5390   34.2380 C.3   201  5TN201      0.0187
      9  CAB       -0.7320   20.0510   34.5160 C.3   201  5TN201      0.0044
     10  CAC       -2.0190   18.0790   33.6500 C.3   201  5TN201      0.0044
     11  CAR       -0.5090   17.7930   35.5480 C.3   201  5TN201      0.0044
     12  CAS        0.9240   17.8530   36.0510 C.3   201  5TN201      0.0044
     13  CBD        1.8810   17.1260   35.1150 C.3   201  5TN201      0.0186
     14  CAD        1.6240   15.6300   35.1790 C.3   201  5TN201      0.0044
     15  CAE        3.3030   17.4310   35.5690 C.3   201  5TN201      0.0044
     16  CBB        1.6680   17.6120   33.6570 C.ar  201  5TN201     -0.0266
     17  CAO        2.6690   17.3950   32.7030 C.ar  201  5TN201     -0.0015
     18  CAZ        2.5270   17.7970   31.3710 C.ar  201  5TN201      0.0367
     19  CAY        3.5520   17.6140   30.4320 C.ar  201  5TN201      0.0419
     20  CAM        4.8030   18.1820   30.7000 C.ar  201  5TN201      0.0033
     21  CAW        3.3660   16.9090   29.2360 C.ar  201  5TN201      0.1957
     22  OAH        2.1490   16.3640   28.9520 O.3   201  5TN201     -0.2866
     23  CAL        4.4290   16.7820   28.3310 C.ar  201  5TN201      0.0420
     24  CAK        5.6850   17.3510   28.6110 C.ar  201  5TN201      0.0033
     25  CAV        5.8840   18.0570   29.8080 C.ar  201  5TN201      0.0004
     26  CAJ        7.1160   18.6330   30.1700 C.2   201  5TN201      0.0068
     27  CAI        8.3630   18.1180   29.7900 C.2   201  5TN201      0.0861
     28  CAU        9.5950   18.6610   30.1740 C.2   201  5TN201      0.3880
     29  OAG       10.6030   18.0740   29.7490 O.co2 201  5TN201     -0.2405
     30  OAF        9.6630   19.6840   30.9020 O.co2 201  5TN201     -0.2405
@<TRIPOS>BOND
     1     1     2    1
     2     2     3    1
     3    23    24   ar
     4    23    21   ar
     5    24    25   ar
     6    22    21    1
     7    21    19   ar
     8     3     4    1
     9     4     5    1
    10    29    28   ar
    11    27    26    2
    12    27    28    1
    13    25    26    1
    14    25    20   ar
    15    28    30   ar
    16    19    20   ar
    17    19    18    1
    18     5    18   ar
    19     5     6   ar
    20    18    17   ar
    21     6     7   ar
    22    17    16   ar
    23     7    16   ar
    24     7     8    1
    25    10     8    1
    26    16    13    1
    27     8     9    1
    28     8    11    1
    29    13    14    1
    30    13    15    1
    31    13    12    1
    32    11    12    1
