@<TRIPOS>MOLECULE
2p20_PRX_A_1.pdb
 26 28 0 0 0
SMALL
GASTEIGER

@<TRIPOS>ATOM
      1  O2'       -9.6950   26.1210   25.8160 O.3   999  PRX999     -0.2130
      2  C2'       -8.9230   25.8650   24.6580 C.3   999  PRX999      0.2570
      3  C1'       -9.0030   27.1080   23.7900 C.3   999  PRX999      0.3186
      4  O4'       -7.8460   27.9100   24.0690 O.3   999  PRX999     -0.3135
      5  C4'       -7.0550   27.2600   25.0710 C.3   999  PRX999      0.1821
      6  C5'       -5.5900   27.4840   24.7900 C.3   999  PRX999      0.1813
      7  O5'       -5.3560   28.8720   25.0120 O.3   999  PRX999     -0.3114
      8  P         -3.8990   29.4560   24.7230 P.3   999  PRX999      0.2141
      9  O1P       -2.9280   28.5680   25.4850 O.3   999  PRX999     -0.4373
     10  O2P       -3.8650   30.9460   24.8930 O.2   999  PRX999     -0.5172
     11  O3P       -3.7180   29.0410   23.1800 O.3   999  PRX999     -0.3141
     12  C1P       -4.2220   29.7720   22.0590 C.3   999  PRX999      0.1491
     13  C2P       -3.6350   29.0980   20.8240 C.3   999  PRX999      0.0325
     14  C3P       -4.3400   27.8130   20.4700 C.3   999  PRX999      0.0027
     15  C3'       -7.4540   25.7970   25.0080 C.3   999  PRX999      0.2184
     16  O3'       -7.2050   25.0450   26.2100 O.3   999  PRX999     -0.2174
     17  N9        -8.9590   26.7230   22.3640 N.pl3 999  PRX999     -0.1439
     18  C8        -7.9040   26.9310   21.5550 C.3   999  PRX999      0.3377
     19  N7        -8.2100   26.4760   20.3220 N.2   999  PRX999     -0.2095
     20  C5        -9.4660   25.9740   20.3700 C.2   999  PRX999      0.2526
     21  C4        -9.9410   26.1270   21.6670 C.2   999  PRX999      0.3518
     22  N3       -11.1960   25.6880   21.9870 N.2   999  PRX999     -0.0055
     23  C2       -11.9560   25.1120   21.0480 C.3   999  PRX999      0.5254
     24  N1       -11.5190   24.9520   19.7840 N.2   999  PRX999      0.0021
     25  C6       -10.2840   25.3740   19.4300 C.2   999  PRX999      0.4393
     26  N6        -9.8460   25.2200   18.1700 N.pl3 999  PRX999      0.2180
@<TRIPOS>BOND
     1    26    25    1
     2    25    24    2
     3    25    20    1
     4    24    23    1
     5    19    20    2
     6    19    18    1
     7    20    21    1
     8    14    13    1
     9    13    12    1
    10    23    22    1
    11    18    17    1
    12    21    22    2
    13    21    17    1
    14    12    11    1
    15    17     3    1
    16    11     8    1
    17     3     4    1
    18     3     2    1
    19     4     5    1
    20     2    15    1
    21     2     1    1
    22     8    10    2
    23     8     7    1
    24     8     9    1
    25     6     7    1
    26     6     5    1
    27    15     5    1
    28    15    16    1
