@<TRIPOS>MOLECULE
2p2a_GLU_A_1.pdb
 10 9 0 0 0
SMALL
GASTEIGER

@<TRIPOS>ATOM
      1  N         29.3060    5.9020   19.3900 N.3   801  GLU801     -0.1208
      2  CA        30.7630    5.9880   19.0710 C.3   801  GLU801      0.1949
      3  C         31.0190    6.0180   17.5680 C.2   801  GLU801      0.3819
      4  O         32.2030    6.1090   17.1810 O.co2 801  GLU801     -0.2441
      5  CB        31.5030    4.8060   19.6960 C.3   801  GLU801      0.0424
      6  CG        31.6460    4.8990   21.2020 C.3   801  GLU801      0.1161
      7  CD        32.6330    5.9710   21.6330 C.2   801  GLU801      0.3649
      8  OE1       32.6620    6.2930   22.8370 O.co2 801  GLU801     -0.2457
      9  OE2       33.3860    6.4850   20.7770 O.co2 801  GLU801     -0.2457
     10  OXT       30.0330    5.9550   16.7990 O.co2 801  GLU801     -0.2441
@<TRIPOS>BOND
     1    10     3   ar
     2     4     3   ar
     3     3     2    1
     4     2     1    1
     5     2     5    1
     6     5     6    1
     7     9     7   ar
     8     6     7    1
     9     7     8   ar
