@<TRIPOS>MOLECULE
2p2a_MP9_B_1.pdb
 24 26 0 0 0
SMALL
GASTEIGER

@<TRIPOS>ATOM
      1  C1         6.2430   24.4950   21.1910 C.2   802  MP9802      0.1126
      2  C2         6.7110   24.7570   22.4500 C.2   802  MP9802      0.2473
      3  O3         5.9630   24.1250   23.3920 O.2   802  MP9802     -0.3334
      4  N4         4.9180   23.4280   22.7300 N.2   802  MP9802      0.0002
      5  C5         5.1460   23.6150   21.4410 C.1   802  MP9802      0.1890
      6  C6         7.8360   25.5560   22.9010 C.1   802  MP9802      0.1119
      7  N7         8.1300   25.8590   24.1860 N.2   802  MP9802     -0.0833
      8  N8         9.2230   26.5970   24.1300 N.pl3 802  MP9802     -0.0178
      9  N9         9.5500   26.7160   22.8530 N.pl3 802  MP9802     -0.1103
     10  N10        8.7220   26.0880   22.0520 N.2   802  MP9802     -0.1028
     11  C11       10.7240   27.4720   22.3690 C.3   802  MP9802      0.1641
     12  C12       12.8200   29.6790   25.5030 C.ar  802  MP9802     -0.0000
     13  C13       11.8710   30.3410   24.6690 C.ar  802  MP9802     -0.0003
     14  C14       11.1880   29.6200   23.6480 C.ar  802  MP9802     -0.0025
     15  C15       11.4470   28.2360   23.4550 C.ar  802  MP9802      0.0012
     16  C16       12.3950   27.5720   24.2900 C.ar  802  MP9802     -0.0025
     17  C17       13.0830   28.2930   25.3120 C.ar  802  MP9802     -0.0003
     18  O23        4.4410   23.0420   20.4570 O.2   802  MP9802     -0.2193
     19  C24        6.7410   24.9690   19.8580 C.3   802  MP9802      0.0729
     20  C25        7.6010   23.9450   19.0990 C.3   802  MP9802      0.1995
     21  C26        7.2410   23.8810   17.5740 C.2   802  MP9802      0.3822
     22  O27        8.1980   24.0330   16.7720 O.co2 802  MP9802     -0.2440
     23  O28        6.0330   23.6970   17.3110 O.co2 802  MP9802     -0.2440
     24  N29        9.0810   24.2760   19.2250 N.3   802  MP9802     -0.1204
@<TRIPOS>BOND
     1    22    21   ar
     2    23    21   ar
     3    21    20    1
     4    20    24    1
     5    20    19    1
     6    19     1    1
     7    18     5    2
     8     1     5    1
     9     1     2    2
    10     5     4    2
    11    10     9    1
    12    10     6    2
    13    11     9    1
    14    11    15    1
    15     2     6    1
    16     2     3    1
    17     4     3    1
    18     9     8    1
    19     6     7    2
    20    15    14   ar
    21    15    16   ar
    22    14    13   ar
    23     8     7    1
    24    16    17   ar
    25    13    12   ar
    26    17    12   ar
