@<TRIPOS>MOLECULE
2p2b_COA_A_1.pdb
 48 50 0 0 0
SMALL
GASTEIGER

@<TRIPOS>ATOM
      1  N1A       53.1580  163.5810   46.0820 N.2   990  COA990      0.0021
      2  C2A       53.7090  163.9530   47.2860 C.3   990  COA990      0.5254
      3  N3A       52.9310  163.9400   48.4290 N.2   990  COA990     -0.0055
      4  C4A       51.6320  163.5630   48.3750 C.2   990  COA990      0.3518
      5  C5A       51.0680  163.1830   47.1550 C.2   990  COA990      0.2526
      6  C6A       51.8450  163.1910   46.0000 C.2   990  COA990      0.4393
      7  N6A       51.3300  162.9180   44.8010 N.pl3 990  COA990      0.2180
      8  N7A       49.7770  162.8640   47.3940 N.2   990  COA990     -0.2095
      9  C8A       49.5200  163.0190   48.7180 C.3   990  COA990      0.3377
     10  N9A       50.6580  163.4610   49.3450 N.pl3 990  COA990     -0.1439
     11  C1B       50.7810  163.8720   50.7610 C.3   990  COA990      0.3185
     12  C2B       50.1680  165.2380   51.0600 C.3   990  COA990      0.2543
     13  O2B       51.0620  166.2820   50.7760 O.3   990  COA990     -0.2131
     14  C3B       49.8540  165.1220   52.5460 C.3   990  COA990      0.1928
     15  O3B       51.0410  165.1980   53.3020 O.3   990  COA990     -0.2673
     16  P3B       51.2850  166.2030   54.5250 P.3   990  COA990      0.5327
     17  O7A       52.2210  165.5850   55.5340 O.3   990  COA990     -0.1145
     18  O8A       51.9230  167.4490   53.9690 O.2   990  COA990     -0.2224
     19  O9A       49.9760  166.5370   55.2000 O.3   990  COA990     -0.1145
     20  C4B       49.4290  163.6690   52.6820 C.3   990  COA990      0.1795
     21  O4B       50.1020  162.9780   51.6380 O.3   990  COA990     -0.3136
     22  C5B       47.9240  163.4830   52.5490 C.3   990  COA990      0.1812
     23  O5B       47.4670  164.3340   51.5130 O.3   990  COA990     -0.3112
     24  P1A       45.9750  164.1910   50.9350 P.3   990  COA990      0.2189
     25  O1A       45.7650  165.2110   49.8420 O.2   990  COA990     -0.5170
     26  O2A       45.0220  164.2910   52.1010 O.3   990  COA990     -0.4371
     27  O3A       46.0870  162.7110   50.2850 O.3   990  COA990     -0.2703
     28  P2A       44.8980  161.8250   49.6840 P.3   990  COA990      0.2188
     29  O4A       44.2970  160.9910   50.8090 O.3   990  COA990     -0.4371
     30  O5A       45.3850  160.9220   48.5790 O.2   990  COA990     -0.5170
     31  O6A       43.7820  162.8180   49.0840 O.3   990  COA990     -0.3138
     32  CBP       41.9950  162.5580   47.4010 C.3   990  COA990      0.0645
     33  CCP       42.5130  162.2650   48.8090 C.3   990  COA990      0.1519
     34  CDP       41.3280  161.2780   46.9120 C.3   990  COA990      0.0056
     35  CEP       43.0980  162.8680   46.3860 C.3   990  COA990      0.0056
     36  CAP       40.9830  163.7090   47.4760 C.3   990  COA990      0.2312
     37  OAP       40.0410  163.4590   48.4960 O.3   990  COA990     -0.2131
     38  C9P       41.6470  165.0460   47.6970 C.2   990  COA990      0.2719
     39  O9P       41.7830  165.9210   46.6090 O.2   990  COA990     -0.2706
     40  N8P       42.1010  165.3450   48.9180 N.am  990  COA990     -0.2028
     41  C7P       41.8930  166.6340   49.5620 C.3   990  COA990      0.1248
     42  C6P       42.9390  166.8890   50.6530 C.3   990  COA990      0.1102
     43  C5P       42.5760  166.1920   51.9550 C.2   990  COA990      0.2432
     44  O5P       42.3860  166.8600   52.9900 O.2   990  COA990     -0.2733
     45  N4P       42.4820  164.8560   51.9240 N.am  990  COA990     -0.2044
     46  C3P       42.1860  164.0290   53.0830 C.3   990  COA990      0.1276
     47  C2P       40.7560  163.5220   53.0320 C.3   990  COA990      0.0920
     48  S1P       39.5960  164.9090   52.9740 S.3   990  COA990     -0.0802
@<TRIPOS>BOND
     1     7     6    1
     2     6     1    2
     3     6     5    1
     4     1     2    1
     5    35    32    1
     6    39    38    2
     7    34    32    1
     8     5     8    2
     9     5     4    1
    10     2     3    1
    11     8     9    1
    12    32    36    1
    13    32    33    1
    14    36    38    1
    15    36    37    1
    16    38    40   am
    17     4     3    2
    18     4    10    1
    19    30    28    2
    20     9    10    1
    21    33    31    1
    22    40    41    1
    23    31    28    1
    24    10    11    1
    25    41    42    1
    26    28    27    1
    27    28    29    1
    28    25    24    2
    29    27    24    1
    30    42    43    1
    31    11    12    1
    32    11    21    1
    33    13    12    1
    34    24    23    1
    35    24    26    1
    36    12    14    1
    37    23    22    1
    38    21    20    1
    39    45    43   am
    40    45    46    1
    41    43    44    2
    42    14    20    1
    43    14    15    1
    44    22    20    1
    45    48    47    1
    46    47    46    1
    47    15    16    1
    48    18    16    2
    49    16    19    1
    50    16    17    1
