@<TRIPOS>MOLECULE
2p2b_PRX_A_1.pdb
 26 28 0 0 0
SMALL
GASTEIGER

@<TRIPOS>ATOM
      1  O2'       41.6880  144.8660   48.0490 O.3   999  PRX999     -0.2130
      2  C2'       41.5720  145.0340   46.6220 C.3   999  PRX999      0.2570
      3  C1'       41.4720  146.5180   46.3600 C.3   999  PRX999      0.3186
      4  O4'       42.8100  146.9620   46.0680 O.3   999  PRX999     -0.3135
      5  C4'       43.7310  145.8820   46.1330 C.3   999  PRX999      0.1821
      6  C5'       44.7780  146.0240   45.0560 C.3   999  PRX999      0.1813
      7  O5'       45.5080  147.2320   45.2290 O.3   999  PRX999     -0.3114
      8  P         46.6790  147.5490   44.1720 P.3   999  PRX999      0.2141
      9  O1P       47.5370  146.3010   44.0590 O.2   999  PRX999     -0.5172
     10  O2P       47.3320  148.8330   44.6760 O.3   999  PRX999     -0.4373
     11  O3P       45.9310  147.7850   42.7860 O.3   999  PRX999     -0.3141
     12  C1P       44.9550  148.8310   42.6710 C.3   999  PRX999      0.1491
     13  C2P       44.0350  148.5220   41.5100 C.3   999  PRX999      0.0325
     14  C3P       43.0570  149.6600   41.2940 C.3   999  PRX999      0.0027
     15  C3'       42.8520  144.6680   45.8980 C.3   999  PRX999      0.2184
     16  O3'       43.4290  143.4620   46.4020 O.3   999  PRX999     -0.2174
     17  N9        40.5790  146.8490   45.2060 N.pl3 999  PRX999     -0.1439
     18  C8        40.9780  147.2650   43.9960 C.3   999  PRX999      0.3377
     19  N7        39.9060  147.5060   43.2130 N.2   999  PRX999     -0.2095
     20  C5        38.8130  147.2340   43.9460 C.2   999  PRX999      0.2526
     21  C4        39.2500  146.8240   45.2050 C.2   999  PRX999      0.3518
     22  N3        38.3330  146.4920   46.1520 N.2   999  PRX999     -0.0055
     23  C2        37.0180  146.5560   45.8630 C.3   999  PRX999      0.5254
     24  N1        36.5780  146.9590   44.6620 N.2   999  PRX999      0.0021
     25  C6        37.4370  147.3130   43.6850 C.2   999  PRX999      0.4393
     26  N6        36.9760  147.6970   42.4600 N.pl3 999  PRX999      0.2180
@<TRIPOS>BOND
     1    14    13    1
     2    13    12    1
     3    26    25    1
     4    12    11    1
     5    11     8    1
     6    19    20    2
     7    19    18    1
     8    25    20    1
     9    25    24    2
    10    20    21    1
    11    18    17    1
    12     9     8    2
    13     8    10    1
    14     8     7    1
    15    24    23    1
    16     6     7    1
    17     6     5    1
    18    21    17    1
    19    21    22    2
    20    17     3    1
    21    23    22    1
    22    15     5    1
    23    15    16    1
    24    15     2    1
    25     4     5    1
    26     4     3    1
    27     3     2    1
    28     2     1    1
