@<TRIPOS>MOLECULE
2p2f_AMP_A_1.pdb
 23 25 0 0 0
SMALL
GASTEIGER

@<TRIPOS>ATOM
      1  P         -3.7630   29.4310   24.5080 P.3   999  AMP999      0.5327
      2  O1P       -2.9240   28.4870   25.3450 O.3   999  AMP999     -0.1145
      3  O2P       -3.7960   30.8740   24.9860 O.3   999  AMP999     -0.1145
      4  O3P       -3.4560   29.3160   23.0560 O.2   999  AMP999     -0.2224
      5  O5'       -5.2630   28.8730   24.6280 O.3   999  AMP999     -0.2675
      6  C5'       -5.5630   27.5270   24.2390 C.3   999  AMP999      0.1860
      7  C4'       -6.9940   27.2620   24.6780 C.3   999  AMP999      0.1823
      8  O4'       -7.8920   27.9910   23.8370 O.3   999  AMP999     -0.3135
      9  C3'       -7.4110   25.8070   24.5940 C.3   999  AMP999      0.2184
     10  O3'       -7.1750   25.1010   25.8100 O.3   999  AMP999     -0.2174
     11  C2'       -8.8960   25.9220   24.3260 C.3   999  AMP999      0.2570
     12  O2'       -9.6910   26.2030   25.4950 O.3   999  AMP999     -0.2130
     13  C1'       -8.9790   27.1550   23.4730 C.3   999  AMP999      0.3186
     14  N9        -8.9440   26.7630   22.0450 N.pl3 999  AMP999     -0.1439
     15  C8        -7.9130   26.9700   21.2150 C.3   999  AMP999      0.3377
     16  N7        -8.2160   26.5100   19.9770 N.2   999  AMP999     -0.2095
     17  C5        -9.4500   26.0030   20.0160 C.2   999  AMP999      0.2526
     18  C6       -10.3370   25.3750   19.0240 C.2   999  AMP999      0.4393
     19  N6        -9.8480   25.2450   17.7600 N.pl3 999  AMP999      0.2180
     20  N1       -11.5760   24.9620   19.4240 N.2   999  AMP999      0.0021
     21  C2       -11.9820   25.1380   20.7060 C.3   999  AMP999      0.5254
     22  N3       -11.2180   25.7180   21.6720 N.2   999  AMP999     -0.0055
     23  C4        -9.9470   26.1600   21.3820 C.2   999  AMP999      0.3518
@<TRIPOS>BOND
     1    19    18    1
     2    18    20    2
     3    18    17    1
     4    20    21    1
     5    16    17    2
     6    16    15    1
     7    17    23    1
     8    21    22    1
     9    15    14    1
    10    23    22    2
    11    23    14    1
    12    14    13    1
    13     4     1    2
    14    13     8    1
    15    13    11    1
    16     8     7    1
    17     6     5    1
    18     6     7    1
    19    11     9    1
    20    11    12    1
    21     1     5    1
    22     1     3    1
    23     1     2    1
    24     9     7    1
    25     9    10    1
