@<TRIPOS>MOLECULE
2p2f_COA_A_1.pdb
 48 50 0 0 0
SMALL
GASTEIGER

@<TRIPOS>ATOM
      1  N1A       -2.0800   46.1010   21.0380 N.2   990  COA990      0.0021
      2  C2A       -2.5510   47.1180   21.8430 C.3   990  COA990      0.5254
      3  N3A       -3.8830   47.1190   22.2050 N.2   990  COA990     -0.0055
      4  C4A       -4.7090   46.1450   21.7700 C.2   990  COA990      0.3518
      5  C5A       -4.2490   45.1130   20.9620 C.2   990  COA990      0.2526
      6  C6A       -2.9140   45.0990   20.5920 C.2   990  COA990      0.4393
      7  N6A       -2.4720   44.2410   19.6830 N.pl3 990  COA990      0.2180
      8  N7A       -5.2930   44.2810   20.7060 N.2   990  COA990     -0.2095
      9  C8A       -6.3970   44.7690   21.3250 C.3   990  COA990      0.3377
     10  N9A       -6.0310   45.9240   21.9880 N.pl3 990  COA990     -0.1439
     11  C1B       -6.9170   46.8850   22.6270 C.3   990  COA990      0.3185
     12  C2B       -7.8530   47.5080   21.5980 C.3   990  COA990      0.2543
     13  O2B       -7.2840   48.5460   20.8280 O.3   990  COA990     -0.2131
     14  C3B       -8.9500   47.9720   22.5210 C.3   990  COA990      0.1928
     15  O3B       -8.4520   49.0840   23.2260 O.3   990  COA990     -0.2673
     16  P3B       -9.4270   50.0180   24.0900 P.3   990  COA990      0.5327
     17  O7A       -8.5950   51.1410   24.6570 O.3   990  COA990     -0.1145
     18  O8A      -10.5070   50.6110   23.1960 O.2   990  COA990     -0.2224
     19  O9A       -9.9960   49.1040   25.1560 O.3   990  COA990     -0.1145
     20  C4B       -9.0640   46.8220   23.5050 C.3   990  COA990      0.1795
     21  O4B       -7.7860   46.1980   23.5110 O.3   990  COA990     -0.3136
     22  C5B      -10.1930   45.8540   23.1380 C.3   990  COA990      0.1812
     23  O5B       -9.6900   44.6670   22.5490 O.3   990  COA990     -0.3112
     24  P1A      -10.5810   43.7260   21.5600 P.3   990  COA990      0.2189
     25  O1A      -11.6990   43.0160   22.3070 O.3   990  COA990     -0.4371
     26  O2A       -9.7150   42.7270   20.8090 O.2   990  COA990     -0.5170
     27  O3A      -11.1890   44.8530   20.5650 O.3   990  COA990     -0.2703
     28  P2A      -10.6110   45.0080   19.0750 P.3   990  COA990      0.2188
     29  O4A       -9.3670   45.8730   19.0750 O.3   990  COA990     -0.4371
     30  O5A      -11.6900   45.5220   18.1370 O.2   990  COA990     -0.5170
     31  O6A      -10.2490   43.4820   18.6960 O.3   990  COA990     -0.3138
     32  CBP      -10.7040   41.5200   17.3160 C.3   990  COA990      0.0645
     33  CCP      -11.2520   42.7450   18.0330 C.3   990  COA990      0.1519
     34  CDP       -9.9440   41.9670   16.0710 C.3   990  COA990      0.0056
     35  CEP      -11.9770   40.8030   16.8780 C.3   990  COA990      0.0056
     36  CAP       -9.7410   40.6990   18.2150 C.3   990  COA990      0.2312
     37  OAP       -9.9380   40.9030   19.5990 O.3   990  COA990     -0.2131
     38  C9P       -9.4480   39.2540   17.8560 C.2   990  COA990      0.2719
     39  O9P       -9.8800   38.7290   16.6320 O.2   990  COA990     -0.2706
     40  N8P       -8.7560   38.5000   18.7130 N.am  990  COA990     -0.2028
     41  C7P       -8.6300   37.0560   18.5530 C.3   990  COA990      0.1248
     42  C6P       -7.4360   36.4260   19.2790 C.3   990  COA990      0.1102
     43  C5P       -6.7590   35.3460   18.4500 C.2   990  COA990      0.2432
     44  O5P       -6.4860   35.5330   17.2510 O.2   990  COA990     -0.2733
     45  N4P       -6.4650   34.2000   19.0700 N.am  990  COA990     -0.2044
     46  C3P       -5.3290   33.3750   18.6880 C.3   990  COA990      0.1276
     47  C2P       -4.0760   33.6980   19.4970 C.3   990  COA990      0.0920
     48  S1P       -3.4050   32.2700   20.4020 S.3   990  COA990     -0.0802
@<TRIPOS>BOND
     1    34    32    1
     2    39    38    2
     3    35    32    1
     4    44    43    2
     5    32    33    1
     6    32    36    1
     7    38    36    1
     8    38    40   am
     9    33    31    1
    10    30    28    2
    11    36    37    1
    12    43    45   am
    13    43    42    1
    14    41    40    1
    15    41    42    1
    16    46    45    1
    17    46    47    1
    18    31    28    1
    19    29    28    1
    20    28    27    1
    21    47    48    1
    22     7     6    1
    23    27    24    1
    24     6     5    1
    25     6     1    2
    26     8     5    2
    27     8     9    1
    28    26    24    2
    29    13    12    1
    30     5     4    1
    31     1     2    1
    32     9    10    1
    33    24    25    1
    34    24    23    1
    35    12    14    1
    36    12    11    1
    37     4    10    1
    38     4     3    2
    39     2     3    1
    40    10    11    1
    41    14    15    1
    42    14    20    1
    43    23    22    1
    44    11    21    1
    45    22    20    1
    46    18    16    2
    47    15    16    1
    48    20    21    1
    49    16    17    1
    50    16    19    1
