@<TRIPOS>MOLECULE
2p2h_994_A_1.pdb
 32 35 0 0 0
SMALL
GASTEIGER

@<TRIPOS>ATOM
      1  C1        11.2070   18.0550   41.2510 C.ar  501  994501      0.2061
      2  C2        10.5650   19.0310   42.0780 C.ar  501  994501      0.1768
      3  C3         9.2250   18.7980   42.4990 C.ar  501  994501      0.0576
      4  C4         8.5120   17.6090   42.1120 C.ar  501  994501      0.0888
      5  C5         9.1750   16.6600   41.2920 C.ar  501  994501      0.0576
      6  C6        10.5070   16.8580   40.8540 C.ar  501  994501      0.1768
      7  N9         7.2000   17.2980   42.4690 N.pl3 501  994501     -0.1352
      8  C10        6.4540   17.7350   43.5410 C.1   501  994501      0.1766
      9  N11        6.9550   18.6170   44.4240 N.2   501  994501     -0.2822
     10  C12        6.2110   19.0520   45.5060 C.1   501  994501      0.1003
     11  N13        4.9450   18.5160   45.5900 N.2   501  994501     -0.1811
     12  C14        4.5250   17.6450   44.6640 C.3   501  994501      0.2741
     13  N15        5.2350   17.2120   43.6150 N.2   501  994501     -0.1675
     14  O17       11.0760   15.8530   40.0470 O.3   501  994501     -0.4682
     15  C18       11.0390   16.1480   38.6610 C.3   501  994501      0.2526
     16  O22       12.5140   18.2690   40.8410 O.3   501  994501     -0.4654
     17  C23       13.4330   17.7260   41.7940 C.3   501  994501      0.2528
     18  O27       11.2800   20.2040   42.4630 O.3   501  994501     -0.4682
     19  C28       10.4860   21.3920   42.6220 C.3   501  994501      0.2526
     20  C32        6.8040   20.0490   46.4950 C.ar  501  994501      0.1079
     21  C33        8.1210   20.5080   46.2680 C.ar  501  994501      0.0155
     22  C34        8.7540   21.4340   47.1260 C.ar  501  994501      0.0215
     23  C35        8.0410   21.9060   48.2370 C.ar  501  994501      0.1004
     24  N36        6.7810   21.4880   48.4910 N.ar  501  994501     -0.2267
     25  C37        6.1490   20.5770   47.6580 C.ar  501  994501      0.1621
     26  N41        4.8730   20.1930   47.9810 N.pl3 501  994501     -0.1936
     27  C42        4.3180   20.2880   49.2270 C.ar  501  994501      0.0721
     28  C43        3.5190   21.4000   49.6120 C.ar  501  994501      0.0166
     29  C44        2.9630   21.4660   50.9160 C.ar  501  994501      0.0013
     30  C45        3.2090   20.4150   51.8380 C.ar  501  994501      0.0001
     31  C46        4.0070   19.3050   51.4560 C.ar  501  994501      0.0013
     32  C47        4.5590   19.2430   50.1570 C.ar  501  994501      0.0166
@<TRIPOS>BOND
     1    15    14    1
     2    14     6    1
     3    16     1    1
     4    16    17    1
     5     6     1   ar
     6     6     5   ar
     7     1     2   ar
     8     5     4   ar
     9     2    18    1
    10     2     3   ar
    11     4     7    1
    12     4     3   ar
    13    18    19    1
    14     7     8    1
    15     8    13    2
    16     8     9    2
    17    13    12    1
    18     9    10    2
    19    12    11    1
    20    10    11    2
    21    10    20    1
    22    21    20   ar
    23    21    22   ar
    24    20    25   ar
    25    22    23   ar
    26    25    26    1
    27    25    24   ar
    28    26    27    1
    29    23    24   ar
    30    27    28   ar
    31    27    32   ar
    32    28    29   ar
    33    32    31   ar
    34    29    30   ar
    35    31    30   ar
