@<TRIPOS>MOLECULE
2p2i_608_A_1.pdb
 30 33 0 0 0
SMALL
GASTEIGER

@<TRIPOS>ATOM
      1  C10       39.0830   38.0740   10.2210 C.ar  501  608501      0.0388
      2  C11       38.4520   36.8620   10.6480 C.ar  501  608501      0.0197
      3  C12       37.5400   36.9260   11.7810 C.ar  501  608501      0.0739
      4  C13       37.2160   38.1350   12.5220 C.ar  501  608501      0.0197
      5  C14       37.8490   39.3560   12.0980 C.ar  501  608501      0.0388
      6  C15       38.7700   39.2990   10.9530 C.ar  501  608501      0.1454
      7  C16       39.9550   29.0860   11.2910 C.ar  501  608501      0.0986
      8  N4        40.3640   27.9400   11.9980 N.ar  501  608501     -0.2423
      9  C17       39.4910   30.1940   12.0660 C.ar  501  608501      0.0181
     10  C18       39.5020   29.9880   13.5080 C.ar  501  608501      0.0025
     11  C8        39.9310   28.7730   14.1930 C.ar  501  608501      0.0181
     12  C9        40.3810   27.7150   13.3640 C.ar  501  608501      0.0986
     13  C19       36.6970   33.5070   12.7930 C.ar  501  608501      0.0883
     14  C20       35.3090   33.5010   12.3840 C.ar  501  608501      0.0090
     15  C21       34.4750   32.3620   12.5770 C.ar  501  608501      0.0209
     16  C22       35.0560   31.2070   13.1990 C.ar  501  608501      0.1004
     17  N3        36.3690   31.2060   13.5950 N.ar  501  608501     -0.2276
     18  C23       37.1910   32.3220   13.4080 C.ar  501  608501      0.1522
     19  N1        38.4940   32.2980   13.8100 N.pl3 501  608501     -0.2153
     20  C7        39.0620   31.1190   14.4470 C.3   501  608501      0.1403
     21  C24       37.5690   34.6710   12.5260 C.2   501  608501      0.2717
     22  N2        36.9230   35.8070   12.2220 N.am  501  608501     -0.1754
     23  O1        38.7950   34.6450   12.5520 O.2   501  608501     -0.2679
     24  O2        39.4620   40.4250   10.4230 O.3   501  608501     -0.4535
     25  C1        39.1060   43.8750   11.8670 C.ar  501  608501      0.0031
     26  C2        38.3180   44.4460   10.7820 C.ar  501  608501      0.0002
     27  C3        37.8980   43.7040    9.5990 C.ar  501  608501      0.0031
     28  C4        38.2810   42.3120    9.4800 C.ar  501  608501      0.0375
     29  C5        39.0680   41.7400   10.5530 C.ar  501  608501      0.1453
     30  C6        39.4850   42.4880   11.7400 C.ar  501  608501      0.0375
@<TRIPOS>BOND
     1    28    27   ar
     2    28    29   ar
     3    27    26   ar
     4     1     2   ar
     5     1     6   ar
     6    24    29    1
     7    24     6    1
     8    29    30   ar
     9     2     3   ar
    10    26    25   ar
    11     6     5   ar
    12     7     8   ar
    13     7     9   ar
    14    30    25   ar
    15     3    22    1
    16     3     4   ar
    17     8    12   ar
    18     9    10   ar
    19     5     4   ar
    20    22    21   am
    21    14    15   ar
    22    14    13   ar
    23    21    23    2
    24    21    13    1
    25    15    16   ar
    26    13    18   ar
    27    16    17   ar
    28    12    11   ar
    29    18    17   ar
    30    18    19    1
    31    10    11   ar
    32    10    20    1
    33    19    20    1
