@<TRIPOS>MOLECULE
2p2j_COA_A_1.pdb
 48 50 0 0 0
SMALL
GASTEIGER

@<TRIPOS>ATOM
      1  N1A       -1.7770   45.1980   22.1140 N.2   990  COA990      0.0021
      2  C2A       -2.3250   46.1750   22.9300 C.3   990  COA990      0.5254
      3  N3A       -3.6810   46.2090   23.2040 N.2   990  COA990     -0.0055
      4  C4A       -4.4880   45.2800   22.6590 C.2   990  COA990      0.3518
      5  C5A       -3.9710   44.2840   21.8310 C.2   990  COA990      0.2526
      6  C6A       -2.6010   44.2440   21.5560 C.2   990  COA990      0.4393
      7  N6A       -2.1020   43.3770   20.6850 N.pl3 990  COA990      0.2180
      8  N7A       -5.0030   43.4940   21.4510 N.2   990  COA990     -0.2095
      9  C8A       -6.1440   43.9670   21.9990 C.3   990  COA990      0.3377
     10  N9A       -5.8360   45.0740   22.7450 N.pl3 990  COA990     -0.1439
     11  C1B       -6.7780   45.8740   23.5390 C.3   990  COA990      0.3185
     12  C2B       -7.8100   46.5650   22.6560 C.3   990  COA990      0.2543
     13  O2B       -7.3200   47.7760   22.1070 O.3   990  COA990     -0.2131
     14  C3B       -8.9340   46.7560   23.6510 C.3   990  COA990      0.1928
     15  O3B       -8.5750   47.8230   24.4910 O.3   990  COA990     -0.2673
     16  P3B       -9.6230   48.9220   25.0070 P.3   990  COA990      0.5327
     17  O7A       -8.8270   49.9380   25.7970 O.3   990  COA990     -0.1145
     18  O8A      -10.2980   49.5580   23.8020 O.2   990  COA990     -0.2224
     19  O9A      -10.6530   48.2520   25.8930 O.3   990  COA990     -0.1145
     20  C4B       -8.8590   45.5220   24.5310 C.3   990  COA990      0.1795
     21  O4B       -7.5210   45.0450   24.4200 O.3   990  COA990     -0.3136
     22  C5B       -9.8990   44.4520   24.1760 C.3   990  COA990      0.1812
     23  O5B       -9.4970   43.7210   23.0280 O.3   990  COA990     -0.3112
     24  P1A      -10.5030   42.7320   22.2250 P.3   990  COA990      0.2189
     25  O1A      -11.6130   42.1970   23.1130 O.3   990  COA990     -0.4371
     26  O2A       -9.7190   41.6170   21.5870 O.2   990  COA990     -0.5170
     27  O3A      -11.1900   43.7070   21.1490 O.3   990  COA990     -0.2703
     28  P2A      -10.5280   43.9820   19.7130 P.3   990  COA990      0.2188
     29  O4A       -9.2380   44.7130   19.9550 O.3   990  COA990     -0.4371
     30  O5A      -11.4890   44.7650   18.8380 O.2   990  COA990     -0.5170
     31  O6A      -10.2270   42.5300   19.0720 O.3   990  COA990     -0.3138
     32  CBP      -10.7080   40.3410   18.1070 C.3   990  COA990      0.0645
     33  CCP      -11.2670   41.6590   18.6620 C.3   990  COA990      0.1519
     34  CDP      -10.1240   40.6380   16.7230 C.3   990  COA990      0.0056
     35  CEP      -11.8890   39.3980   17.9150 C.3   990  COA990      0.0056
     36  CAP       -9.6570   39.7350   19.0760 C.3   990  COA990      0.2312
     37  OAP      -10.1490   39.6480   20.4030 O.3   990  COA990     -0.2131
     38  C9P       -9.0030   38.4280   18.6750 C.2   990  COA990      0.2719
     39  O9P       -8.3210   38.3000   17.4500 O.2   990  COA990     -0.2706
     40  N8P       -9.0770   37.4180   19.5480 N.am  990  COA990     -0.2028
     41  C7P       -8.7120   36.0530   19.2060 C.3   990  COA990      0.1248
     42  C6P       -7.4770   35.5400   19.9480 C.3   990  COA990      0.1102
     43  C5P       -6.6940   34.6130   19.0390 C.2   990  COA990      0.2432
     44  O5P       -6.0360   35.0860   18.0870 O.2   990  COA990     -0.2733
     45  N4P       -6.7540   33.3030   19.3140 N.am  990  COA990     -0.2044
     46  C3P       -5.5990   32.4200   19.2370 C.3   990  COA990      0.1276
     47  C2P       -4.3600   33.0180   19.9030 C.3   990  COA990      0.0920
     48  S1P       -3.3050   31.7930   20.7170 S.3   990  COA990     -0.0802
@<TRIPOS>BOND
     1    34    32    1
     2    39    38    2
     3    35    32    1
     4    44    43    2
     5    32    33    1
     6    32    36    1
     7    33    31    1
     8    38    36    1
     9    38    40   am
    10    30    28    2
    11    43    45   am
    12    43    42    1
    13    31    28    1
    14    36    37    1
    15    41    40    1
    16    41    42    1
    17    46    45    1
    18    46    47    1
    19    28    29    1
    20    28    27    1
    21    47    48    1
    22     7     6    1
    23    27    24    1
    24     8     5    2
    25     8     9    1
    26     6     5    1
    27     6     1    2
    28    26    24    2
    29     5     4    1
    30     9    10    1
    31    13    12    1
    32     1     2    1
    33    24    23    1
    34    24    25    1
    35    12    11    1
    36    12    14    1
    37     4    10    1
    38     4     3    2
    39    10    11    1
    40     2     3    1
    41    23    22    1
    42    11    21    1
    43    14    15    1
    44    14    20    1
    45    18    16    2
    46    22    20    1
    47    21    20    1
    48    15    16    1
    49    16    17    1
    50    16    19    1
