@<TRIPOS>MOLECULE
2p2j_PRX_A_1.pdb
 26 28 0 0 0
SMALL
GASTEIGER

@<TRIPOS>ATOM
      1  O2'       -9.8680   24.9940   25.9760 O.3   999  PRX999     -0.2130
      2  C2'       -9.0340   24.7760   24.8250 C.3   999  PRX999      0.2570
      3  C1'       -9.1000   26.0270   23.9790 C.3   999  PRX999      0.3186
      4  O4'       -7.9430   26.8040   24.3180 O.3   999  PRX999     -0.3135
      5  C4'       -7.1700   26.1500   25.3270 C.3   999  PRX999      0.1821
      6  C5'       -5.6820   26.3250   25.1010 C.3   999  PRX999      0.1813
      7  O5'       -5.3630   27.7020   25.2330 O.3   999  PRX999     -0.3114
      8  P         -3.8870   28.2140   24.8730 P.3   999  PRX999      0.2141
      9  O1P       -2.9430   27.3110   25.6190 O.3   999  PRX999     -0.4373
     10  O2P       -3.9000   29.6910   25.1430 O.2   999  PRX999     -0.5172
     11  O3P       -3.6600   27.9290   23.3140 O.3   999  PRX999     -0.3141
     12  C1P       -4.5380   28.4510   22.3240 C.3   999  PRX999      0.1491
     13  C2P       -3.9930   28.0990   20.9500 C.3   999  PRX999      0.0325
     14  C3P       -4.4240   26.6940   20.5510 C.3   999  PRX999      0.0027
     15  C3'       -7.5500   24.6960   25.1680 C.3   999  PRX999      0.2184
     16  O3'       -7.2330   23.9340   26.3400 O.3   999  PRX999     -0.2174
     17  N9        -9.0150   25.6610   22.5470 N.pl3 999  PRX999     -0.1439
     18  C8        -7.9560   25.8580   21.7430 C.3   999  PRX999      0.3377
     19  N7        -8.2630   25.4040   20.5090 N.2   999  PRX999     -0.2095
     20  C5        -9.5220   24.9310   20.5480 C.2   999  PRX999      0.2526
     21  C4        -9.9910   25.0890   21.8400 C.2   999  PRX999      0.3518
     22  N3       -11.2570   24.6840   22.1590 N.2   999  PRX999     -0.0055
     23  C2       -12.0330   24.1270   21.2120 C.3   999  PRX999      0.5254
     24  N1       -11.6080   23.9720   19.9520 N.2   999  PRX999      0.0021
     25  C6       -10.3610   24.3570   19.5980 C.2   999  PRX999      0.4393
     26  N6        -9.9270   24.1890   18.3310 N.pl3 999  PRX999      0.2180
@<TRIPOS>BOND
     1    26    25    1
     2    25    24    2
     3    25    20    1
     4    24    23    1
     5    19    20    2
     6    19    18    1
     7    20    21    1
     8    14    13    1
     9    13    12    1
    10    23    22    1
    11    18    17    1
    12    21    22    2
    13    21    17    1
    14    12    11    1
    15    17     3    1
    16    11     8    1
    17     3     4    1
    18     3     2    1
    19     4     5    1
    20     2    15    1
    21     2     1    1
    22     8    10    2
    23     8     7    1
    24     8     9    1
    25     6     7    1
    26     6     5    1
    27    15     5    1
    28    15    16    1
