@<TRIPOS>MOLECULE
2p2l_GDP_A_1.pdb
 28 30 0 0 0
SMALL
GASTEIGER

@<TRIPOS>ATOM
      1  PB       -13.5890   11.6480  -11.6140 P.3   200  GDP200      0.5373
      2  O1B      -14.8660   11.3670  -12.3960 O.2   200  GDP200     -0.2221
      3  O2B      -12.4700   10.7430  -12.0450 O.3   200  GDP200     -0.1143
      4  O3B      -13.2600   13.0800  -11.5720 O.3   200  GDP200     -0.1143
      5  O3A      -13.8820   11.1330  -10.0990 O.3   200  GDP200     -0.2261
      6  PA       -14.2680   12.1130   -8.8440 P.3   200  GDP200      0.2231
      7  O1A      -13.0570   12.8160   -8.3230 O.3   200  GDP200     -0.4370
      8  O2A      -15.4810   12.9680   -9.1140 O.2   200  GDP200     -0.5169
      9  O5'      -14.6490   10.9700   -7.7440 O.3   200  GDP200     -0.3111
     10  C5'      -15.6360    9.9580   -8.0880 C.3   200  GDP200      0.1813
     11  C4'      -16.1290    9.2240   -6.8490 C.3   200  GDP200      0.1799
     12  O4'      -15.0270    8.5560   -6.1910 O.3   200  GDP200     -0.3326
     13  C3'      -16.7720   10.1830   -5.8540 C.3   200  GDP200      0.2158
     14  O3'      -17.8920    9.5440   -5.1930 O.3   200  GDP200     -0.2175
     15  C2'      -15.6760   10.4500   -4.8940 C.3   200  GDP200      0.2310
     16  O2'      -16.1020   10.8620   -3.5770 O.3   200  GDP200     -0.2158
     17  C1'      -14.9570    9.1070   -4.8680 C.3   200  GDP200      0.2293
     18  N9       -13.5440    9.2340   -4.5810 N.pl3 200  GDP200     -0.2354
     19  C8       -12.6240    9.9490   -5.2690 C.3   200  GDP200      0.2246
     20  N7       -11.3920    9.7950   -4.7160 N.2   200  GDP200     -0.2322
     21  C5       -11.5410    8.9460   -3.6740 C.2   200  GDP200      0.2182
     22  C6       -10.6440    8.3780   -2.6650 C.1   200  GDP200      0.2372
     23  O6        -9.4130    8.6420   -2.6600 O.2   200  GDP200     -0.2069
     24  N1       -11.2040    7.5460   -1.7680 N.2   200  GDP200     -0.2485
     25  C2       -12.5060    7.2670   -1.7260 C.1   200  GDP200      0.2531
     26  N2       -12.9360    6.4300   -0.7690 N.pl3 200  GDP200     -0.0226
     27  N3       -13.4130    7.7620   -2.6190 N.2   200  GDP200     -0.3074
     28  C4       -12.9480    8.5770   -3.5820 C.2   200  GDP200      0.2300
@<TRIPOS>BOND
     1     2     1    2
     2     3     1    1
     3     1     4    1
     4     1     5    1
     5     5     6    1
     6     8     6    2
     7     6     7    1
     8     6     9    1
     9    10     9    1
    10    10    11    1
    11    11    12    1
    12    11    13    1
    13    12    17    1
    14    13    14    1
    15    13    15    1
    16    19    20    1
    17    19    18    1
    18    15    17    1
    19    15    16    1
    20    17    18    1
    21    20    21    2
    22    18    28    1
    23    21    28    1
    24    21    22    1
    25    28    27    2
    26    22    23    2
    27    22    24    2
    28    27    25    2
    29    24    25    2
    30    25    26    1
