@<TRIPOS>MOLECULE
2p2m_PRX_A_1.pdb
 26 28 0 0 0
SMALL
GASTEIGER

@<TRIPOS>ATOM
      1  O2'       -9.7160   26.3330   25.5790 O.3   998  PRX998     -0.2130
      2  C2'       -8.8380   26.1010   24.4730 C.3   998  PRX998      0.2570
      3  C1'       -8.8860   27.3510   23.6220 C.3   998  PRX998      0.3186
      4  O4'       -7.7470   28.1570   23.9810 O.3   998  PRX998     -0.3135
      5  C4'       -6.9750   27.5000   24.9840 C.3   998  PRX998      0.1821
      6  C5'       -5.4830   27.7290   24.7650 C.3   998  PRX998      0.1813
      7  O5'       -5.2270   29.1330   24.7050 O.3   998  PRX998     -0.3114
      8  P         -3.7220   29.6510   24.4840 P.3   998  PRX998      0.2141
      9  O1P       -2.7960   28.7680   25.2860 O.3   998  PRX998     -0.4373
     10  O2P       -3.7350   31.1500   24.6490 O.2   998  PRX998     -0.5172
     11  O3P       -3.4490   29.3180   22.9330 O.3   998  PRX998     -0.3141
     12  C1P       -4.2010   29.9050   21.8770 C.3   998  PRX998      0.1491
     13  C2P       -3.6590   29.3270   20.5750 C.3   998  PRX998      0.0325
     14  C3P       -4.1760   27.9340   20.3350 C.3   998  PRX998      0.0027
     15  C3'       -7.3770   26.0390   24.8770 C.3   998  PRX998      0.2184
     16  O3'       -7.1760   25.3110   26.0880 O.3   998  PRX998     -0.2174
     17  N9        -8.8510   26.9410   22.1950 N.pl3 998  PRX998     -0.1439
     18  C8        -7.8110   27.0690   21.3740 C.3   998  PRX998      0.3377
     19  N7        -8.1570   26.5930   20.1600 N.2   998  PRX998     -0.2095
     20  C5        -9.4300   26.1570   20.2230 C.2   998  PRX998      0.2526
     21  C4        -9.8700   26.3770   21.5130 C.2   998  PRX998      0.3518
     22  N3       -11.1330   26.0030   21.8530 N.2   998  PRX998     -0.0055
     23  C2       -11.9560   25.4480   20.9460 C.3   998  PRX998      0.5254
     24  N1       -11.5480   25.2270   19.6850 N.2   998  PRX998      0.0021
     25  C6       -10.2980   25.5790   19.2980 C.2   998  PRX998      0.4393
     26  N6        -9.8830   25.3750   18.0280 N.pl3 998  PRX998      0.2180
@<TRIPOS>BOND
     1    26    25    1
     2    25    24    2
     3    25    20    1
     4    24    23    1
     5    19    20    2
     6    19    18    1
     7    20    21    1
     8    14    13    1
     9    13    12    1
    10    23    22    1
    11    18    17    1
    12    21    22    2
    13    21    17    1
    14    12    11    1
    15    17     3    1
    16    11     8    1
    17     3     4    1
    18     3     2    1
    19     4     5    1
    20     2    15    1
    21     2     1    1
    22     8    10    2
    23     8     7    1
    24     8     9    1
    25     7     6    1
    26     6     5    1
    27    15     5    1
    28    15    16    1
