@<TRIPOS>MOLECULE
2p2q_PRX_A_1.pdb
 26 28 0 0 0
SMALL
GASTEIGER

@<TRIPOS>ATOM
      1  O2'       -9.6980   26.3940   25.8390 O.3   999  PRX999     -0.2130
      2  C2'       -8.8690   26.0840   24.7160 C.3   999  PRX999      0.2570
      3  C1'       -8.8620   27.3230   23.8170 C.3   999  PRX999      0.3186
      4  O4'       -7.6960   28.0790   24.1410 O.3   999  PRX999     -0.3135
      5  C4'       -6.9160   27.3700   25.1140 C.3   999  PRX999      0.1821
      6  C5'       -5.4440   27.5180   24.7770 C.3   999  PRX999      0.1813
      7  O5'       -5.2240   28.9210   24.8240 O.3   999  PRX999     -0.3114
      8  P         -3.7710   29.5870   24.6300 P.3   999  PRX999      0.2141
      9  O1P       -2.7500   28.8070   25.4070 O.3   999  PRX999     -0.4373
     10  O2P       -3.8870   31.0730   24.8170 O.2   999  PRX999     -0.5172
     11  O3P       -3.4730   29.3100   23.0650 O.3   999  PRX999     -0.3141
     12  C1P       -4.3330   29.7690   22.0180 C.3   999  PRX999      0.1491
     13  C2P       -3.7580   29.1920   20.7390 C.3   999  PRX999      0.0325
     14  C3P       -4.1960   27.7750   20.5280 C.3   999  PRX999      0.0027
     15  C3'       -7.4090   25.9230   25.0950 C.3   999  PRX999      0.2184
     16  O3'       -7.2030   25.1970   26.3160 O.3   999  PRX999     -0.2174
     17  N9        -8.8500   26.9180   22.3820 N.pl3 999  PRX999     -0.1439
     18  C8        -7.8380   27.1020   21.5330 C.3   999  PRX999      0.3377
     19  N7        -8.1850   26.6050   20.3270 N.2   999  PRX999     -0.2095
     20  C5        -9.4340   26.1000   20.4260 C.2   999  PRX999      0.2526
     21  C4        -9.8560   26.3020   21.7330 C.2   999  PRX999      0.3518
     22  N3       -11.1030   25.8690   22.1170 N.2   999  PRX999     -0.0055
     23  C2       -11.8980   25.2770   21.2210 C.3   999  PRX999      0.5254
     24  N1       -11.5190   25.0920   19.9430 N.2   999  PRX999      0.0021
     25  C6       -10.3000   25.4850   19.5120 C.2   999  PRX999      0.4393
     26  N6        -9.9260   25.2830   18.2120 N.pl3 999  PRX999      0.2180
@<TRIPOS>BOND
     1    26    25    1
     2    25    24    2
     3    25    20    1
     4    24    23    1
     5    19    20    2
     6    19    18    1
     7    20    21    1
     8    14    13    1
     9    13    12    1
    10    23    22    1
    11    18    17    1
    12    21    22    2
    13    21    17    1
    14    12    11    1
    15    17     3    1
    16    11     8    1
    17     3     4    1
    18     3     2    1
    19     4     5    1
    20     8    10    2
    21     8     7    1
    22     8     9    1
    23     2    15    1
    24     2     1    1
    25     6     7    1
    26     6     5    1
    27    15     5    1
    28    15    16    1
