@<TRIPOS>MOLECULE
2p2v_CSF_A_1.pdb
 42 44 0 0 0
SMALL
GASTEIGER

@<TRIPOS>ATOM
      1  C5A       28.4300   13.7960  -12.3150 C.3   1001  CSF1001     0.1582
      2  C4A       28.7500   15.1010  -11.5950 C.3   1001  CSF1001     0.2121
      3  C2A       28.4220   13.9510   -9.3280 C.3   1001  CSF1001     0.3216
      4  O6A       28.2540   12.7390  -10.0950 O.3   1001  CSF1001    -0.3217
      5  C6A       28.8680   12.6330  -11.4060 C.3   1001  CSF1001     0.1735
      6  C3A       28.0920   15.1560  -10.2080 C.3   1001  CSF1001     0.2551
      7  O4A       28.2270   16.1840  -12.3510 O.3   1001  CSF1001    -0.2181
      8  N5A       29.2330   13.7950  -13.5570 N.am  1001  CSF1001    -0.2019
      9  C7A       28.4690   11.2770  -11.9760 C.3   1001  CSF1001     0.2135
     10  C8A       28.8840   10.1510  -11.0360 C.3   1001  CSF1001     0.2173
     11  C9A       28.4000    8.7750  -11.5380 C.3   1001  CSF1001     0.2175
     12  O9A       28.8930    7.6980  -10.7070 O.3   1001  CSF1001    -0.2175
     13  O8A       30.3340   10.2090  -10.8530 O.3   1001  CSF1001    -0.2175
     14  O7A       27.0530   11.2850  -12.2340 O.3   1001  CSF1001    -0.2176
     15  C1A       27.4030   13.9880   -8.1980 C.2   1001  CSF1001     0.4183
     16  OBA       27.2570   15.0950   -7.6070 O.co2 1001  CSF1001    -0.2401
     17  OAA       26.7750   12.9320   -7.9120 O.co2 1001  CSF1001    -0.2401
     18  O1A       29.6990   14.1180   -8.6680 O.3   1001  CSF1001    -0.2813
     19  O2A       31.8090   14.2570   -9.9520 O.2   1001  CSF1001    -0.5171
     20  N1        33.3990   17.2740   -6.2980 N.am  1001  CSF1001    -0.1778
     21  C2        33.7000   18.6700   -6.3120 C.1   1001  CSF1001     0.2756
     22  N3        34.6320   19.1710   -7.1760 N.2   1001  CSF1001    -0.3024
     23  C4        35.2920   18.3350   -8.0090 C.2   1001  CSF1001     0.2346
     24  C5        35.0140   16.9620   -8.0080 C.2   1001  CSF1001     0.0687
     25  C6        34.0590   16.4480   -7.1350 C.2   1001  CSF1001     0.0836
     26  C3'       30.3670   15.7830   -6.0820 C.3   1001  CSF1001     0.2158
     27  C2'       30.9540   17.1120   -5.6480 C.3   1001  CSF1001     0.2319
     28  C1'       32.4050   16.7410   -5.3410 C.3   1001  CSF1001     0.2400
     29  O4'       32.5110   15.3040   -5.2350 O.3   1001  CSF1001    -0.3320
     30  C4'       31.2280   14.7090   -5.4290 C.3   1001  CSF1001     0.1799
     31  PA        31.1330   13.3900   -8.9180 P.3   1001  CSF1001     0.2163
     32  O5'       31.9240   13.6550   -7.5220 O.3   1001  CSF1001    -0.3113
     33  C5'       31.3330   13.4220   -6.2450 C.3   1001  CSF1001     0.1813
     34  O3'       29.0330   15.6430   -5.6050 O.3   1001  CSF1001    -0.2175
     35  O2'       30.2830   17.5870   -4.4490 O.3   1001  CSF1001    -0.2157
     36  N4        36.2360   18.8150   -8.8750 N.pl3 1001  CSF1001    -0.0921
     37  O2        33.0650   19.4420   -5.5410 O.2   1001  CSF1001    -0.1925
     38  O3A       31.0440   11.8970   -9.0500 O.3   1001  CSF1001    -0.4372
     39  C10       28.7040   13.1910  -14.6360 C.2   1001  CSF1001     0.2420
     40  O10       27.6000   12.6260  -14.6320 O.2   1001  CSF1001    -0.2733
     41  C11       29.5650   13.2260  -15.8780 C.3   1001  CSF1001     0.0964
     42  F3A       26.7220   15.1930  -10.3400 F     1001  CSF1001    -0.2285
@<TRIPOS>BOND
     1    41    39    1
     2    39    40    2
     3    39     8   am
     4     8     1    1
     5     7     2    1
     6     1     2    1
     7     1     5    1
     8    14     9    1
     9     9     5    1
    10     9    10    1
    11     2     6    1
    12    11    10    1
    13    11    12    1
    14     5     4    1
    15    10    13    1
    16    42     6    1
    17     6     3    1
    18     4     3    1
    19    19    31    2
    20     3    18    1
    21     3    15    1
    22    38    31    1
    23    31    18    1
    24    31    32    1
    25    36    23    1
    26    15    17   ar
    27    15    16   ar
    28    23    24    1
    29    23    22    2
    30    24    25    2
    31    32    33    1
    32    22    21    2
    33    25    20    1
    34    21    20   am
    35    21    37    2
    36    20    28    1
    37    33    30    1
    38    26    27    1
    39    26    34    1
    40    26    30    1
    41    27    28    1
    42    27    35    1
    43    30    29    1
    44    28    29    1
