@<TRIPOS>MOLECULE
2p2w_FLC_A_1.pdb
 13 12 0 0 0
SMALL
GASTEIGER

@<TRIPOS>ATOM
      1  CAC       12.2000   52.7890    8.6590 C.2   401  FLC401      0.3680
      2  CA        12.5550   52.5920   10.1360 C.3   401  FLC401      0.1560
      3  CB        12.7740   53.8980   10.9070 C.3   401  FLC401      0.2402
      4  CBC       13.2310   53.5320   12.3210 C.2   401  FLC401      0.3927
      5  CG        11.4720   54.7070   10.9560 C.3   401  FLC401      0.1560
      6  CGC       11.5740   56.0250   11.7310 C.2   401  FLC401      0.3680
      7  OA1       12.7980   53.6910    8.0330 O.co2 401  FLC401     -0.2455
      8  OA2       11.3420   52.0140    8.1850 O.co2 401  FLC401     -0.2455
      9  OB1       12.3450   53.2540   13.1570 O.co2 401  FLC401     -0.2429
     10  OB2       14.4640   53.5190   12.5300 O.co2 401  FLC401     -0.2429
     11  OG1       10.5550   56.7490   11.7350 O.co2 401  FLC401     -0.2455
     12  OG2       12.6490   56.2840   12.3160 O.co2 401  FLC401     -0.2455
     13  OHB       13.7900   54.6650   10.2540 O.3   401  FLC401     -0.2129
@<TRIPOS>BOND
     1     7     1   ar
     2     8     1   ar
     3     1     2    1
     4     2     3    1
     5    13     3    1
     6     3     5    1
     7     3     4    1
     8     5     6    1
     9     6    11   ar
    10     6    12   ar
    11     4    10   ar
    12     4     9   ar
