@<TRIPOS>MOLECULE
2p2x_SAH_A_1.pdb
 26 28 0 0 0
SMALL
GASTEIGER

@<TRIPOS>ATOM
      1  N         34.2990   92.9620   68.4160 N.3   301  SAH301     -0.1208
      2  CA        32.9080   92.6870   68.0270 C.3   301  SAH301      0.1952
      3  CB        32.1510   92.0750   69.2080 C.3   301  SAH301      0.0422
      4  CG        32.7970   90.7660   69.6670 C.3   301  SAH301      0.0597
      5  SD        31.8970   89.9720   71.0480 S.3   301  SAH301     -0.1375
      6  C         32.2420   94.0010   67.6160 C.2   301  SAH301      0.3819
      7  O         32.9260   95.0140   67.4730 O.co2 301  SAH301     -0.2441
      8  OXT       31.0280   94.0600   67.4270 O.co2 301  SAH301     -0.2441
      9  C5'       30.7620   88.8770   70.1190 C.3   301  SAH301      0.0899
     10  C4'       29.3290   88.8870   70.6550 C.3   301  SAH301      0.1630
     11  O4'       28.6950   90.1610   70.4440 O.3   301  SAH301     -0.3153
     12  C3'       28.4580   87.8730   69.9150 C.3   301  SAH301      0.2168
     13  O3'       28.5850   86.5990   70.5520 O.3   301  SAH301     -0.2175
     14  C2'       27.0800   88.4530   70.2240 C.3   301  SAH301      0.2569
     15  O2'       26.7550   88.2510   71.6020 O.3   301  SAH301     -0.2130
     16  C1'       27.3560   89.9360   69.9620 C.3   301  SAH301      0.3185
     17  N9        27.3380   90.2410   68.5120 N.pl3 301  SAH301     -0.1439
     18  C8        28.4100   90.4530   67.7510 C.3   301  SAH301      0.3377
     19  N7        28.0310   90.7600   66.5130 N.2   301  SAH301     -0.2095
     20  C5        26.7020   90.7390   66.4820 C.2   301  SAH301      0.2526
     21  C6        25.7520   90.9720   65.4960 C.2   301  SAH301      0.4393
     22  N6        26.1320   91.2990   64.2630 N.pl3 301  SAH301      0.2180
     23  N1        24.4510   90.8650   65.8050 N.2   301  SAH301      0.0021
     24  C2        24.0620   90.5450   67.0280 C.3   301  SAH301      0.5254
     25  N3        24.9410   90.3170   67.9890 N.2   301  SAH301     -0.0055
     26  C4        26.2580   90.4050   67.7540 C.2   301  SAH301      0.3518
@<TRIPOS>BOND
     1    22    21    1
     2    21    23    2
     3    21    20    1
     4    23    24    1
     5    20    19    2
     6    20    26    1
     7    19    18    1
     8    24    25    1
     9     8     6   ar
    10     7     6   ar
    11     6     2    1
    12    18    17    1
    13    26    25    2
    14    26    17    1
    15     2     1    1
    16     2     3    1
    17    17    16    1
    18     3     4    1
    19     4     5    1
    20    12    14    1
    21    12    13    1
    22    12    10    1
    23    16    14    1
    24    16    11    1
    25     9    10    1
    26     9     5    1
    27    14    15    1
    28    11    10    1
