@<TRIPOS>MOLECULE
2p33_J07_A_1.pdb
 28 31 0 0 0
SMALL
GASTEIGER

@<TRIPOS>ATOM
      1  C01       29.1850    4.5930   29.2020 C.3   507  J07507      0.0253
      2  C02       28.4270    5.0480   27.9700 C.3   507  J07507      0.1168
      3  N03       26.9940    4.8280   28.1280 N.am  507  J07507     -0.1884
      4  C04       26.1190    5.8870   28.0050 C.2   507  J07507      0.3232
      5  O05       25.9170    6.4400   26.9220 O.2   507  J07507     -0.2508
      6  N06       25.4790    6.2960   29.2120 N.am  507  J07507     -0.2628
      7  C07       24.5380    7.4400   29.1350 C.3   507  J07507      0.0968
      8  C08       23.1780    7.1060   29.7560 C.3   507  J07507      0.0440
      9  C09       23.3740    6.6250   31.2170 C.3   507  J07507      0.1081
     10  C10       24.2950    5.3720   31.2230 C.3   507  J07507      0.0440
     11  C11       25.6530    5.6990   30.5860 C.3   507  J07507      0.0968
     12  N12       22.0520    6.3120   31.8210 N.pl3 507  J07507     -0.1638
     13  C13       21.1470    7.2600   32.3030 C.1   507  J07507      0.1652
     14  N14       21.4630    8.5710   32.1220 N.2   507  J07507     -0.3358
     15  C15       20.5940    9.5520   32.5890 C.2   507  J07507      0.1543
     16  C16       19.3600    9.2250   33.2570 C.2   507  J07507      0.1078
     17  C17       19.1420    7.8510   33.3800 C.2   507  J07507      0.1257
     18  N18       19.9950    6.8680   32.9200 N.2   507  J07507     -0.1677
     19 CL1        18.1740   10.3030   33.8950 Cl    507  J07507     -0.0779
     20  C20       21.0960   10.9110   32.2930 C.2   507  J07507      0.0377
     21  C21       22.3730   11.2950   31.7860 C.3   507  J07507      0.0884
     22  C22       23.5660   10.5870   31.4090 C.2   507  J07507     -0.0160
     23  C23       24.6810   11.3190   30.9250 C.2   507  J07507     -0.0038
     24  C24       24.6310   12.7280   30.8140 C.2   507  J07507      0.0009
     25  C25       23.4720   13.4510   31.1800 C.2   507  J07507      0.0153
     26  C26       22.3620   12.7120   31.6650 C.2   507  J07507      0.0669
     27  N27       21.1340   13.1470   32.0800 N.2   507  J07507     -0.2477
     28  C28       20.3740   12.0870   32.4550 C.2   507  J07507      0.0974
@<TRIPOS>BOND
     1     5     4    2
     2     2     3    1
     3     2     1    1
     4     4     3   am
     5     4     6   am
     6     7     6    1
     7     7     8    1
     8     6    11    1
     9     8     9    1
    10    11    10    1
    11    24    23    1
    12    24    25    2
    13    23    22    2
    14    25    26    1
    15     9    10    1
    16     9    12    1
    17    22    21    1
    18    26    21    1
    19    26    27    2
    20    21    20    1
    21    12    13    1
    22    27    28    1
    23    14    13    2
    24    14    15    2
    25    20    28    2
    26    20    15    1
    27    13    18    2
    28    15    16    1
    29    18    17    1
    30    16    17    2
    31    16    19    1
