@<TRIPOS>MOLECULE
2p35_SAH_A_1.pdb
 26 28 0 0 0
SMALL
GASTEIGER

@<TRIPOS>ATOM
      1  N         -9.0590   46.5220   11.1590 N.3   301  SAH301     -0.1208
      2  CA       -10.0950   45.7540   10.4360 C.3   301  SAH301      0.1952
      3  CB        -9.7260   44.2690   10.4780 C.3   301  SAH301      0.0422
      4  CG        -9.7910   43.5480    9.1310 C.3   301  SAH301      0.0597
      5  SD        -9.9140   41.7350    9.2350 S.3   301  SAH301     -0.1375
      6  C        -11.4710   45.9480   11.1020 C.2   301  SAH301      0.3819
      7  O        -11.6650   46.7800   12.0000 O.co2 301  SAH301     -0.2441
      8  OXT      -12.4220   45.2460   10.7570 O.co2 301  SAH301     -0.2441
      9  C5'       -8.1790   41.4340    9.6620 C.3   301  SAH301      0.0899
     10  C4'       -7.1740   42.1420    8.7470 C.3   301  SAH301      0.1630
     11  O4'       -5.8880   41.9690    9.3040 O.3   301  SAH301     -0.3153
     12  C3'       -7.1040   41.6280    7.3030 C.3   301  SAH301      0.2168
     13  O3'       -7.0980   42.7350    6.4250 O.3   301  SAH301     -0.2175
     14  C2'       -5.7750   40.9040    7.2060 C.3   301  SAH301      0.2569
     15  O2'       -5.1200   41.0740    5.9700 O.3   301  SAH301     -0.2130
     16  C1'       -4.9750   41.5950    8.2750 C.3   301  SAH301      0.3185
     17  N9        -3.9020   40.7450    8.8080 N.pl3 301  SAH301     -0.1439
     18  C8        -4.0030   39.4760    9.3120 C.3   301  SAH301      0.3377
     19  N7        -2.7750   39.1020    9.7300 N.2   301  SAH301     -0.2095
     20  C5        -1.9030   40.1010    9.4990 C.2   301  SAH301      0.2526
     21  C6        -0.5350   40.2210    9.7050 C.2   301  SAH301      0.4393
     22  N6         0.1660   39.2280   10.2580 N.pl3 301  SAH301      0.2180
     23  N1         0.0780   41.4110    9.3680 N.2   301  SAH301      0.0021
     24  C2        -0.6330   42.4540    8.7980 C.3   301  SAH301      0.5254
     25  N3        -1.9850   42.3070    8.5750 N.2   301  SAH301     -0.0055
     26  C4        -2.6040   41.1500    8.9180 C.2   301  SAH301      0.3518
@<TRIPOS>BOND
     1    15    14    1
     2    13    12    1
     3    14    12    1
     4    14    16    1
     5    12    10    1
     6    16    17    1
     7    16    11    1
     8    25    24    1
     9    25    26    2
    10    10    11    1
    11    10     9    1
    12    24    23    1
    13    17    26    1
    14    17    18    1
    15    26    20    1
    16     4     5    1
    17     4     3    1
    18     5     9    1
    19    18    19    1
    20    23    21    2
    21    20    21    1
    22    20    19    2
    23    21    22    1
    24     2     3    1
    25     2     6    1
    26     2     1    1
    27     8     6   ar
    28     6     7   ar
