@<TRIPOS>MOLECULE
2p37_M13_A_1.pdb
 24 25 0 0 0
SMALL
GASTEIGER

@<TRIPOS>ATOM
      1  O10       -8.1800  -22.3750  -39.1210 O.3   240  M13240     -0.2176
      2  C12       -8.2500  -23.8110  -39.0300 C.3   240  M13240      0.2142
      3  C11       -7.0610  -24.4330  -38.2690 C.3   240  M13240      0.1834
      4  O11       -5.7930  -24.3560  -38.9530 O.3   240  M13240     -0.3256
      5  C7        -4.7380  -24.9420  -38.1590 C.3   240  M13240      0.2694
      6  O7        -3.6090  -25.2780  -38.9160 O.3   240  M13240     -0.3259
      7  CM        -3.6690  -26.6530  -39.2740 C.3   240  M13240      0.1769
      8  C10       -6.9310  -23.8710  -36.8540 C.3   240  M13240      0.2113
      9  O9        -8.0930  -24.2090  -36.0710 O.3   240  M13240     -0.2177
     10  C9        -5.6520  -24.3380  -36.1320 C.3   240  M13240      0.1858
     11  C8        -4.3940  -24.0910  -36.9380 C.3   240  M13240      0.2374
     12  O8        -4.2600  -22.6650  -37.1310 O.3   240  M13240     -0.2150
     13  O1        -5.5260  -23.6720  -34.8910 O.3   240  M13240     -0.3255
     14  C1        -5.8770  -24.5460  -33.8320 C.3   240  M13240      0.2695
     15  O6        -4.6850  -25.2890  -33.5580 O.3   240  M13240     -0.3256
     16  C2        -6.2970  -23.6990  -32.6750 C.3   240  M13240      0.2406
     17  O2        -6.6940  -24.5230  -31.5530 O.3   240  M13240     -0.2149
     18  C3        -5.1290  -22.7710  -32.3170 C.3   240  M13240      0.2198
     19  O3        -5.4710  -21.9560  -31.1940 O.3   240  M13240     -0.2174
     20  C4        -3.8750  -23.5550  -32.0420 C.3   240  M13240      0.2144
     21  O4        -2.8100  -22.6510  -31.7930 O.3   240  M13240     -0.2176
     22  C5        -3.5230  -24.5060  -33.1850 C.3   240  M13240      0.1835
     23  C6        -2.3650  -25.4270  -32.8770 C.3   240  M13240      0.2142
     24  O5        -2.7620  -26.2410  -31.7870 O.3   240  M13240     -0.2176
@<TRIPOS>BOND
     1     7     6    1
     2     1     2    1
     3     2     3    1
     4     4     3    1
     5     4     5    1
     6     6     5    1
     7     3     8    1
     8     5    11    1
     9    12    11    1
    10    11    10    1
    11     8    10    1
    12     8     9    1
    13    10    13    1
    14    13    14    1
    15    14    15    1
    16    14    16    1
    17    15    22    1
    18    22    23    1
    19    22    20    1
    20    23    24    1
    21    16    18    1
    22    16    17    1
    23    18    20    1
    24    18    19    1
    25    20    21    1
