@<TRIPOS>MOLECULE
2p3g_F10_X_1.pdb
 23 26 0 0 0
SMALL
GASTEIGER

@<TRIPOS>ATOM
      1  N1        87.7620  260.1570  111.6410 N.2   401  F10401     -0.2020
      2  O3        88.5970  260.7450  109.5390 O.2   401  F10401     -0.2222
      3  C10       79.0800  262.6050  106.2230 C.ar  401  F10401      0.0037
      4  C11       81.9920  261.2230  107.9860 C.ar  401  F10401      0.0218
      5  C9        77.7060  262.6780  106.1980 C.ar  401  F10401      0.0002
      6  C14       85.7050  260.9450  108.6950 C.2   401  F10401      0.0459
      7  C17       86.6550  260.2380  112.5800 C.3   401  F10401      0.1453
      8  C18       85.3990  259.5690  112.0610 C.3   401  F10401      0.0869
      9  C15       86.2930  260.4980  109.8980 C.2   401  F10401      0.1107
     10  C16       87.6680  260.4790  110.3000 C.1   401  F10401      0.1523
     11  C21       83.8470  261.5410  106.5510 C.ar  401  F10401      0.0232
     12  C22       82.9710  261.9010  105.5620 C.ar  401  F10401      0.0989
     13  C19       85.2640  260.0900  110.7060 C.2   401  F10401      0.1219
     14  C12       83.3580  261.1890  107.7880 C.ar  401  F10401      0.0326
     15  C13       84.3350  260.8050  108.7880 C.2   401  F10401      0.1319
     16  C2        81.1820  261.5950  106.9290 C.ar  401  F10401      0.0836
     17  C4        79.7360  261.6530  106.9730 C.ar  401  F10401      0.0451
     18  C5        78.9540  260.7770  107.6960 C.ar  401  F10401      0.1415
     19  C7        77.5790  260.8360  107.6910 C.ar  401  F10401      0.0297
     20  C8        76.9480  261.7910  106.9300 C.ar  401  F10401      0.0023
     21  F6        79.5220  259.8280  108.4410 F     401  F10401     -0.2041
     22  N20       84.0890  260.2640  110.0260 N.2   401  F10401     -0.4054
     23  N23       81.6500  261.9320  105.7220 N.ar  401  F10401     -0.2438
@<TRIPOS>BOND
     1    12    23   ar
     2    12    11   ar
     3    23    16   ar
     4     5     3   ar
     5     5    20   ar
     6     3    17   ar
     7    11    14   ar
     8    16    17    1
     9    16     4   ar
    10    20    19   ar
    11    17    18   ar
    12    19    18   ar
    13    18    21    1
    14    14     4   ar
    15    14    15    1
    16     6    15    1
    17     6     9    2
    18    15    22    2
    19     2    10    2
    20     9    10    1
    21     9    13    1
    22    22    13    2
    23    10     1    2
    24    13     8    1
    25     1     7    1
    26     8     7    1
