@<TRIPOS>MOLECULE
2p3i_MNA_A_1.pdb
 22 22 0 0 0
SMALL
GASTEIGER

@<TRIPOS>ATOM
      1  C1        44.3530   10.2540   18.3400 C.2   1000  MNA1000     0.4152
      2  C2        44.2540   11.4040   19.3330 C.3   1000  MNA1000     0.2863
      3  C3        45.2980   12.4930   19.0700 C.3   1000  MNA1000     0.1028
      4  C4        44.9200   13.3860   17.8750 C.3   1000  MNA1000     0.1797
      5  C5        43.4860   13.9030   17.9810 C.3   1000  MNA1000     0.1554
      6  C6        42.5540   12.6980   18.1730 C.3   1000  MNA1000     0.1733
      7  C7        41.0750   13.0440   18.3060 C.3   1000  MNA1000     0.2135
      8  C8        40.2110   11.7860   18.4090 C.3   1000  MNA1000     0.2173
      9  C9        38.7810   12.0980   18.0010 C.3   1000  MNA1000     0.2175
     10  C10       42.4110   15.7830   16.7950 C.2   1000  MNA1000     0.2420
     11  C11       42.0880   16.3480   15.4430 C.3   1000  MNA1000     0.0964
     12  C12       43.7150    9.8010   21.1110 C.3   1000  MNA1000     0.1772
     13  N5        43.1560   14.6710   16.7940 N.am  1000  MNA1000    -0.2020
     14  O1A       45.4670    9.7070   18.1760 O.co2 1000  MNA1000    -0.2402
     15  O1B       43.3160    9.8570   17.7510 O.co2 1000  MNA1000    -0.2402
     16  O2        44.4890   10.9120   20.6470 O.3   1000  MNA1000    -0.3233
     17  O4        45.8710   14.4590   17.7890 O.3   1000  MNA1000    -0.2210
     18  O6        42.9470   11.9830   19.3680 O.3   1000  MNA1000    -0.3239
     19  O7        40.8630   13.8420   19.4840 O.3   1000  MNA1000    -0.2176
     20  O8        40.7230   10.7440   17.5680 O.3   1000  MNA1000    -0.2175
     21  O9        37.9900   10.9220   18.2470 O.3   1000  MNA1000    -0.2175
     22  O10       42.0110   16.2990   17.8280 O.2   1000  MNA1000    -0.2733
@<TRIPOS>BOND
     1    11    10    1
     2    13    10   am
     3    13     5    1
     4    10    22    2
     5    20     8    1
     6    15     1   ar
     7    17     4    1
     8     4     5    1
     9     4     3    1
    10     5     6    1
    11     9    21    1
    12     9     8    1
    13     6     7    1
    14     6    18    1
    15    14     1   ar
    16     7     8    1
    17     7    19    1
    18     1     2    1
    19     3     2    1
    20     2    18    1
    21     2    16    1
    22    16    12    1
