@<TRIPOS>MOLECULE
2p3j_MNA_A_1.pdb
 22 22 0 0 0
SMALL
GASTEIGER

@<TRIPOS>ATOM
      1  C1        44.2870   10.4020   18.3510 C.2   1000  MNA1000     0.4152
      2  C2        44.1570   11.5780   19.3140 C.3   1000  MNA1000     0.2863
      3  C3        45.2050   12.6660   19.0470 C.3   1000  MNA1000     0.1028
      4  C4        44.8500   13.5640   17.8510 C.3   1000  MNA1000     0.1797
      5  C5        43.3900   14.0260   17.8880 C.3   1000  MNA1000     0.1554
      6  C6        42.4610   12.8170   18.0820 C.3   1000  MNA1000     0.1733
      7  C7        40.9670   13.1260   18.1930 C.3   1000  MNA1000     0.2135
      8  C8        40.1240   11.8550   18.3420 C.3   1000  MNA1000     0.2173
      9  C9        38.6720   12.1260   17.9770 C.3   1000  MNA1000     0.2175
     10  C10       42.3540   15.8650   16.6490 C.2   1000  MNA1000     0.2420
     11  C11       42.1170   16.4670   15.2990 C.3   1000  MNA1000     0.0964
     12  C12       43.5820   10.0560   21.1700 C.3   1000  MNA1000     0.1772
     13  N5        43.0900   14.7490   16.6660 N.am  1000  MNA1000    -0.2020
     14  O1A       45.4180    9.8870   18.1880 O.co2 1000  MNA1000    -0.2402
     15  O1B       43.2630    9.9500   17.7650 O.co2 1000  MNA1000    -0.2402
     16  O2        44.3760   11.1240   20.6410 O.3   1000  MNA1000    -0.3233
     17  O4        45.7240   14.7040   17.8030 O.3   1000  MNA1000    -0.2210
     18  O6        42.8230   12.1230   19.2860 O.3   1000  MNA1000    -0.3239
     19  O7        40.7470   13.9290   19.3540 O.3   1000  MNA1000    -0.2176
     20  O8        40.6130   10.7790   17.5230 O.3   1000  MNA1000    -0.2175
     21  O9        37.8600   11.0760   18.5240 O.3   1000  MNA1000    -0.2175
     22  O10       41.8870   16.3550   17.6710 O.2   1000  MNA1000    -0.2733
@<TRIPOS>BOND
     1    11    10    1
     2    10    13   am
     3    10    22    2
     4    13     5    1
     5    20     8    1
     6    15     1   ar
     7    17     4    1
     8     4     5    1
     9     4     3    1
    10     5     6    1
    11     9     8    1
    12     9    21    1
    13     6     7    1
    14     6    18    1
    15    14     1   ar
    16     7     8    1
    17     7    19    1
    18     1     2    1
    19     3     2    1
    20    18     2    1
    21     2    16    1
    22    16    12    1
