@<TRIPOS>MOLECULE
2p3k_MNA_A_1.pdb
 22 22 0 0 0
SMALL
GASTEIGER

@<TRIPOS>ATOM
      1  C1        43.6970   10.1310   18.0330 C.2   1000  MNA1000     0.4152
      2  C2        43.5880   11.2820   19.0250 C.3   1000  MNA1000     0.2863
      3  C3        44.6350   12.3720   18.7860 C.3   1000  MNA1000     0.1028
      4  C4        44.2920   13.2680   17.5970 C.3   1000  MNA1000     0.1797
      5  C5        42.8640   13.8020   17.6960 C.3   1000  MNA1000     0.1554
      6  C6        41.9190   12.6020   17.8690 C.3   1000  MNA1000     0.1733
      7  C7        40.4320   12.9400   17.9650 C.3   1000  MNA1000     0.2135
      8  C8        39.5810   11.6770   18.0840 C.3   1000  MNA1000     0.2173
      9  C9        38.1370   11.9990   17.7200 C.3   1000  MNA1000     0.2175
     10  C10       41.7450   15.6320   16.4960 C.2   1000  MNA1000     0.2420
     11  C11       41.4380   16.2260   15.1530 C.3   1000  MNA1000     0.0964
     12  C12       43.0450    9.6500   20.7790 C.3   1000  MNA1000     0.1772
     13  N5        42.5320   14.5450   16.4920 N.am  1000  MNA1000    -0.2020
     14  O1A       44.8140    9.6030   17.8740 O.co2 1000  MNA1000    -0.2402
     15  O1B       42.6790    9.7190   17.4240 O.co2 1000  MNA1000    -0.2402
     16  O2        43.8170   10.7610   20.3240 O.3   1000  MNA1000    -0.3233
     17  O4        45.2620   14.3180   17.5280 O.3   1000  MNA1000    -0.2210
     18  O6        42.2730   11.8480   19.0390 O.3   1000  MNA1000    -0.3239
     19  O7        40.2020   13.7520   19.1250 O.3   1000  MNA1000    -0.2176
     20  O8        40.0890   10.6380   17.2310 O.3   1000  MNA1000    -0.2175
     21  O9        37.3380   10.8090   17.8070 O.3   1000  MNA1000    -0.2175
     22  O10       41.2890   16.1190   17.5200 O.2   1000  MNA1000    -0.2733
@<TRIPOS>BOND
     1    11    10    1
     2    13    10   am
     3    13     5    1
     4    10    22    2
     5    20     8    1
     6    15     1   ar
     7    17     4    1
     8     4     5    1
     9     4     3    1
    10     5     6    1
    11     9    21    1
    12     9     8    1
    13     6     7    1
    14     6    18    1
    15    14     1   ar
    16     7     8    1
    17     7    19    1
    18     1     2    1
    19     3     2    1
    20     2    18    1
    21     2    16    1
    22    16    12    1
