@<TRIPOS>MOLECULE
2p3l_G3A_A_1.pdb
 50 55 0 0 0
SMALL
GASTEIGER

@<TRIPOS>ATOM
      1  O36       36.0100  -42.2330    1.2600 O.2   1002  G3A1002    -0.2069
      2  C36       35.9390  -41.0720    0.7940 C.1   1002  G3A1002     0.2372
      3  N31       36.4250  -40.7840   -0.4370 N.2   1002  G3A1002    -0.2485
      4  C32       36.3410  -39.5010   -0.9350 C.1   1002  G3A1002     0.2531
      5  N32       36.8040  -39.2050   -2.1530 N.pl3 1002  G3A1002    -0.0226
      6  N33       35.7730  -38.4970   -0.2380 N.2   1002  G3A1002    -0.3074
      7  C35       35.3750  -40.0450    1.5480 C.2   1002  G3A1002     0.2182
      8  C34       35.3000  -38.7600    1.0070 C.2   1002  G3A1002     0.2300
      9  N37       34.8290  -39.9970    2.7800 N.2   1002  G3A1002    -0.2322
     10  C38       34.4190  -38.7210    2.9800 C.3   1002  G3A1002     0.2246
     11  N39       34.7280  -37.9720    1.9040 N.pl3 1002  G3A1002    -0.2354
     12  C41       34.4920  -36.5180    1.6940 C.3   1002  G3A1002     0.2293
     13  O44       35.0140  -35.7640    2.8050 O.3   1002  G3A1002    -0.3326
     14  C42       33.0030  -36.2260    1.5880 C.3   1002  G3A1002     0.2310
     15  O42       32.9040  -35.0930    0.7360 O.3   1002  G3A1002    -0.2158
     16  C43       32.6600  -35.8170    2.9950 C.3   1002  G3A1002     0.2158
     17  O43       31.4920  -34.9880    3.0410 O.3   1002  G3A1002    -0.2175
     18  C44       33.9260  -35.1040    3.4580 C.3   1002  G3A1002     0.1799
     19  C45       34.0990  -35.1500    4.9620 C.3   1002  G3A1002     0.1813
     20  O45       34.0220  -36.4940    5.3930 O.3   1002  G3A1002    -0.3112
     21  PA        34.0940  -36.8270    6.9740 P.3   1002  G3A1002     0.2189
     22  O1A       33.4720  -35.7650    7.8420 O.3   1002  G3A1002    -0.4371
     23  O2A       35.5620  -37.1440    7.1190 O.2   1002  G3A1002    -0.5170
     24  O1        33.2170  -38.1410    7.1880 O.3   1002  G3A1002    -0.2701
     25  PB        31.6060  -38.1730    7.2190 P.3   1002  G3A1002     0.2237
     26  O2B       30.9850  -37.3690    8.3270 O.3   1002  G3A1002    -0.4369
     27  O3B       31.3650  -39.6580    7.2190 O.2   1002  G3A1002    -0.5168
     28  O3A       31.2380  -37.5950    5.7640 O.3   1002  G3A1002    -0.2701
     29  PG        29.8800  -37.9530    4.9680 P.3   1002  G3A1002     0.2189
     30  O1G       29.8020  -36.9380    3.8770 O.2   1002  G3A1002    -0.5170
     31  O2G       28.7800  -38.0030    5.9830 O.3   1002  G3A1002    -0.4371
     32  O25       30.1940  -39.4130    4.3590 O.3   1002  G3A1002    -0.3112
     33  C25       29.7750  -40.6400    4.9820 C.3   1002  G3A1002     0.1813
     34  C24       30.5410  -41.8280    4.4000 C.3   1002  G3A1002     0.1821
     35  C23       32.0620  -41.6890    4.4420 C.3   1002  G3A1002     0.2184
     36  O23       32.6210  -42.2190    5.6420 O.3   1002  G3A1002    -0.2174
     37  C22       32.5310  -42.4840    3.2460 C.3   1002  G3A1002     0.2570
     38  O22       32.6050  -43.8890    3.5570 O.3   1002  G3A1002    -0.2130
     39  O24       30.2270  -41.9740    2.9980 O.3   1002  G3A1002    -0.3135
     40  C21       31.4010  -42.3250    2.2530 C.3   1002  G3A1002     0.3186
     41  N19       31.6970  -41.2470    1.2780 N.pl3 1002  G3A1002    -0.1439
     42  C14       32.3050  -41.4550    0.1160 C.2   1002  G3A1002     0.3518
     43  N13       32.8150  -42.5500   -0.4790 N.2   1002  G3A1002    -0.0055
     44  C12       33.3900  -42.4380   -1.6970 C.3   1002  G3A1002     0.5254
     45  N11       33.4670  -41.2540   -2.3250 N.2   1002  G3A1002     0.0021
     46  C18       31.3990  -39.9290    1.3530 C.3   1002  G3A1002     0.3377
     47  N17       31.8290  -39.2880    0.2440 N.2   1002  G3A1002    -0.2095
     48  C15       32.3840  -40.2330   -0.5300 C.2   1002  G3A1002     0.2526
     49  C16       32.9820  -40.1310   -1.7890 C.2   1002  G3A1002     0.4393
     50  N16       33.0890  -39.0560   -2.4220 N.pl3 1002  G3A1002     0.2180
@<TRIPOS>BOND
     1    50    49    1
     2    45    49    2
     3    45    44    1
     4     5     4    1
     5    49    48    1
     6    44    43    1
     7     4     3    2
     8     4     6    2
     9    48    42    1
    10    48    47    2
    11    43    42    2
    12     3     2    2
    13     6     8    2
    14    42    41    1
    15    47    46    1
    16    15    14    1
    17     2     1    2
    18     2     7    1
    19     8     7    1
    20     8    11    1
    21    41    46    1
    22    41    40    1
    23     7     9    2
    24    14    12    1
    25    14    16    1
    26    12    11    1
    27    12    13    1
    28    11    10    1
    29    40    39    1
    30    40    37    1
    31     9    10    1
    32    13    18    1
    33    16    17    1
    34    16    18    1
    35    39    34    1
    36    37    38    1
    37    37    35    1
    38    18    19    1
    39    30    29    2
    40    32    29    1
    41    32    33    1
    42    34    35    1
    43    34    33    1
    44    35    36    1
    45    19    20    1
    46    29    28    1
    47    29    31    1
    48    20    21    1
    49    28    25    1
    50    21    23    2
    51    21    24    1
    52    21    22    1
    53    24    25    1
    54    25    27    2
    55    25    26    1
