@<TRIPOS>MOLECULE
2p3l_SAH_A_1.pdb
 26 28 0 0 0
SMALL
GASTEIGER

@<TRIPOS>ATOM
      1  N         33.2890  -30.1250   21.0610 N.3   1001  SAH1001    -0.1208
      2  CA        33.1410  -31.5870   21.2630 C.3   1001  SAH1001     0.1952
      3  CB        33.0970  -32.2540   19.9080 C.3   1001  SAH1001     0.0422
      4  CG        31.8220  -31.8600   19.1750 C.3   1001  SAH1001     0.0597
      5  SD        30.9810  -33.3750   18.7260 S.3   1001  SAH1001    -0.1375
      6  C         34.2670  -32.1670   22.1100 C.2   1001  SAH1001     0.3819
      7  O         35.1770  -31.4010   22.4260 O.co2 1001  SAH1001    -0.2441
      8  OXT       34.2840  -33.3640   22.4880 O.co2 1001  SAH1001    -0.2441
      9  C5'       29.4260  -32.5390   18.2590 C.3   1001  SAH1001     0.0899
     10  C4'       28.2780  -33.2840   18.9510 C.3   1001  SAH1001     0.1630
     11  O4'       27.0370  -32.6240   18.7880 O.3   1001  SAH1001    -0.3153
     12  C3'       28.0990  -34.7070   18.4320 C.3   1001  SAH1001     0.2168
     13  O3'       28.4010  -35.6010   19.4800 O.3   1001  SAH1001    -0.2175
     14  C2'       26.6420  -34.8300   18.0370 C.3   1001  SAH1001     0.2569
     15  O2'       26.1040  -36.0260   18.5500 O.3   1001  SAH1001    -0.2130
     16  C1'       26.0230  -33.6060   18.6960 C.3   1001  SAH1001     0.3185
     17  N9        24.8430  -33.0770   17.9770 N.pl3 1001  SAH1001    -0.1439
     18  C8        24.5860  -32.9680   16.6250 C.3   1001  SAH1001     0.3377
     19  N7        23.3640  -32.4140   16.4740 N.2   1001  SAH1001    -0.2095
     20  C5        22.8480  -32.1580   17.7020 C.2   1001  SAH1001     0.2526
     21  C6        21.6410  -31.6290   18.1670 C.2   1001  SAH1001     0.4393
     22  N6        20.6890  -31.2250   17.3440 N.pl3 1001  SAH1001     0.2180
     23  N1        21.4190  -31.5330   19.5270 N.2   1001  SAH1001     0.0021
     24  C2        22.3580  -31.9410   20.4390 C.3   1001  SAH1001     0.5254
     25  N3        23.5440  -32.4740   19.9870 N.2   1001  SAH1001    -0.0055
     26  C4        23.7790  -32.5690   18.6510 C.2   1001  SAH1001     0.3518
@<TRIPOS>BOND
     1    19    18    1
     2    19    20    2
     3    18    17    1
     4    22    21    1
     5    20    21    1
     6    20    26    1
     7    17    26    1
     8    17    16    1
     9    14    12    1
    10    14    15    1
    11    14    16    1
    12    21    23    2
    13     9     5    1
    14     9    10    1
    15    12    10    1
    16    12    13    1
    17    26    25    2
    18    16    11    1
    19     5     4    1
    20    11    10    1
    21     4     3    1
    22    23    24    1
    23     3     2    1
    24    25    24    1
    25     1     2    1
    26     2     6    1
    27     6     7   ar
    28     6     8   ar
