@<TRIPOS>MOLECULE
2p3o_SAH_A_1.pdb
 26 28 0 0 0
SMALL
GASTEIGER

@<TRIPOS>ATOM
      1  N         10.0570   45.2980   11.3100 N.3   1001  SAH1001    -0.1208
      2  CA        11.4030   45.8910   11.6000 C.3   1001  SAH1001     0.1952
      3  CB        12.2360   46.0020   10.3410 C.3   1001  SAH1001     0.0422
      4  CG        13.3060   44.9160   10.3670 C.3   1001  SAH1001     0.0597
      5  SD        13.9160   44.5610    8.6990 S.3   1001  SAH1001    -0.1375
      6  C         11.3070   47.2160   12.3390 C.2   1001  SAH1001     0.3819
      7  O         10.2000   47.6270   12.6590 O.co2 1001  SAH1001    -0.2441
      8  OXT       12.2930   47.8800   12.6640 O.co2 1001  SAH1001    -0.2441
      9  C5'       13.9580   42.7490    8.7690 C.3   1001  SAH1001     0.0899
     10  C4'       15.2130   42.2670    9.4840 C.3   1001  SAH1001     0.1630
     11  O4'       15.2550   40.8590    9.4820 O.3   1001  SAH1001    -0.3153
     12  C3'       16.4900   42.7760    8.8340 C.3   1001  SAH1001     0.2168
     13  O3'       17.1650   43.6600    9.7070 O.3   1001  SAH1001    -0.2175
     14  C2'       17.3080   41.5340    8.5660 C.3   1001  SAH1001     0.2569
     15  O2'       18.6440   41.6610    8.9920 O.3   1001  SAH1001    -0.2130
     16  C1'       16.5960   40.4380    9.3440 C.3   1001  SAH1001     0.3185
     17  N9        16.7610   39.1440    8.6360 N.pl3 1001  SAH1001    -0.1439
     18  C8        16.8660   38.9460    7.2840 C.3   1001  SAH1001     0.3377
     19  N7        17.0370   37.6300    7.0430 N.2   1001  SAH1001    -0.2095
     20  C5        17.0360   36.9740    8.2300 C.2   1001  SAH1001     0.2526
     21  C6        17.1670   35.6230    8.5750 C.2   1001  SAH1001     0.4393
     22  N6        17.3430   34.6930    7.6540 N.pl3 1001  SAH1001     0.2180
     23  N1        17.1290   35.2470    9.8980 N.2   1001  SAH1001     0.0021
     24  C2        16.9620   36.2130   10.8810 C.3   1001  SAH1001     0.5254
     25  N3        16.8290   37.5440   10.5350 N.2   1001  SAH1001    -0.0055
     26  C4        16.8650   37.9200    9.2360 C.2   1001  SAH1001     0.3518
@<TRIPOS>BOND
     1    19    18    1
     2    19    20    2
     3    18    17    1
     4    22    21    1
     5    20    21    1
     6    20    26    1
     7    14    12    1
     8    14    15    1
     9    14    16    1
    10    21    23    2
    11    17    26    1
    12    17    16    1
    13     5     9    1
    14     5     4    1
    15     9    10    1
    16    12    10    1
    17    12    13    1
    18    26    25    2
    19    16    11    1
    20    11    10    1
    21    23    24    1
    22     3     4    1
    23     3     2    1
    24    25    24    1
    25     1     2    1
    26     2     6    1
    27     6     7   ar
    28     6     8   ar
