@<TRIPOS>MOLECULE
2p3q_GP3_A_1.pdb
 24 26 0 0 0
SMALL
GASTEIGER

@<TRIPOS>ATOM
      1  N9A       -3.0150   85.0740   27.0340 N.pl3 1009  GP31009    -0.2354
      2  C8A       -2.4740   85.7140   25.9750 C.3   1009  GP31009     0.2246
      3  N7A       -1.1400   85.8400   26.1480 N.2   1009  GP31009    -0.2322
      4  C5A       -0.8490   85.2630   27.3220 C.2   1009  GP31009     0.2182
      5  C6A        0.3820   85.1190   27.9780 C.1   1009  GP31009     0.2372
      6  O6A        1.4400   85.5620   27.4740 O.2   1009  GP31009    -0.2069
      7  N1A        0.4010   84.4840   29.1810 N.2   1009  GP31009    -0.2485
      8  C2A       -0.7320   83.9890   29.7470 C.1   1009  GP31009     0.2531
      9  N2A       -0.6910   83.3460   30.9510 N.pl3 1009  GP31009    -0.0226
     10  N3A       -1.9340   84.1340   29.1100 N.2   1009  GP31009    -0.3074
     11  C4A       -2.0150   84.7710   27.8890 C.2   1009  GP31009     0.2300
     12  O5D       -4.2650   84.0910   23.4540 O.3   1009  GP31009    -0.2675
     13  C5D       -5.6400   84.1740   23.8420 C.3   1009  GP31009     0.1859
     14  C4D       -5.8280   84.3800   25.3480 C.3   1009  GP31009     0.1801
     15  O4D       -4.7700   83.8190   26.1270 O.3   1009  GP31009    -0.3326
     16  C3D       -5.8530   85.8290   25.8020 C.3   1009  GP31009     0.2158
     17  O3D       -7.1330   86.4270   25.5760 O.3   1009  GP31009    -0.2175
     18  C2D       -5.4930   85.7060   27.2750 C.3   1009  GP31009     0.2310
     19  O2D       -6.5450   85.0840   28.0400 O.3   1009  GP31009    -0.2158
     20  C1D       -4.4270   84.6530   27.2450 C.3   1009  GP31009     0.2293
     21  PA        -3.7920   84.4660   21.9560 P.3   1009  GP31009     0.5327
     22  O1A       -3.8140   85.9860   21.7600 O.3   1009  GP31009    -0.1145
     23  O2A       -2.5380   83.6310   21.7400 O.3   1009  GP31009    -0.1145
     24  O3A       -5.0170   83.8660   21.0780 O.2   1009  GP31009    -0.2224
@<TRIPOS>BOND
     1    24    21    2
     2    23    21    1
     3    22    21    1
     4    21    12    1
     5    12    13    1
     6    13    14    1
     7    14    16    1
     8    14    15    1
     9    17    16    1
    10    16    18    1
    11     2     3    1
    12     2     1    1
    13    15    20    1
    14     3     4    2
    15     1    20    1
    16     1    11    1
    17    20    18    1
    18    18    19    1
    19     4    11    1
    20     4     5    1
    21     6     5    2
    22    11    10    2
    23     5     7    2
    24    10     8    2
    25     7     8    2
    26     8     9    1
