@<TRIPOS>MOLECULE
2p3q_SAH_A_1.pdb
 26 28 0 0 0
SMALL
GASTEIGER

@<TRIPOS>ATOM
      1  N        -11.3170   82.5160    7.6490 N.3   1001  SAH1001    -0.1208
      2  CA       -10.0690   83.3050    7.6860 C.3   1001  SAH1001     0.1952
      3  CB        -9.6450   83.6620    9.1010 C.3   1001  SAH1001     0.0422
      4  CG        -9.4370   85.1670    9.2480 C.3   1001  SAH1001     0.0597
      5  SD        -9.6330   85.6750   10.9740 S.3   1001  SAH1001    -0.1375
      6  C         -8.9610   82.5240    7.0440 C.2   1001  SAH1001     0.3819
      7  O         -9.1450   81.3130    6.9300 O.co2 1001  SAH1001    -0.2441
      8  OXT       -7.9170   83.0820    6.6400 O.co2 1001  SAH1001    -0.2441
      9  C5'      -11.1090   86.7360   10.7870 C.3   1001  SAH1001     0.0899
     10  C4'      -10.9190   88.1320   10.1750 C.3   1001  SAH1001     0.1630
     11  O4'      -12.0540   88.9450   10.3890 O.3   1001  SAH1001    -0.3153
     12  C3'       -9.7500   88.9430   10.7190 C.3   1001  SAH1001     0.2168
     13  O3'       -8.7390   88.8640    9.7440 O.3   1001  SAH1001    -0.2175
     14  C2'      -10.2640   90.3650   10.9500 C.3   1001  SAH1001     0.2569
     15  O2'       -9.6030   91.3700   10.2280 O.3   1001  SAH1001    -0.2130
     16  C1'      -11.6390   90.3050   10.3480 C.3   1001  SAH1001     0.3185
     17  N9       -12.6360   91.1100   11.0630 N.pl3 1001  SAH1001    -0.1439
     18  C8       -12.8370   91.2200   12.4240 C.3   1001  SAH1001     0.3377
     19  N7       -13.9020   92.0360   12.6160 N.2   1001  SAH1001    -0.2095
     20  C5       -14.3740   92.4370   11.4120 C.2   1001  SAH1001     0.2526
     21  C6       -15.4270   93.2590   11.0290 C.2   1001  SAH1001     0.4393
     22  N6       -16.1910   93.8210   11.9620 N.pl3 1001  SAH1001     0.2180
     23  N1       -15.6920   93.4890    9.6820 N.2   1001  SAH1001     0.0021
     24  C2       -14.8940   92.9060    8.7200 C.3   1001  SAH1001     0.5254
     25  N3       -13.8450   92.0870    9.1090 N.2   1001  SAH1001    -0.0055
     26  C4       -13.5940   91.8570   10.4260 C.2   1001  SAH1001     0.3518
@<TRIPOS>BOND
     1     8     6   ar
     2     7     6   ar
     3     6     2    1
     4     1     2    1
     5     2     3    1
     6    24    25    1
     7    24    23    1
     8     3     4    1
     9    25    26    2
    10     4     5    1
    11    23    21    2
    12    13    12    1
    13    10    11    1
    14    10    12    1
    15    10     9    1
    16    15    14    1
    17    16    11    1
    18    16    14    1
    19    16    17    1
    20    26    17    1
    21    26    20    1
    22    12    14    1
    23     9     5    1
    24    21    20    1
    25    21    22    1
    26    17    18    1
    27    20    19    2
    28    18    19    1
