@<TRIPOS>MOLECULE
2p3u_663_B_1.pdb
 35 38 0 0 0
SMALL
GASTEIGER

@<TRIPOS>ATOM
      1  C34       10.6570    0.6260   17.8960 C.3   500  663500      0.1317
      2  N33        9.5530    0.9930   16.9720 N.ar  500  663500     -0.3114
      3  C32        9.2230    0.2710   15.9100 C.ar  500  663500      0.0978
      4  C31        8.0330    0.9560   15.2820 C.ar  500  663500      0.1188
      5  N30        7.9100    2.1640   16.0970 N.ar  500  663500     -0.2290
      6  C29        8.8130    2.1120   17.0870 C.ar  500  663500      0.1249
      7  C28        8.9910    3.1860   18.1690 C.3   500  663500      0.0916
      8  C25        7.9270    3.0380   19.2730 C.ar  500  663500      0.0031
      9  C26        7.3260    4.1560   19.9490 C.ar  500  663500      0.0650
     10 CL3         7.7190    5.7970   19.5400 Cl    500  663500     -0.0819
     11  C24        7.4690    1.8400   19.7380 C.ar  500  663500      0.0326
     12  S23        6.3510    2.1340   20.9540 S.2   500  663500     -0.0813
     13  C22        6.4050    3.7810   20.9410 C.ar  500  663500      0.0951
     14  C20        5.6200    4.6740   21.9260 C.2   500  663500      0.2759
     15  O21        4.7680    4.1630   22.6540 O.2   500  663500     -0.2674
     16  N19        5.9530    5.9840   21.9600 N.am  500  663500     -0.1718
     17  C12        5.3240    6.8600   22.7870 C.ar  500  663500      0.1120
     18  C13        3.9210    7.0890   22.6780 C.ar  500  663500      0.1549
     19  O17        3.2000    6.4840   21.6760 O.3   500  663500     -0.4701
     20  C18        2.0450    5.7840   22.1880 C.3   500  663500      0.2525
     21  C14        3.2840    7.9820   23.5680 C.ar  500  663500      0.0496
     22  C15        4.0220    8.6460   24.5540 C.ar  500  663500      0.0609
     23 CL2         3.2480    9.7400   25.6450 Cl    500  663500     -0.0821
     24  C16        5.3920    8.4310   24.6570 C.ar  500  663500      0.0175
     25  C11        6.0570    7.5560   23.7850 C.ar  500  663500      0.0746
     26  C9         7.5930    7.5160   23.8700 C.2   500  663500      0.2717
     27  O10        8.2850    7.5080   22.8500 O.2   500  663500     -0.2679
     28  N7         8.0670    7.4200   25.1270 N.am  500  663500     -0.1566
     29  C1         9.3720    7.4350   25.4490 C.ar  500  663500      0.1548
     30  C6         9.7460    7.1880   26.7800 C.ar  500  663500      0.0371
     31  C5        11.1070    7.1190   27.1080 C.ar  500  663500      0.0159
     32  C4        12.0640    7.3040   26.1010 C.ar  500  663500      0.0769
     33 CL1        13.7530    7.1460   26.4510 Cl    500  663500     -0.0806
     34  C3        11.6400    7.5580   24.7930 C.ar  500  663500      0.1117
     35  N2        10.3320    7.6090   24.4980 N.ar  500  663500     -0.2264
@<TRIPOS>BOND
     1     4     3   ar
     2     4     5   ar
     3     3     2   ar
     4     5     6   ar
     5     2     6   ar
     6     2     1    1
     7     6     7    1
     8     7     8    1
     9     8    11   ar
    10     8     9   ar
    11    10     9    1
    12    11    12   ar
    13     9    13   ar
    14    13    12   ar
    15    13    14    1
    16    19    20    1
    17    19    18    1
    18    14    16   am
    19    14    15    2
    20    16    17    1
    21    18    17   ar
    22    18    21   ar
    23    17    25   ar
    24    27    26    2
    25    21    22   ar
    26    25    26    1
    27    25    24   ar
    28    26    28   am
    29    35    34   ar
    30    35    29   ar
    31    22    24   ar
    32    22    23    1
    33    34    32   ar
    34    28    29    1
    35    29    30   ar
    36    32    33    1
    37    32    31   ar
    38    30    31   ar
