@<TRIPOS>MOLECULE
2p41_SAH_A_1.pdb
 26 28 0 0 0
SMALL
GASTEIGER

@<TRIPOS>ATOM
      1  N        -11.5250   80.1860    6.8290 N.3   1012  SAH1012    -0.1208
      2  CA       -10.3080   81.0400    6.6030 C.3   1012  SAH1012     0.1952
      3  CB        -9.6490   81.2680    7.9630 C.3   1012  SAH1012     0.0422
      4  CG       -10.3890   82.2600    8.8540 C.3   1012  SAH1012     0.0597
      5  SD       -10.1170   83.9160    8.1970 S.3   1012  SAH1012    -0.1375
      6  C         -9.2850   80.3070    5.7240 C.2   1012  SAH1012     0.3819
      7  O         -8.2500   80.8600    5.2910 O.co2 1012  SAH1012    -0.2441
      8  OXT       -9.5080   79.1120    5.4620 O.co2 1012  SAH1012    -0.2441
      9  C5'      -11.2170   84.6760    9.4190 C.3   1012  SAH1012     0.0899
     10  C4'      -11.3060   86.1240    8.9850 C.3   1012  SAH1012     0.1630
     11  O4'      -12.5640   86.7440    9.2080 O.3   1012  SAH1012    -0.3153
     12  C3'      -10.2010   87.0350    9.5510 C.3   1012  SAH1012     0.2168
     13  O3'       -9.3590   87.4470    8.4820 O.3   1012  SAH1012    -0.2175
     14  C2'      -10.9920   88.2100   10.1020 C.3   1012  SAH1012     0.2569
     15  O2'      -10.3570   89.4730    9.9990 O.3   1012  SAH1012    -0.2130
     16  C1'      -12.2980   88.1160    9.3200 C.3   1012  SAH1012     0.3185
     17  N9       -13.3710   88.8940    9.9560 N.pl3 1012  SAH1012    -0.1439
     18  C8       -13.6200   89.0850   11.3020 C.3   1012  SAH1012     0.3377
     19  N7       -14.6940   89.9160   11.4050 N.2   1012  SAH1012    -0.2095
     20  C5       -15.1150   90.2410   10.1530 C.2   1012  SAH1012     0.2526
     21  C6       -16.1640   91.0340    9.6840 C.2   1012  SAH1012     0.4393
     22  N6       -16.9370   91.6890   10.5600 N.pl3 1012  SAH1012     0.2180
     23  N1       -16.3430   91.1690    8.3090 N.2   1012  SAH1012     0.0021
     24  C2       -15.5160   90.5130    7.4160 C.3   1012  SAH1012     0.5254
     25  N3       -14.4820   89.7170    7.8890 N.2   1012  SAH1012    -0.0055
     26  C4       -14.3020   89.5900    9.2360 C.2   1012  SAH1012     0.3518
@<TRIPOS>BOND
     1     7     6   ar
     2     8     6   ar
     3     6     2    1
     4     2     1    1
     5     2     3    1
     6    24    25    1
     7    24    23    1
     8    25    26    2
     9     3     4    1
    10     5     4    1
    11     5     9    1
    12    23    21    2
    13    13    12    1
    14    10    11    1
    15    10     9    1
    16    10    12    1
    17    11    16    1
    18    26    17    1
    19    26    20    1
    20    16    17    1
    21    16    14    1
    22    12    14    1
    23    21    20    1
    24    21    22    1
    25    17    18    1
    26    15    14    1
    27    20    19    2
    28    18    19    1
