@<TRIPOS>MOLECULE
2p4i_MR9_A_1.pdb
 41 45 0 0 0
SMALL
GASTEIGER

@<TRIPOS>ATOM
      1  C26       25.9530    5.7030   91.1250 C.3   301  MR9301      0.1231
      2  C27       26.8990    4.5000   91.1830 C.3   301  MR9301      0.1636
      3  O3        26.9740    3.9770   92.5290 O.3   301  MR9301     -0.3501
      4  C28       25.6500    3.7690   93.1560 C.3   301  MR9301      0.1636
      5  C29       24.6620    4.9360   92.9980 C.3   301  MR9301      0.1231
      6  N6        24.6170    5.2400   91.5560 N.pl3 301  MR9301     -0.3018
      7  C20       23.6760    6.1310   91.2010 C.ar  301  MR9301      0.0635
      8  C21       23.4400    7.2910   91.9540 C.ar  301  MR9301      0.0158
      9  C22       22.4690    8.1870   91.5410 C.ar  301  MR9301      0.0052
     10  C23       21.7200    7.9420   90.3960 C.ar  301  MR9301      0.0728
     11  C25       20.6750    8.9700   89.9520 C.3   301  MR9301      0.4186
     12  F2        21.3370   10.0020   89.4820 F     301  MR9301     -0.1659
     13  F3        19.9610    9.3860   90.9720 F     301  MR9301     -0.1659
     14  F1        19.8730    8.5370   88.9830 F     301  MR9301     -0.1659
     15  C24       21.9590    6.8050   89.6390 C.ar  301  MR9301      0.0217
     16  C19       22.9470    5.8980   90.0270 C.ar  301  MR9301      0.0869
     17  N4        23.1440    4.7540   89.3430 N.am  301  MR9301     -0.1742
     18  C17       22.9340    4.5240   88.0380 C.2   301  MR9301      0.2691
     19  O2        22.5250    5.3640   87.2380 O.2   301  MR9301     -0.2680
     20  C12       23.1680    3.0730   87.5770 C.ar  301  MR9301      0.0584
     21  C11       22.8430    2.7280   86.2630 C.ar  301  MR9301      0.0418
     22  C13       23.6130    2.0750   88.4490 C.ar  301  MR9301      0.0045
     23  C14       23.7750    0.7660   87.9970 C.ar  301  MR9301     -0.0011
     24  C15       23.4720    0.4340   86.6820 C.ar  301  MR9301      0.0128
     25  C16       23.6560   -1.0190   86.1930 C.3   301  MR9301      0.0342
     26  C10       23.0190    1.4230   85.8110 C.ar  301  MR9301      0.1433
     27  O1        22.7010    1.1280   84.5140 O.3   301  MR9301     -0.4363
     28  C9        23.6450    1.1290   83.5410 C.ar  301  MR9301      0.2320
     29  N3        24.9540    1.1830   83.8440 N.ar  301  MR9301     -0.2098
     30  C8        25.9090    1.1820   82.9090 C.ar  301  MR9301      0.1021
     31  C7        25.5610    1.1260   81.5590 C.ar  301  MR9301      0.0210
     32  C6        24.2100    1.0640   81.2150 C.ar  301  MR9301      0.0089
     33  C5        23.2300    1.0750   82.2130 C.ar  301  MR9301      0.0841
     34  C2        21.8740    0.9870   81.8520 C.2   301  MR9301      0.1502
     35  N1        21.5510    0.8720   80.5530 N.2   301  MR9301     -0.3362
     36  C3        20.8370    0.9670   82.7960 C.2   301  MR9301      0.0547
     37  C4        19.5250    0.8470   82.3540 C.2   301  MR9301      0.1144
     38  N2        19.2880    0.7380   81.0620 N.2   301  MR9301     -0.1686
     39  C1        20.2780    0.7480   80.1600 C.1   301  MR9301      0.1653
     40  N5        20.0010    0.6550   78.8620 N.pl3 301  MR9301     -0.1602
     41  C18       21.0880    0.7800   77.8750 C.3   301  MR9301      0.1494
@<TRIPOS>BOND
     1    41    40    1
     2    40    39    1
     3    39    35    2
     4    39    38    2
     5    35    34    2
     6    38    37    1
     7    32    31   ar
     8    32    33   ar
     9    31    30   ar
    10    34    33    1
    11    34    36    1
    12    33    28   ar
    13    37    36    2
    14    30    29   ar
    15    28    29   ar
    16    28    27    1
    17    27    26    1
    18    26    21   ar
    19    26    24   ar
    20    25    24    1
    21    21    20   ar
    22    24    23   ar
    23    19    18    2
    24    20    18    1
    25    20    22   ar
    26    23    22   ar
    27    18    17   am
    28    14    11    1
    29    17    16    1
    30    12    11    1
    31    15    16   ar
    32    15    10   ar
    33    11    10    1
    34    11    13    1
    35    16     7   ar
    36    10     9   ar
    37     1     2    1
    38     1     6    1
    39     2     3    1
    40     7     6    1
    41     7     8   ar
    42     9     8   ar
    43     6     5    1
    44     3     4    1
    45     5     4    1
