@<TRIPOS>MOLECULE
2p4j_23I_A_1.pdb
 49 50 0 0 0
SMALL
GASTEIGER

@<TRIPOS>ATOM
      1  O4       -10.8270   -0.4670   31.5230 O.2   501  23I501     -0.2715
      2  C11        4.8920   -5.4360   32.8140 C.ar  501  23I501     -0.0026
      3  C12        5.7650   -4.6750   33.6240 C.ar  501  23I501     -0.0003
      4  C13        5.2300   -3.7980   34.5980 C.ar  501  23I501     -0.0000
      5  C14        3.8230   -3.6810   34.7610 C.ar  501  23I501     -0.0003
      6  C15        2.9480   -4.4420   33.9490 C.ar  501  23I501     -0.0026
      7  C16        3.4750   -5.3290   32.9680 C.ar  501  23I501     -0.0026
      8  C20        2.5640   -1.5730   25.9320 C.3   501  23I501      0.1999
      9  C21        1.5520   -5.1710   30.0280 C.2   501  23I501      0.2651
     10  C22       -3.3190   -3.9380   30.0730 C.2   501  23I501      0.2648
     11  C24        0.6620   -3.3610   28.4870 C.ar  501  23I501      0.0207
     12  C27       -1.9510   -3.7140   29.5230 C.ar  501  23I501      0.0565
     13  C30       -7.9750   -2.1290   32.1150 C.2   501  23I501      0.2414
     14  C31       -4.5810   -4.6300   32.1330 C.3   501  23I501      0.1259
     15  C32       -5.0460   -3.4840   33.0740 C.3   501  23I501      0.1722
     16  C33       -4.2590   -5.9790   32.8730 C.3   501  23I501      0.0243
     17  C34       -3.3460   -7.0010   32.1050 C.3   501  23I501      0.0018
     18  C35       -2.8000   -8.0890   33.0390 C.3   501  23I501      0.0001
     19  C17        2.5660   -6.1850   32.0580 C.3   501  23I501      0.1178
     20  C18        1.7600   -7.2710   32.7960 C.3   501  23I501      0.0283
     21  N21        1.5690   -5.3790   31.3580 N.am  501  23I501     -0.1989
     22  O21        2.4070   -5.6740   29.2800 O.2   501  23I501     -0.2684
     23  C23        0.4370   -4.3260   29.5020 C.ar  501  23I501      0.0565
     24  C25       -0.4060   -2.5550   27.9730 C.ar  501  23I501      0.0688
     25  C26       -1.7140   -2.7610   28.5170 C.ar  501  23I501      0.0207
     26  C28       -0.8620   -4.4710   29.9860 C.ar  501  23I501      0.0092
     27  N22       -0.1600   -1.5680   26.8960 N.pl3 501  23I501     -0.1925
     28  C29       -1.2280   -0.5660   26.5640 C.3   501  23I501      0.1388
     29  S2         1.4100   -0.7470   26.9990 S.O2  501  23I501      0.0588
     30  O23        1.2930    0.7300   26.4690 O.2   501  23I501     -0.1542
     31  O24        1.9970   -0.6270   28.4540 O.2   501  23I501     -0.1542
     32  O22       -4.3480   -3.8450   29.3740 O.2   501  23I501     -0.2684
     33  N3        -3.3660   -4.2990   31.3720 N.am  501  23I501     -0.2008
     34  C36       -4.0990   -7.6970   30.9680 C.3   501  23I501      0.0001
     35  C37       -5.4170   -2.2070   32.2960 C.3   501  23I501      0.0438
     36  C38       -6.6970   -1.5010   32.7630 C.3   501  23I501      0.0808
     37  C39       -6.5910    0.0110   32.4080 C.3   501  23I501      0.0097
     38  O31       -4.0250   -3.1200   33.9830 O.3   501  23I501     -0.2213
     39  O32       -7.9810   -2.5270   30.9470 O.2   501  23I501     -0.2733
     40  N4        -9.0680   -2.1900   32.8910 N.am  501  23I501     -0.1978
     41  C41      -10.3650   -2.7250   32.4070 C.3   501  23I501      0.1726
     42  C42      -11.3110   -3.0130   33.6380 C.3   501  23I501      0.0290
     43  C43      -12.6410   -3.6610   33.1960 C.3   501  23I501      0.0023
     44  C44      -11.6950   -1.7670   34.4770 C.3   501  23I501      0.0023
     45  C45      -10.8960   -1.6930   31.3340 C.2   501  23I501      0.2612
     46  N5       -11.3940   -2.2260   30.2100 N.am  501  23I501     -0.2058
     47  C51      -11.9160   -1.4450   29.0840 C.3   501  23I501      0.0955
     48  C53      -13.3220   -1.9630   28.7960 C.3   501  23I501      0.0234
     49  C52      -10.9870   -1.6680   27.8890 C.3   501  23I501      0.0234
@<TRIPOS>BOND
     1     8    29    1
     2    30    29    2
     3    28    27    1
     4    27    29    1
     5    27    24    1
     6    29    31    2
     7    49    47    1
     8    24    11   ar
     9    24    25   ar
    10    11    23   ar
    11    25    12   ar
    12    48    47    1
    13    47    46    1
    14    22     9    2
    15    32    10    2
    16    23    26   ar
    17    23     9    1
    18    12    26   ar
    19    12    10    1
    20     9    21   am
    21    10    33   am
    22    46    45   am
    23    39    13    2
    24    34    17    1
    25    45     1    2
    26    45    41    1
    27    21    19    1
    28    33    14    1
    29    19    20    1
    30    19     7    1
    31    17    16    1
    32    17    18    1
    33    13    36    1
    34    13    40   am
    35    14    16    1
    36    14    15    1
    37    35    36    1
    38    35    15    1
    39    41    40    1
    40    41    42    1
    41    37    36    1
    42     2     7   ar
    43     2     3   ar
    44     7     6   ar
    45    15    38    1
    46    43    42    1
    47     3     4   ar
    48    42    44    1
    49     6     5   ar
    50     4     5   ar
