@<TRIPOS>MOLECULE
2p4n_ADP_K_1.pdb
 27 29 0 0 0
SMALL
GASTEIGER

@<TRIPOS>ATOM
      1  PB       139.3840   21.8180   57.1520 P.3   401  ADP401      0.5373
      2  O1B      139.8420   21.9730   55.7480 O.2   401  ADP401     -0.2221
      3  O2B      138.1010   22.4500   57.4810 O.3   401  ADP401     -0.1143
      4  O3B      139.5690   20.4170   57.5980 O.3   401  ADP401     -0.1143
      5  PA       141.7540   23.5250   57.7940 P.3   401  ADP401      0.2231
      6  O1A      142.6840   22.6440   57.0860 O.2   401  ADP401     -0.5169
      7  O2A      141.2800   24.7620   57.1240 O.3   401  ADP401     -0.4370
      8  O3A      140.4220   22.6550   58.0470 O.3   401  ADP401     -0.2261
      9  O5'      142.1810   23.8800   59.2990 O.3   401  ADP401     -0.3111
     10  C5'      141.5380   24.8850   60.1060 C.3   401  ADP401      0.1813
     11  C4'      142.6320   25.7520   60.7330 C.3   401  ADP401      0.1821
     12  O4'      143.4670   24.9010   61.5410 O.3   401  ADP401     -0.3135
     13  C3'      143.5890   26.3830   59.7020 C.3   401  ADP401      0.2184
     14  O3'      144.2270   27.6090   60.1030 O.3   401  ADP401     -0.2174
     15  C2'      144.6720   25.3370   59.5840 C.3   401  ADP401      0.2570
     16  O2'      145.8640   25.8870   59.0210 O.3   401  ADP401     -0.2130
     17  C1'      144.8070   24.9390   61.0360 C.3   401  ADP401      0.3186
     18  N9       145.4690   23.6340   61.1710 N.pl3 401  ADP401     -0.1439
     19  C8       145.0600   22.4850   60.6090 C.3   401  ADP401      0.3377
     20  N7       146.0330   21.5650   60.6520 N.2   401  ADP401     -0.2095
     21  C5       147.0130   22.1640   61.3230 C.2   401  ADP401      0.2526
     22  C6       148.2850   21.6340   61.5310 C.2   401  ADP401      0.4393
     23  N6       148.5780   20.3810   61.1960 N.pl3 401  ADP401      0.2180
     24  N1       149.2050   22.4600   62.0730 N.2   401  ADP401      0.0021
     25  C2       148.8840   23.7090   62.4200 C.3   401  ADP401      0.5254
     26  N3       147.6660   24.2090   62.2190 N.2   401  ADP401     -0.0055
     27  C4       146.6990   23.4570   61.6530 C.2   401  ADP401      0.3518
@<TRIPOS>BOND
     1     2     1    2
     2     6     5    2
     3     7     5    1
     4     1     3    1
     5     1     4    1
     6     1     8    1
     7     5     8    1
     8     5     9    1
     9    16    15    1
    10     9    10    1
    11    15    13    1
    12    15    17    1
    13    13    14    1
    14    13    11    1
    15    10    11    1
    16    19    20    1
    17    19    18    1
    18    20    21    2
    19    11    12    1
    20    17    18    1
    21    17    12    1
    22    18    27    1
    23    23    22    1
    24    21    22    1
    25    21    27    1
    26    22    24    2
    27    27    26    2
    28    24    25    1
    29    26    25    1
