@<TRIPOS>MOLECULE
2p4n_GDP_B_1.pdb
 28 30 0 0 0
SMALL
GASTEIGER

@<TRIPOS>ATOM
      1  PB       106.1030    3.9020   22.3620 P.3   600  GDP600      0.5373
      2  O1B      106.5800    4.6670   23.5300 O.3   600  GDP600     -0.1143
      3  O2B      104.7180    3.8650   22.1750 O.3   600  GDP600     -0.1143
      4  O3B      106.9370    4.4000   21.0470 O.2   600  GDP600     -0.2221
      5  O3A      106.5060    2.4030   22.6300 O.3   600  GDP600     -0.2261
      6  PA       105.5540    1.0310   22.7080 P.3   600  GDP600      0.2231
      7  O1A      104.6530    1.1320   23.8900 O.3   600  GDP600     -0.4370
      8  O2A      104.8570    0.9220   21.3620 O.2   600  GDP600     -0.5169
      9  O5'      106.6270   -0.0580   22.9940 O.3   600  GDP600     -0.3111
     10  C5'      106.3970   -1.4570   22.6460 C.3   600  GDP600      0.1813
     11  C4'      106.4830   -2.3860   23.7590 C.3   600  GDP600      0.1799
     12  O4'      105.3990   -2.0730   24.7200 O.3   600  GDP600     -0.3326
     13  C3'      106.1610   -3.8840   23.4100 C.3   600  GDP600      0.2158
     14  O3'      107.0880   -4.6940   24.2210 O.3   600  GDP600     -0.2175
     15  C2'      104.7150   -4.2110   23.8540 C.3   600  GDP600      0.2310
     16  O2'      104.4060   -5.5400   24.3070 O.3   600  GDP600     -0.2158
     17  C1'      104.4730   -3.2140   24.9850 C.3   600  GDP600      0.2293
     18  N9       103.1120   -2.6800   25.0440 N.pl3 600  GDP600     -0.2354
     19  C8       102.6540   -1.7250   23.9780 C.3   600  GDP600      0.2246
     20  N7       101.3780   -1.5690   24.5470 N.2   600  GDP600     -0.2322
     21  C5       101.0460   -2.2190   25.6580 C.2   600  GDP600      0.2182
     22  C6       100.0340   -2.4670   26.6090 C.1   600  GDP600      0.2372
     23  O6        98.8760   -1.8110   26.4240 O.2   600  GDP600     -0.2069
     24  N1       100.1680   -3.2780   27.6820 N.2   600  GDP600     -0.2485
     25  C2       101.4640   -3.9820   27.8740 C.1   600  GDP600      0.2531
     26  N2       101.3620   -4.7230   28.9560 N.pl3 600  GDP600     -0.0226
     27  N3       102.4090   -3.8180   27.0450 N.2   600  GDP600     -0.3074
     28  C4       102.2400   -2.9730   26.0110 C.2   600  GDP600      0.2300
@<TRIPOS>BOND
     1     4     1    2
     2     8     6    2
     3     3     1    1
     4     1     5    1
     5     1     2    1
     6     5     6    1
     7    10     9    1
     8    10    11    1
     9     6     9    1
    10     6     7    1
    11    13    11    1
    12    13    15    1
    13    13    14    1
    14    11    12    1
    15    15    16    1
    16    15    17    1
    17    19    20    1
    18    19    18    1
    19    20    21    2
    20    12    17    1
    21    17    18    1
    22    18    28    1
    23    21    28    1
    24    21    22    1
    25    28    27    2
    26    23    22    2
    27    22    24    2
    28    27    25    2
    29    24    25    2
    30    25    26    1
