@<TRIPOS>MOLECULE
2p4n_GTP_B_1.pdb
 32 34 0 0 0
SMALL
GASTEIGER

@<TRIPOS>ATOM
      1  PG       106.8010    4.5970   61.9200 P.3   500  GTP500      0.5373
      2  O1G      105.4870    4.3650   61.2030 O.2   500  GTP500     -0.2221
      3  O2G      107.4080    5.9720   61.6080 O.3   500  GTP500     -0.1143
      4  O3G      107.8820    3.6130   61.4840 O.3   500  GTP500     -0.1143
      5  O3B      106.4070    4.3950   63.5180 O.3   500  GTP500     -0.2258
      6  PB       105.7250    3.0530   64.1910 P.3   500  GTP500      0.2277
      7  O1B      104.3140    3.2780   64.4690 O.2   500  GTP500     -0.5168
      8  O2B      106.6410    2.6740   65.3440 O.3   500  GTP500     -0.4368
      9  O3A      105.9680    1.9430   63.1680 O.3   500  GTP500     -0.2700
     10  PA       105.4370    0.5300   62.9430 P.3   500  GTP500      0.2189
     11  O1A      106.0750    0.0050   61.7020 O.2   500  GTP500     -0.5170
     12  O2A      103.9630    0.4850   62.9770 O.3   500  GTP500     -0.4371
     13  O5'      106.0820   -0.3190   64.1960 O.3   500  GTP500     -0.3112
     14  C5'      105.7090   -1.6860   64.1840 C.3   500  GTP500      0.1813
     15  C4'      106.2620   -2.5290   65.2880 C.3   500  GTP500      0.1799
     16  O4'      105.3890   -2.4880   66.4460 O.3   500  GTP500     -0.3326
     17  C3'      106.2730   -3.9690   64.8280 C.3   500  GTP500      0.2158
     18  O3'      107.2640   -4.6870   65.5270 O.3   500  GTP500     -0.2175
     19  C2'      104.8570   -4.4150   65.1590 C.3   500  GTP500      0.2310
     20  O2'      104.8400   -5.8300   65.3670 O.3   500  GTP500     -0.2158
     21  C1'      104.5210   -3.6330   66.4380 C.3   500  GTP500      0.2293
     22  N9       103.1330   -3.1520   66.5440 N.pl3 500  GTP500     -0.2354
     23  C8       102.4710   -2.3320   65.6630 C.3   500  GTP500      0.2246
     24  N7       101.2420   -2.0710   66.0160 N.2   500  GTP500     -0.2322
     25  C5       101.0680   -2.7660   67.1880 C.2   500  GTP500      0.2182
     26  C6        99.9540   -2.8760   68.0180 C.1   500  GTP500      0.2372
     27  O6        98.8650   -2.3320   67.8550 O.2   500  GTP500     -0.2069
     28  N1       100.1770   -3.6910   69.1500 N.2   500  GTP500     -0.2485
     29  C2       101.3620   -4.3360   69.4300 C.1   500  GTP500      0.2531
     30  N2       101.3910   -5.0600   70.5120 N.pl3 500  GTP500     -0.0226
     31  N3       102.4340   -4.2510   68.6430 N.2   500  GTP500     -0.3074
     32  C4       102.2350   -3.4510   67.5450 C.2   500  GTP500      0.2300
@<TRIPOS>BOND
     1     2     1    2
     2     4     1    1
     3     3     1    1
     4    11    10    2
     5     1     5    1
     6    10    12    1
     7    10     9    1
     8    10    13    1
     9     9     6    1
    10     5     6    1
    11    14    13    1
    12    14    15    1
    13     6     7    2
    14     6     8    1
    15    17    19    1
    16    17    15    1
    17    17    18    1
    18    19    20    1
    19    19    21    1
    20    15    16    1
    21    23    24    1
    22    23    22    1
    23    24    25    2
    24    21    16    1
    25    21    22    1
    26    22    32    1
    27    25    32    1
    28    25    26    1
    29    32    31    2
    30    27    26    2
    31    26    28    2
    32    31    29    2
    33    28    29    2
    34    29    30    1
