@<TRIPOS>MOLECULE
2p4q_FLC_A_1.pdb
 13 12 0 0 0
SMALL
GASTEIGER

@<TRIPOS>ATOM
      1  CAC      -24.3800   71.5610    7.7460 C.2   501  FLC501      0.3680
      2  CA       -24.8560   72.4990    8.8280 C.3   501  FLC501      0.1560
      3  CB       -26.1290   73.2360    8.4240 C.3   501  FLC501      0.2402
      4  CBC      -27.3150   72.3250    8.6430 C.2   501  FLC501      0.3927
      5  CG       -26.1990   74.5460    9.2130 C.3   501  FLC501      0.1560
      6  CGC      -27.4740   75.3290    8.9730 C.2   501  FLC501      0.3680
      7  OA1      -24.9050   71.6270    6.6160 O.co2 501  FLC501     -0.2455
      8  OA2      -23.4690   70.7470    8.0150 O.co2 501  FLC501     -0.2455
      9  OB1      -27.9730   72.0520    7.6160 O.co2 501  FLC501     -0.2429
     10  OB2      -27.5790   71.8790    9.7990 O.co2 501  FLC501     -0.2429
     11  OG1      -28.1810   75.0740    7.9710 O.co2 501  FLC501     -0.2455
     12  OG2      -27.7750   76.2140    9.8010 O.co2 501  FLC501     -0.2455
     13  OHB      -26.1140   73.5700    7.0350 O.3   501  FLC501     -0.2129
@<TRIPOS>BOND
     1     7     1   ar
     2    13     3    1
     3     9     4   ar
     4     1     8   ar
     5     1     2    1
     6    11     6   ar
     7     3     4    1
     8     3     2    1
     9     3     5    1
    10     4    10   ar
    11     6     5    1
    12     6    12   ar
