@<TRIPOS>MOLECULE
2p4s_DIH_A_1.pdb
 19 21 0 0 0
SMALL
GASTEIGER

@<TRIPOS>ATOM
      1  O5'       40.8270    5.0450  106.3490 O.3   401  DIH401     -0.2203
      2  C5'       39.8860    4.0540  106.8070 C.3   401  DIH401      0.1860
      3  C4'       38.5160    4.5440  106.4060 C.3   401  DIH401      0.0807
      4  C6'       38.4480    4.8610  104.8950 C.3   401  DIH401      0.0776
      5  C3'       37.4800    3.4770  106.6860 C.3   401  DIH401      0.1717
      6  O3'       36.2630    4.1260  107.0600 O.3   401  DIH401     -0.2215
      7  C2'       37.2610    2.8240  105.3340 C.3   401  DIH401      0.1057
      8  N1'       37.3440    3.9900  104.3990 N.3   401  DIH401     -0.2665
      9  C10       37.3790    3.5290  103.0030 C.3   401  DIH401      0.1023
     10  C9        38.6840    3.0000  102.4480 C.2   401  DIH401      0.0325
     11  C8        39.6920    3.7860  101.8280 C.2   401  DIH401      0.0983
     12  N7        40.6970    2.9590  101.4280 N.2   401  DIH401     -0.2310
     13  C5        40.3910    1.6770  101.7580 C.2   401  DIH401      0.1804
     14  C6        41.0470    0.3570  101.5360 C.1   401  DIH401      0.1716
     15  O6        42.1990    0.2510  100.9440 O.2   401  DIH401     -0.2206
     16  N1        40.3700   -0.7130  102.0030 N.2   401  DIH401     -0.1739
     17  C2        39.1630   -0.6330  102.6410 C.3   401  DIH401      0.2626
     18  N3        38.5270    0.5340  102.8280 N.2   401  DIH401     -0.2415
     19  C4        39.1340    1.6860  102.3850 C.2   401  DIH401      0.1058
@<TRIPOS>BOND
     1    15    14    2
     2    12    13    2
     3    12    11    1
     4    14    13    1
     5    14    16    2
     6    13    19    1
     7    11    10    2
     8    16    17    1
     9    19    10    1
    10    19    18    2
    11    10     9    1
    12    17    18    1
    13     9     8    1
    14     8     4    1
    15     8     7    1
    16     4     3    1
    17     7     5    1
    18     1     2    1
    19     3     5    1
    20     3     2    1
    21     5     6    1
