@<TRIPOS>MOLECULE
2p4t_NAP_A_1.pdb
 26 27 0 0 0
SMALL
GASTEIGER

@<TRIPOS>ATOM
      1  PA        42.1590   28.4130   27.5630 P.3   157  NAP157      0.5373
      2  O1A       41.8770   27.6730   26.4030 O.2   157  NAP157     -0.2221
      3  O2A       41.4240   28.1620   28.8440 O.3   157  NAP157     -0.1143
      4  O5B       43.2960   27.7920   28.1110 O.3   157  NAP157     -0.1143
      5  O3        42.4030   29.8720   27.0960 O.3   157  NAP157     -0.2261
      6  PN        41.7280   30.7840   26.0100 P.3   157  NAP157      0.2231
      7  O1N       42.2390   30.5180   24.5760 O.2   157  NAP157     -0.5169
      8  O2N       41.8010   32.2800   26.3060 O.3   157  NAP157     -0.4370
      9  O5D       40.3110   30.4870   25.9280 O.3   157  NAP157     -0.3111
     10  C5D       39.7090   31.5030   25.8160 C.3   157  NAP157      0.1813
     11  C4D       39.5240   31.7030   27.1610 C.3   157  NAP157      0.1799
     12  O4D       38.6970   32.7750   27.4200 O.3   157  NAP157     -0.3327
     13  C3D       38.8100   30.3940   27.3050 C.3   157  NAP157      0.2158
     14  O3D       39.2810   29.8620   28.5830 O.3   157  NAP157     -0.2175
     15  C2D       37.4130   30.9270   27.2950 C.3   157  NAP157      0.2309
     16  O2D       36.8600   30.2300   28.2690 O.3   157  NAP157     -0.2158
     17  C1D       37.3850   32.2840   27.8380 C.3   157  NAP157      0.2263
     18  N1N       36.4970   33.3030   27.5970 N.pl3 157  NAP157     -0.2787
     19  C2N       35.9320   33.7650   28.7770 C.3   157  NAP157      0.1244
     20  C3N       34.9740   34.7110   28.6340 C.2   157  NAP157      0.0544
     21  C7N       34.3680   35.2950   29.8350 C.2   157  NAP157      0.2818
     22  O7N       33.2100   35.6530   29.7970 O.2   157  NAP157     -0.2670
     23  N7N       34.8560   35.2020   30.9670 N.am  157  NAP157     -0.0839
     24  C4N       34.5200   35.1970   27.3830 C.2   157  NAP157      0.0033
     25  C5N       35.0700   34.6770   26.1800 C.2   157  NAP157      0.0157
     26  C6N       36.0510   33.6950   26.3270 C.2   157  NAP157      0.0633
@<TRIPOS>BOND
     1     7     6    2
     2    10     9    1
     3    10    11    1
     4     9     6    1
     5     6     8    1
     6     6     5    1
     7    25    26    2
     8    25    24    1
     9    26    18    1
    10     2     1    2
    11     5     1    1
    12    11    13    1
    13    11    12    1
    14    15    13    1
    15    15    17    1
    16    15    16    1
    17    13    14    1
    18    24    20    2
    19    12    17    1
    20     1     4    1
    21     1     3    1
    22    18    17    1
    23    18    19    1
    24    20    19    1
    25    20    21    1
    26    22    21    2
    27    21    23   am
