@<TRIPOS>MOLECULE
2p4y_C03_A_1.pdb
 40 44 0 0 0
SMALL
GASTEIGER

@<TRIPOS>ATOM
      1  C1        15.7060    5.0230   15.8040 C.ar  478  C03478      0.0373
      2  C2        14.5690    4.8940   15.0080 C.ar  478  C03478      0.0046
      3  C3        14.7540    4.8640   13.4680 C.ar  478  C03478      0.0186
      4  C4        15.9600    4.9680   12.8790 C.ar  478  C03478      0.0630
      5  C5        17.1240    5.1010   13.7060 C.ar  478  C03478      0.0543
      6  C6        17.0010    5.1260   15.1730 C.ar  478  C03478      0.1482
      7  C10       13.6520    4.7270   12.5630 C.ar  478  C03478      0.0340
      8  C11       14.3400    4.7660   11.3250 C.ar  478  C03478      0.0393
      9  N12       15.7630    4.9160   11.4830 N.ar  478  C03478     -0.3263
     10  C13       12.1760    4.5870   12.8970 C.ar  478  C03478      0.1240
     11  C14       13.6790    4.6670    9.9520 C.3   478  C03478      0.0501
     12  C18       16.8450    5.0030   10.4580 C.3   478  C03478      0.1333
     13  O19       18.1770    5.2480   15.8840 O.3   478  C03478     -0.4044
     14  C20       18.8370    4.1520   16.4650 C.3   478  C03478      0.5753
     15  F21       19.9500    4.6200   16.9880 F     478  C03478     -0.1328
     16  F22       19.1280    3.2360   15.5240 F     478  C03478     -0.1328
     17  F23       18.0820    3.6260   17.4220 F     478  C03478     -0.1328
     18  C24       17.1860    6.4530    9.9960 C.ar  478  C03478      0.0140
     19  C27       16.2810    7.5630   10.3110 C.ar  478  C03478      0.0354
     20  C28       16.5450    8.9190    9.9100 C.ar  478  C03478      0.1390
     21  C29       17.7510    9.1930    9.1630 C.ar  478  C03478      0.0378
     22  C30       18.6650    8.1390    8.8330 C.ar  478  C03478      0.0142
     23  C31       18.3910    6.7900    9.2440 C.ar  478  C03478      0.0557
     24 CL1        19.5630    5.6330    8.7920 Cl    478  C03478     -0.0825
     25  O36       15.5840    9.9040   10.3050 O.3   478  C03478     -0.4677
     26  C37       15.1050   10.9540    9.4340 C.3   478  C03478      0.2677
     27  C38       14.1280   11.7970   10.2660 C.3   478  C03478      0.0598
     28  C42       14.2750   10.4740    8.2450 C.2   478  C03478      0.4040
     29  O44       14.1880   11.0690    7.2330 O.co2 478  C03478     -0.2416
     30  O45       13.6520    9.3050    8.4960 O.co2 478  C03478     -0.2416
     31  N46       11.0630    5.2530   12.4460 N.ar  478  C03478     -0.0769
     32  O47        9.9160    4.8200   13.0360 O.2   478  C03478     -0.3533
     33  C48       10.2160    3.8320   13.9190 C.ar  478  C03478      0.1799
     34  C49       11.6320    3.6550   13.8470 C.ar  478  C03478      0.0582
     35  C50        9.3930    3.0830   14.7690 C.ar  478  C03478      0.0771
     36  C51        9.9840    2.0600   15.6400 C.ar  478  C03478      0.1419
     37  C52       11.3960    1.8370   15.6000 C.ar  478  C03478      0.0372
     38  C53       12.2150    2.6010   14.7370 C.ar  478  C03478      0.0078
     39  O57        9.1060    1.3610   16.4600 O.3   478  C03478     -0.4713
     40  C58        8.3730    2.0540   17.4470 C.3   478  C03478      0.2525
@<TRIPOS>BOND
     1    29    28   ar
     2    28    30   ar
     3    28    26    1
     4    24    23    1
     5    22    21   ar
     6    22    23   ar
     7    21    20   ar
     8    23    18   ar
     9    26    27    1
    10    26    25    1
    11    20    25    1
    12    20    19   ar
    13    11     8    1
    14    18    19   ar
    15    18    12    1
    16    12     9    1
    17     8     9   ar
    18     8     7   ar
    19     9     4   ar
    20    31    10   ar
    21    31    32   ar
    22     7    10    1
    23     7     3   ar
    24     4     3   ar
    25     4     5   ar
    26    10    34   ar
    27    32    33   ar
    28     3     2   ar
    29     5     6   ar
    30    34    33   ar
    31    34    38   ar
    32    33    35   ar
    33    38    37   ar
    34    35    36   ar
    35     2     1   ar
    36     6     1   ar
    37     6    13    1
    38    16    14    1
    39    37    36   ar
    40    36    39    1
    41    13    14    1
    42    39    40    1
    43    14    15    1
    44    14    17    1
