@<TRIPOS>MOLECULE
2p53_NNG_A_1.pdb
 20 20 0 0 0
SMALL
GASTEIGER

@<TRIPOS>ATOM
      1  C1       -35.3460   15.5200  -12.1780 C.3   411  NNG411      0.2882
      2  C2       -34.8400   15.5980  -10.7170 C.3   411  NNG411      0.1737
      3  C3       -34.8400   17.0790  -10.2370 C.3   411  NNG411      0.2061
      4  C4       -34.0620   17.9690  -11.2290 C.3   411  NNG411      0.2132
      5  C5       -34.6320   17.7620  -12.6620 C.3   411  NNG411      0.1807
      6  C6       -33.8240   18.6020  -13.6700 C.3   411  NNG411      0.1859
      7  P7       -35.2350   13.9130   -8.6440 P.3   411  NNG411      0.3265
      8  C8       -36.5800   13.1020   -7.8030 C.3   411  NNG411      0.1179
      9  N2       -35.7510   14.8260   -9.8860 N.3   411  NNG411     -0.1379
     10  O1       -36.7210   15.9220  -12.2530 O.3   411  NNG411     -0.1882
     11  O3       -34.2160   17.1660   -8.9520 O.3   411  NNG411     -0.2186
     12  O4       -34.2250   19.3460  -10.8500 O.3   411  NNG411     -0.2176
     13  O5       -34.5380   16.3620  -13.0400 O.3   411  NNG411     -0.3246
     14  O6       -32.4360   18.2770  -13.5480 O.3   411  NNG411     -0.2675
     15  O71      -34.3570   12.8430   -9.2120 O.2   411  NNG411     -0.2686
     16  O72      -34.3380   14.8530   -7.6980 O.3   411  NNG411     -0.1502
     17  P        -31.5820   19.1540  -14.6070 P.3   411  NNG411      0.5327
     18  O1P      -30.1640   19.1130  -14.2030 O.3   411  NNG411     -0.1145
     19  O2P      -31.7400   18.5280  -16.0800 O.2   411  NNG411     -0.2224
     20  O3P      -32.0920   20.6860  -14.6280 O.3   411  NNG411     -0.1145
@<TRIPOS>BOND
     1    19    17    2
     2    20    17    1
     3    17    18    1
     4    17    14    1
     5     6    14    1
     6     6     5    1
     7    13     5    1
     8    13     1    1
     9     5     4    1
    10    10     1    1
    11     1     2    1
    12     4    12    1
    13     4     3    1
    14     2     3    1
    15     2     9    1
    16     3    11    1
    17     9     7    1
    18    15     7    2
    19     7     8    1
    20     7    16    1
