@<TRIPOS>MOLECULE
2p55_ATP_A_1.pdb
 43 45 0 0 0
SMALL
GASTEIGER

@<TRIPOS>ATOM
      1  PG        53.0000   36.1320   -2.2780 P.3   9001  ATP9001     0.5373
      2  O1G       53.5540   36.8610   -1.0840 O.3   9001  ATP9001    -0.1143
      3  O2G       54.0370   35.8300   -3.3070 O.2   9001  ATP9001    -0.2221
      4  O3G       52.1300   34.9610   -1.9220 O.3   9001  ATP9001    -0.1143
      5  PB        51.0110   36.9830   -4.1440 P.3   9001  ATP9001     0.2277
      6  O1B       49.9870   35.9790   -3.6900 O.3   9001  ATP9001    -0.4368
      7  O2B       50.5580   38.3400   -4.6060 O.2   9001  ATP9001    -0.5168
      8  O3B       52.0400   37.2450   -2.9330 O.3   9001  ATP9001    -0.2258
      9  PA        51.3210   35.5750   -6.6010 P.3   9001  ATP9001     0.2182
     10  O1A       52.4230   35.4580   -7.6150 O.2   9001  ATP9001    -0.5170
     11  O2A       50.6070   34.3340   -6.1470 O.3   9001  ATP9001    -0.4371
     12  O3A       51.9160   36.3140   -5.2970 O.3   9001  ATP9001    -0.2700
     13  O5'       50.2400   36.6010   -7.2010 O.3   9001  ATP9001    -0.3246
     14  C5'       50.6550   37.8400   -7.7680 C.3   9001  ATP9001     0.0836
     15  C4'       49.4700   38.7490   -8.0870 C.3   9001  ATP9001     0.1131
     16  O4'       48.8860   38.3670   -9.3360 O.3   9001  ATP9001    -0.3474
     17  C3'       48.3410   38.7340   -7.0610 C.3   9001  ATP9001     0.1133
     18  O3'       48.5080   39.7460   -6.0800 O.3   9001  ATP9001    -0.3864
     19  C2'       47.0910   38.9570   -7.8890 C.3   9001  ATP9001     0.1266
     20  O2'       46.7000   40.3210   -7.8750 O.3   9001  ATP9001    -0.3849
     21  C1'       47.4690   38.5360   -9.2980 C.3   9001  ATP9001     0.1617
     22  N9        46.8100   37.2580   -9.6500 N.pl3 9001  ATP9001    -0.2234
     23  C8        47.2540   36.0230   -9.3520 C.2   9001  ATP9001     0.1451
     24  N7        46.4030   35.0850   -9.8310 N.2   9001  ATP9001    -0.3871
     25  C5        45.3990   35.7170  -10.4430 C.2   9001  ATP9001     0.2211
     26  C6        44.1620   35.3280  -11.1630 C.2   9001  ATP9001     0.2227
     27  N6        43.8250   34.0280  -11.3220 N.pl3 9001  ATP9001    -0.3300
     28  N1        43.3900   36.3090  -11.6460 N.2   9001  ATP9001    -0.3296
     29  C2        43.6960   37.6120  -11.4970 C.1   9001  ATP9001     0.0930
     30  N3        44.8010   38.0310  -10.8570 N.2   9001  ATP9001    -0.3287
     31  C4        45.6660   37.1560  -10.3240 C.2   9001  ATP9001     0.2354
     32 H5'1       51.2310   37.6520   -8.6810 H     9001  ATP9001     0.0591
     33 H5'2       51.3350   38.3520   -7.0760 H     9001  ATP9001     0.0591
     34  H4'       49.8380   39.7760   -8.1800 H     9001  ATP9001     0.0647
     35  H3'       48.2930   37.7520   -6.5760 H     9001  ATP9001     0.0647
     36 HO3'       49.2070   39.4650   -5.4800 H     9001  ATP9001     0.2100
     37  H2'       46.2740   38.3280   -7.5140 H     9001  ATP9001     0.0663
     38 HO2'       46.5260   40.5720   -6.9630 H     9001  ATP9001     0.2101
     39  H1'       47.1710   39.3140  -10.0090 H     9001  ATP9001     0.0841
     40  H8        48.1660   35.8100   -8.8030 H     9001  ATP9001     0.1149
     41 HN61       44.4290   33.2940  -10.9460 H     9001  ATP9001     0.1448
     42 HN62       42.9660   33.7800  -11.8210 H     9001  ATP9001     0.1448
     43  H2        43.0240   38.3550  -11.9140 H     9001  ATP9001     0.1751
@<TRIPOS>BOND
     1    43    29    1
     2    42    27    1
     3    28    29    2
     4    28    26    2
     5    29    30    2
     6    27    26    1
     7    27    41    1
     8    26    25    1
     9    30    31    2
    10    25    31    1
    11    25    24    2
    12    31    22    1
    13    39    21    1
    14    24    23    2
    15    22    23    1
    16    22    21    1
    17    23    40    1
    18    16    21    1
    19    16    15    1
    20    21    19    1
    21    32    14    1
    22    34    15    1
    23    15    14    1
    24    15    17    1
    25    19    20    1
    26    19    37    1
    27    19    17    1
    28    20    38    1
    29    14    13    1
    30    14    33    1
    31    10     9    2
    32    13     9    1
    33    17    35    1
    34    17    18    1
    35     9    11    1
    36     9    12    1
    37    18    36    1
    38    12     5    1
    39     7     5    2
    40     5     6    1
    41     5     8    1
    42     3     1    2
    43     8     1    1
    44     1     4    1
    45     1     2    1
