@<TRIPOS>MOLECULE
2p55_MRA_A_1.pdb
 38 39 0 0 0
SMALL
GASTEIGER

@<TRIPOS>ATOM
      1  C1        46.3550   27.9750   -8.4640 C.ar  9000  MRA9000    -0.0092
      2  C2        47.6920   27.8810   -8.0230 C.ar  9000  MRA9000     0.1456
      3  C3        48.0810   27.0540   -6.9530 C.ar  9000  MRA9000     0.0671
      4  C4        47.0520   26.2970   -6.3000 C.ar  9000  MRA9000    -0.0366
      5  C5        45.7150   26.3780   -6.7300 C.ar  9000  MRA9000    -0.0444
      6  C6        45.3730   27.2140   -7.8090 C.ar  9000  MRA9000     0.0275
      7  C7        44.0100   27.2920   -8.2540 C.1   9000  MRA9000    -0.0696
      8  C8        42.8780   27.3250   -8.6280 C.1   9000  MRA9000    -0.1139
      9  N1        49.4460   27.0650   -6.6460 N.pl3 9000  MRA9000    -0.3094
     10  C9        50.1690   26.3900   -5.6700 C.ar  9000  MRA9000     0.0822
     11  C10       51.0450   27.1160   -4.7890 C.ar  9000  MRA9000     0.0628
     12  C11       51.7730   26.4160   -3.7880 C.ar  9000  MRA9000    -0.0449
     13  C12       51.6450   25.0210   -3.6530 C.ar  9000  MRA9000    -0.0228
     14  C13       50.8010   24.3330   -4.5240 C.ar  9000  MRA9000     0.1603
     15  C14       50.0880   24.9940   -5.5090 C.ar  9000  MRA9000     0.1801
     16  F1        49.3090   24.2670   -6.3120 F     9000  MRA9000    -0.2005
     17  F2        50.6810   23.0090   -4.4030 F     9000  MRA9000    -0.2024
     18  C15       51.2000   28.5740   -4.9400 C.2   9000  MRA9000     0.2686
     19  O1        50.8700   29.1500   -5.9670 O.2   9000  MRA9000    -0.2680
     20  N2        51.7520   29.2680   -3.9190 N.am  9000  MRA9000    -0.1904
     21  O2        51.9610   30.6750   -4.0090 O.3   9000  MRA9000    -0.2773
     22  C16       53.0120   31.1110   -4.8900 C.3   9000  MRA9000     0.0963
     23  C17       53.7630   32.3570   -4.4180 C.3   9000  MRA9000     0.0698
     24  O3        53.5980   32.5940   -3.0360 O.3   9000  MRA9000    -0.3927
     25  F3        48.6400   28.6040   -8.6480 F     9000  MRA9000    -0.2035
     26  H1        46.0900   28.6230   -9.2930 H     9000  MRA9000     0.0659
     27  H4        47.3080   25.6530   -5.4650 H     9000  MRA9000     0.0637
     28  H5        44.9480   25.7960   -6.2300 H     9000  MRA9000     0.0630
     29  H8        41.8700   27.3540   -8.9590 H     9000  MRA9000     0.1232
     30  HN1       50.0100   27.6740   -7.2440 H     9000  MRA9000     0.1523
     31  H11       52.4320   26.9630   -3.1220 H     9000  MRA9000     0.0627
     32  H12       52.1950   24.4880   -2.8840 H     9000  MRA9000     0.0647
     33  HN2       52.0260   28.7740   -3.0660 H     9000  MRA9000     0.1828
     34 H161       52.5870   31.3060   -5.8810 H     9000  MRA9000     0.0606
     35 H162       53.7290   30.2920   -5.0200 H     9000  MRA9000     0.0606
     36 H171       54.8310   32.2500   -4.6450 H     9000  MRA9000     0.0581
     37 H172       53.4150   33.2310   -4.9810 H     9000  MRA9000     0.0581
     38  HO3       54.2670   33.2300   -2.7610 H     9000  MRA9000     0.2095
@<TRIPOS>BOND
     1    26     1    1
     2    29     8    1
     3    25     2    1
     4     8     7    3
     5     1     2   ar
     6     1     6   ar
     7     7     6    1
     8     2     3   ar
     9     6     5   ar
    10    30     9    1
    11     3     9    1
    12     3     4   ar
    13     5     4   ar
    14     5    28    1
    15     9    10    1
    16    16    15    1
    17     4    27    1
    18    19    18    2
    19    34    22    1
    20    10    15   ar
    21    10    11   ar
    22    15    14   ar
    23    35    22    1
    24    37    23    1
    25    18    11    1
    26    18    20   am
    27    22    23    1
    28    22    21    1
    29    11    12   ar
    30    36    23    1
    31    14    17    1
    32    14    13   ar
    33    23    24    1
    34    21    20    1
    35    20    33    1
    36    12    13   ar
    37    12    31    1
    38    13    32    1
    39    24    38    1
