@<TRIPOS>MOLECULE
2p5b_OGA_A_1.pdb
 10 9 0 0 0
SMALL
GASTEIGER

@<TRIPOS>ATOM
      1  C1       -29.1800  -21.3280  -23.8090 C.2   401  OGA401      0.4419
      2  C2       -27.8740  -21.6810  -23.1630 C.2   401  OGA401      0.3455
      3  C4       -25.4410  -21.9730  -23.2790 C.3   401  OGA401      0.2290
      4  C5       -24.3190  -21.8780  -24.2800 C.2   401  OGA401      0.3866
      5  O1       -29.2100  -21.0160  -24.9820 O.co2 401  OGA401     -0.2354
      6  O2       -30.3190  -21.3530  -23.0880 O.co2 401  OGA401     -0.2354
      7  O2'      -27.8440  -21.9950  -21.9790 O.2   401  OGA401     -0.2611
      8  O3       -23.0740  -22.1440  -23.8770 O.co2 401  OGA401     -0.2437
      9  N1       -26.7320  -21.6450  -23.8970 N.am  401  OGA401     -0.1838
     10  O4       -24.5360  -21.5670  -25.4360 O.co2 401  OGA401     -0.2437
@<TRIPOS>BOND
     1    10     4   ar
     2     5     1   ar
     3     4     8   ar
     4     4     3    1
     5     9     3    1
     6     9     2   am
     7     1     2    1
     8     1     6   ar
     9     2     7    2
