@<TRIPOS>MOLECULE
2p5c_SAH_A_1.pdb
 26 28 0 0 0
SMALL
GASTEIGER

@<TRIPOS>ATOM
      1  N         33.9750   93.8880   67.6800 N.3   1301  SAH1301    -0.1208
      2  CA        32.5560   93.3730   67.4820 C.3   1301  SAH1301     0.1952
      3  CB        31.9050   92.6420   68.6160 C.3   1301  SAH1301     0.0422
      4  CG        32.5640   91.4100   69.1980 C.3   1301  SAH1301     0.0597
      5  SD        31.3810   90.7080   70.4170 S.3   1301  SAH1301    -0.1375
      6  C         31.6830   94.6240   67.0520 C.2   1301  SAH1301     0.3819
      7  O         32.2350   95.7410   66.9580 O.co2 1301  SAH1301    -0.2441
      8  OXT       30.4220   94.3900   66.8170 O.co2 1301  SAH1301    -0.2441
      9  C5'       30.5450   89.5240   69.4380 C.3   1301  SAH1301     0.0899
     10  C4'       29.0370   89.4400   69.9170 C.3   1301  SAH1301     0.1630
     11  O4'       28.4290   90.7230   69.6390 O.3   1301  SAH1301    -0.3153
     12  C3'       28.1930   88.4110   69.2390 C.3   1301  SAH1301     0.2168
     13  O3'       28.2980   87.1570   69.9100 O.3   1301  SAH1301    -0.2175
     14  C2'       26.7930   89.0580   69.3130 C.3   1301  SAH1301     0.2569
     15  O2'       26.1490   88.7820   70.5630 O.3   1301  SAH1301    -0.2130
     16  C1'       27.0510   90.5560   69.0680 C.3   1301  SAH1301     0.3185
     17  N9        27.0120   90.9240   67.7770 N.pl3 1301  SAH1301    -0.1439
     18  C8        27.9640   91.2140   66.8130 C.3   1301  SAH1301     0.3377
     19  N7        27.4900   91.5460   65.6480 N.2   1301  SAH1301    -0.2095
     20  C5        26.0720   91.4850   65.8130 C.2   1301  SAH1301     0.2526
     21  C6        24.9850   91.7400   64.9020 C.2   1301  SAH1301     0.4393
     22  N6        25.1370   92.1100   63.6220 N.pl3 1301  SAH1301     0.2180
     23  N1        23.7280   91.5730   65.4400 N.2   1301  SAH1301     0.0021
     24  C2        23.5020   91.1970   66.7310 C.3   1301  SAH1301     0.5254
     25  N3        24.5160   90.9450   67.6280 N.2   1301  SAH1301    -0.0055
     26  C4        25.7660   91.1090   67.1020 C.2   1301  SAH1301     0.3518
@<TRIPOS>BOND
     1    22    21    1
     2    21    23    2
     3    21    20    1
     4    23    24    1
     5    19    20    2
     6    19    18    1
     7    20    26    1
     8    24    25    1
     9    18    17    1
    10     8     6   ar
    11     7     6   ar
    12     6     2    1
    13    26    25    2
    14    26    17    1
    15     2     1    1
    16     2     3    1
    17    17    16    1
    18     3     4    1
    19    16    14    1
    20    16    11    1
    21     4     5    1
    22    12    14    1
    23    12    13    1
    24    12    10    1
    25    14    15    1
    26     9    10    1
    27     9     5    1
    28    11    10    1
