@<TRIPOS>MOLECULE
2p5f_SAH_A_1.pdb
 26 28 0 0 0
SMALL
GASTEIGER

@<TRIPOS>ATOM
      1  N         33.5460   92.5850   67.4380 N.3   301  SAH301     -0.1208
      2  CA        32.1010   92.1120   67.3350 C.3   301  SAH301      0.1952
      3  CB        31.4830   91.4490   68.5430 C.3   301  SAH301      0.0422
      4  CG        32.1230   90.2070   69.1390 C.3   301  SAH301      0.0597
      5  SD        30.9230   89.4730   70.3450 S.3   301  SAH301     -0.1375
      6  C         31.2590   93.3860   66.9030 C.2   301  SAH301      0.3819
      7  O         31.8490   94.4700   66.7420 O.co2 301  SAH301     -0.2441
      8  OXT       29.9910   93.2100   66.7440 O.co2 301  SAH301     -0.2441
      9  C5'       30.0420   88.3060   69.3920 C.3   301  SAH301      0.0899
     10  C4'       28.5500   88.2940   69.9060 C.3   301  SAH301      0.1630
     11  O4'       27.9790   89.6040   69.6450 O.3   301  SAH301     -0.3153
     12  C3'       27.6500   87.3010   69.2610 C.3   301  SAH301      0.2168
     13  O3'       27.7470   86.0320   69.8930 O.3   301  SAH301     -0.2175
     14  C2'       26.2680   87.9960   69.3920 C.3   301  SAH301      0.2569
     15  O2'       25.6290   87.7680   70.6510 O.3   301  SAH301     -0.2130
     16  C1'       26.5800   89.5020   69.0880 C.3   301  SAH301      0.3185
     17  N9        26.5140   89.8890   67.7270 N.pl3 301  SAH301     -0.1439
     18  C8        27.4720   90.1530   66.7610 C.3   301  SAH301      0.3377
     19  N7        26.9990   90.4860   65.5880 N.2   301  SAH301     -0.2095
     20  C5        25.5880   90.4540   65.7510 C.2   301  SAH301      0.2526
     21  C6        24.5090   90.7280   64.8310 C.2   301  SAH301      0.4393
     22  N6        24.6850   91.0900   63.5570 N.pl3 301  SAH301      0.2180
     23  N1        23.2430   90.5870   65.3590 N.2   301  SAH301      0.0021
     24  C2        23.0090   90.2190   66.6550 C.3   301  SAH301      0.5254
     25  N3        24.0120   89.9530   67.5620 N.2   301  SAH301     -0.0055
     26  C4        25.2710   90.0900   67.0410 C.2   301  SAH301      0.3518
@<TRIPOS>BOND
     1    22    21    1
     2    21    23    2
     3    21    20    1
     4    23    24    1
     5    19    20    2
     6    19    18    1
     7    20    26    1
     8    24    25    1
     9     7     6   ar
    10     8     6   ar
    11    18    17    1
    12     6     2    1
    13    26    25    2
    14    26    17    1
    15     2     1    1
    16     2     3    1
    17    17    16    1
    18     3     4    1
    19    16    14    1
    20    16    11    1
    21     4     5    1
    22    12    14    1
    23    12    13    1
    24    12    10    1
    25    14    15    1
    26     9    10    1
    27     9     5    1
    28    11    10    1
