@<TRIPOS>MOLECULE
2p5m_ARG_B_1.pdb
 12 11 0 0 0
SMALL
GASTEIGER

@<TRIPOS>ATOM
      1  N          8.0990   83.6920   16.4410 N.3   201  ARG201     -0.1208
      2  CA         7.4970   84.8430   15.6830 C.3   201  ARG201      0.1944
      3  C          6.9200   85.8630   16.6530 C.2   201  ARG201      0.3819
      4  O          6.7320   87.0410   16.3350 O.co2 201  ARG201     -0.2441
      5  CB         6.4060   84.3170   14.7670 C.3   201  ARG201      0.0343
      6  CG         5.2660   83.6360   15.4920 C.3   201  ARG201      0.0490
      7  CD         4.3420   83.0200   14.4260 C.3   201  ARG201      0.2205
      8  NE         3.1440   82.3820   14.9630 N.pl3 201  ARG201     -0.0865
      9  CZ         1.9940   83.0000   15.2060 C.cat 201  ARG201      0.5346
     10  NH1        1.8660   84.3110   15.0100 N.pl3 201  ARG201      0.1354
     11  NH2        0.9600   82.3070   15.6630 N.pl3 201  ARG201      0.1354
     12  OXT        6.6300   85.5080   17.8080 O.co2 201  ARG201     -0.2441
@<TRIPOS>BOND
     1     7     8    1
     2     7     6    1
     3     5     6    1
     4     5     2    1
     5     8     9    2
     6    10     9    1
     7     9    11    1
     8     2     1    1
     9     2     3    1
    10     4     3   ar
    11     3    12   ar
