@<TRIPOS>MOLECULE
2p5n_NAP_A_1.pdb
 48 52 0 0 0
SMALL
GASTEIGER

@<TRIPOS>ATOM
      1  PA        27.7740   27.3610   -1.6680 P.3   1350  NAP1350     0.2189
      2  O1A       26.7120   27.1410   -0.6340 O.3   1350  NAP1350    -0.4371
      3  O2A       27.9820   26.3410   -2.7520 O.2   1350  NAP1350    -0.5170
      4  O5B       29.1930   27.5380   -0.9530 O.3   1350  NAP1350    -0.3112
      5  C5B       29.1310   28.3740    0.2170 C.3   1350  NAP1350     0.1813
      6  C4B       30.5420   28.7240    0.6760 C.3   1350  NAP1350     0.1820
      7  O4B       31.2860   27.5570    0.9380 O.3   1350  NAP1350    -0.3136
      8  C3B       31.3750   29.5200   -0.3070 C.3   1350  NAP1350     0.2157
      9  O3B       31.2960   30.9220    0.0620 O.3   1350  NAP1350    -0.2175
     10  C2B       32.7740   28.9460   -0.2170 C.3   1350  NAP1350     0.2314
     11  O2B       33.6850   29.9180    0.3070 O.3   1350  NAP1350    -0.2630
     12  C1B       32.6710   27.8400    0.8060 C.3   1350  NAP1350     0.3158
     13  N9A       33.3500   26.5770    0.4570 N.pl3 1350  NAP1350    -0.1439
     14  C8A       33.2640   25.9130   -0.7080 C.3   1350  NAP1350     0.3377
     15  N7A       33.9980   24.7830   -0.6740 N.2   1350  NAP1350    -0.2095
     16  C5A       34.5210   24.7090    0.5750 C.2   1350  NAP1350     0.2526
     17  C6A       35.3580   23.7630    1.1810 C.2   1350  NAP1350     0.4393
     18  N6A       35.7820   22.6310    0.5050 N.pl3 1350  NAP1350     0.2180
     19  N1A       35.7210   24.0150    2.4750 N.2   1350  NAP1350     0.0021
     20  C2A       35.2950   25.1170    3.1130 C.3   1350  NAP1350     0.5254
     21  N3A       34.5030   26.0470    2.5590 N.2   1350  NAP1350    -0.0055
     22  C4A       34.1150   25.8570    1.2650 C.2   1350  NAP1350     0.3518
     23  O3        27.5180   28.7720   -2.3600 O.3   1350  NAP1350    -0.2703
     24  PN        26.1530   29.2360   -3.0750 P.3   1350  NAP1350     0.2189
     25  O1N       25.9980   30.7150   -2.7730 O.3   1350  NAP1350    -0.4371
     26  O2N       24.9710   28.3880   -2.9020 O.2   1350  NAP1350    -0.5170
     27  O5D       26.6700   29.2150   -4.6080 O.3   1350  NAP1350    -0.3112
     28  C5D       26.7080   28.0490   -5.4260 C.3   1350  NAP1350     0.1813
     29  C4D       26.0320   28.3410   -6.7650 C.3   1350  NAP1350     0.1799
     30  O4D       24.6160   28.3640   -6.5880 O.3   1350  NAP1350    -0.3327
     31  C3D       26.2160   29.6990   -7.3810 C.3   1350  NAP1350     0.2158
     32  O3D       27.5240   29.8730   -7.8740 O.3   1350  NAP1350    -0.2175
     33  C2D       25.1120   29.7490   -8.4150 C.3   1350  NAP1350     0.2309
     34  O2D       25.3520   28.7750   -9.4380 O.3   1350  NAP1350    -0.2158
     35  C1D       23.9740   29.1080   -7.6340 C.3   1350  NAP1350     0.2263
     36  N1N       22.9180   29.9700   -7.0540 N.pl3 1350  NAP1350    -0.2787
     37  C2N       21.6290   29.8190   -7.4560 C.3   1350  NAP1350     0.1244
     38  C3N       20.5900   30.5940   -6.9180 C.2   1350  NAP1350     0.0544
     39  C7N       19.1940   30.4700   -7.3900 C.2   1350  NAP1350     0.2818
     40  O7N       18.3650   31.3460   -7.1440 O.2   1350  NAP1350    -0.2670
     41  N7N       18.9170   29.4240   -8.1370 N.am  1350  NAP1350    -0.0839
     42  C4N       20.8840   31.5220   -5.9090 C.2   1350  NAP1350     0.0033
     43  C5N       22.2010   31.6170   -5.4890 C.2   1350  NAP1350     0.0157
     44  C6N       23.2120   30.8810   -6.1030 C.2   1350  NAP1350     0.0633
     45  P2B       35.1320   30.2000   -0.3020 P.3   1350  NAP1350     0.5328
     46  O1X       35.9650   28.9900   -0.4830 O.3   1350  NAP1350    -0.1145
     47  O2X       34.8610   30.8170   -1.6530 O.2   1350  NAP1350    -0.2224
     48  O3X       35.7090   31.1390    0.7420 O.3   1350  NAP1350    -0.1145
@<TRIPOS>BOND
     1    34    33    1
     2    33    35    1
     3    33    31    1
     4    41    39   am
     5    32    31    1
     6    35    36    1
     7    35    30    1
     8    37    36    1
     9    37    38    1
    10    39    40    2
    11    39    38    1
    12    31    29    1
    13    36    44    1
    14    38    42    2
    15    29    30    1
    16    29    28    1
    17    44    43    2
    18    42    43    1
    19    28    27    1
    20    27    24    1
    21    24    26    2
    22    24    25    1
    23    24    23    1
    24     3     1    2
    25    23     1    1
    26     1     4    1
    27     1     2    1
    28    47    45    2
    29     4     5    1
    30    14    15    1
    31    14    13    1
    32    15    16    2
    33    46    45    1
    34     8    10    1
    35     8     9    1
    36     8     6    1
    37    45    11    1
    38    45    48    1
    39    10    11    1
    40    10    12    1
    41     5     6    1
    42    13    12    1
    43    13    22    1
    44    18    17    1
    45    16    17    1
    46    16    22    1
    47     6     7    1
    48    12     7    1
    49    17    19    2
    50    22    21    2
    51    19    20    1
    52    21    20    1
