@<TRIPOS>MOLECULE
2p5s_GDP_A_1.pdb
 28 30 0 0 0
SMALL
GASTEIGER

@<TRIPOS>ATOM
      1  PB       -27.1370    8.2010  -13.1770 P.3   1001  GDP1001     0.5373
      2  O1B      -27.1480    9.2810  -14.2210 O.2   1001  GDP1001    -0.2221
      3  O2B      -27.9380    7.0210  -13.7220 O.3   1001  GDP1001    -0.1143
      4  O3B      -25.7550    7.7420  -12.9100 O.3   1001  GDP1001    -0.1143
      5  O3A      -28.0110    8.6750  -11.9030 O.3   1001  GDP1001    -0.2261
      6  PA       -27.5060    9.3210  -10.5190 P.3   1001  GDP1001     0.2231
      7  O1A      -26.5910   10.4680  -10.8140 O.2   1001  GDP1001    -0.5169
      8  O2A      -26.9280    8.3220   -9.5810 O.3   1001  GDP1001    -0.4370
      9  O5'      -28.8690    9.8550   -9.9070 O.3   1001  GDP1001    -0.3111
     10  C5'      -29.6260   10.8670  -10.5580 C.3   1001  GDP1001     0.1813
     11  C4'      -30.3620   11.6270   -9.4900 C.3   1001  GDP1001     0.1799
     12  O4'      -31.2370   10.6980   -8.8970 O.3   1001  GDP1001    -0.3326
     13  C3'      -29.4440   12.1520   -8.3630 C.3   1001  GDP1001     0.2158
     14  O3'      -29.9450   13.3760   -7.8770 O.3   1001  GDP1001    -0.2175
     15  C2'      -29.5620   11.1220   -7.2770 C.3   1001  GDP1001     0.2310
     16  O2'      -29.4110   11.6310   -5.9590 O.3   1001  GDP1001    -0.2158
     17  C1'      -30.9690   10.6090   -7.4920 C.3   1001  GDP1001     0.2293
     18  N9       -31.1730    9.2060   -7.0790 N.pl3 1001  GDP1001    -0.2354
     19  C8       -30.5040    8.1080   -7.4820 C.3   1001  GDP1001     0.2246
     20  N7       -31.0040    6.9970   -6.9120 N.2   1001  GDP1001    -0.2322
     21  C5       -32.0110    7.3680   -6.1280 C.2   1001  GDP1001     0.2182
     22  C6       -32.9650    6.7010   -5.2320 C.1   1001  GDP1001     0.2372
     23  O6       -32.9870    5.4650   -5.0430 O.2   1001  GDP1001    -0.2069
     24  N1       -33.8280    7.4790   -4.6190 N.2   1001  GDP1001    -0.2485
     25  C2       -33.8850    8.8250   -4.7700 C.1   1001  GDP1001     0.2531
     26  N2       -34.8320    9.5370   -4.0880 N.pl3 1001  GDP1001    -0.0226
     27  N3       -33.0490    9.5010   -5.5670 N.2   1001  GDP1001    -0.3074
     28  C4       -32.1150    8.8290   -6.2440 C.2   1001  GDP1001     0.2300
@<TRIPOS>BOND
     1     2     1    2
     2     3     1    1
     3     1     4    1
     4     1     5    1
     5     5     6    1
     6     7     6    2
     7    10     9    1
     8    10    11    1
     9     6     9    1
    10     6     8    1
    11    11    12    1
    12    11    13    1
    13    12    17    1
    14    13    14    1
    15    13    15    1
    16    17    15    1
    17    17    18    1
    18    19    18    1
    19    19    20    1
    20    15    16    1
    21    18    28    1
    22    20    21    2
    23    28    21    1
    24    28    27    2
    25    21    22    1
    26    27    25    2
    27    22    23    2
    28    22    24    2
    29    25    24    2
    30    25    26    1
