@<TRIPOS>MOLECULE
2p5u_NAD_A_1.pdb
 44 48 0 0 0
SMALL
GASTEIGER

@<TRIPOS>ATOM
      1  PA        20.5070   97.6650  111.3130 P.3   1118  NAD1118     0.2189
      2  O1A       19.9990   98.0330  109.9610 O.2   1118  NAD1118    -0.5170
      3  O2A       19.6320   96.8640  112.2110 O.3   1118  NAD1118    -0.4371
      4  O5B       20.7460   99.0580  112.1010 O.3   1118  NAD1118    -0.3112
      5  C5B       21.1340  100.3490  111.5540 C.3   1118  NAD1118     0.1813
      6  C4B       20.9510  101.5420  112.5320 C.3   1118  NAD1118     0.1821
      7  O4B       21.3980  102.8310  112.0340 O.3   1118  NAD1118    -0.3135
      8  C3B       19.5380  101.8740  112.9550 C.3   1118  NAD1118     0.2184
      9  O3B       19.4750  102.1260  114.3570 O.3   1118  NAD1118    -0.2174
     10  C2B       19.0990  103.0120  112.0380 C.3   1118  NAD1118     0.2570
     11  O2B       18.0240  103.7610  112.5850 O.3   1118  NAD1118    -0.2130
     12  C1B       20.3570  103.8430  111.8990 C.3   1118  NAD1118     0.3186
     13  N9A       20.4310  104.8050  110.7330 N.pl3 1118  NAD1118    -0.1439
     14  C8A       20.2670  104.5600  109.4140 C.3   1118  NAD1118     0.3377
     15  N7A       20.3650  105.6670  108.6760 N.2   1118  NAD1118    -0.2095
     16  C5A       20.6280  106.6010  109.5780 C.2   1118  NAD1118     0.2526
     17  C6A       20.8770  107.9470  109.3070 C.2   1118  NAD1118     0.4393
     18  N6A       20.5870  108.5110  108.1360 N.pl3 1118  NAD1118     0.2180
     19  N1A       21.2740  108.7070  110.3630 N.2   1118  NAD1118     0.0021
     20  C2A       21.3760  108.2140  111.5990 C.3   1118  NAD1118     0.5254
     21  N3A       21.0870  106.9340  111.8400 N.2   1118  NAD1118    -0.0055
     22  C4A       20.7040  106.0990  110.8480 C.2   1118  NAD1118     0.3518
     23  O3        21.9760   96.8940  111.2650 O.3   1118  NAD1118    -0.2703
     24  PN        23.1200   96.4780  112.3090 P.3   1118  NAD1118     0.2189
     25  O1N       23.3540   95.0480  112.0070 O.2   1118  NAD1118    -0.5170
     26  O2N       22.7440   96.9410  113.6580 O.3   1118  NAD1118    -0.4371
     27  O5D       24.3750   97.4400  111.9350 O.3   1118  NAD1118    -0.3112
     28  C5D       24.5870   98.1360  110.6660 C.3   1118  NAD1118     0.1813
     29  C4D       25.9750   98.6100  110.0920 C.3   1118  NAD1118     0.1799
     30  O4D       27.0030   97.6800  109.6300 O.3   1118  NAD1118    -0.3327
     31  C3D       25.8280   99.3680  108.8120 C.3   1118  NAD1118     0.2158
     32  O3D       26.8760  100.3300  108.6790 O.3   1118  NAD1118    -0.2175
     33  C2D       25.8310   98.2370  107.7870 C.3   1118  NAD1118     0.2309
     34  O2D       26.0530   98.7000  106.4740 O.3   1118  NAD1118    -0.2158
     35  C1D       26.9520   97.3260  108.2350 C.3   1118  NAD1118     0.2263
     36  N1N       26.9680   95.8480  108.0360 N.pl3 1118  NAD1118    -0.2787
     37  C2N       25.9740   94.9450  108.5330 C.3   1118  NAD1118     0.1244
     38  C3N       26.2630   93.5790  108.5970 C.2   1118  NAD1118     0.0544
     39  C7N       25.3550   92.5940  109.3470 C.2   1118  NAD1118     0.2818
     40  O7N       25.4140   91.3900  109.1300 O.2   1118  NAD1118    -0.2670
     41  N7N       24.5290   93.1230  110.2420 N.am  1118  NAD1118    -0.0839
     42  C4N       27.4970   93.1030  108.1100 C.2   1118  NAD1118     0.0033
     43  C5N       28.4740   93.9570  107.5850 C.2   1118  NAD1118     0.0157
     44  C6N       28.1980   95.3270  107.5720 C.2   1118  NAD1118     0.0633
@<TRIPOS>BOND
     1    34    33    1
     2    44    43    2
     3    44    36    1
     4    43    42    1
     5    33    35    1
     6    33    31    1
     7    36    35    1
     8    36    37    1
     9    42    38    2
    10    18    17    1
    11    35    30    1
    12    37    38    1
    13    38    39    1
    14    15    14    1
    15    15    16    2
    16    32    31    1
    17    31    29    1
    18    40    39    2
    19    17    16    1
    20    17    19    2
    21    39    41   am
    22    14    13    1
    23    16    22    1
    24    30    29    1
    25     2     1    2
    26    29    28    1
    27    19    20    1
    28    28    27    1
    29    13    22    1
    30    13    12    1
    31    22    21    2
    32    23     1    1
    33    23    24    1
    34     1     4    1
    35     1     3    1
    36     5     4    1
    37     5     6    1
    38    20    21    1
    39    12     7    1
    40    12    10    1
    41    27    24    1
    42    25    24    2
    43     7     6    1
    44    10    11    1
    45    10     8    1
    46    24    26    1
    47     6     8    1
    48     8     9    1
