@<TRIPOS>MOLECULE
2p5y_NAD_A_1.pdb
 44 48 0 0 0
SMALL
GASTEIGER

@<TRIPOS>ATOM
      1  PA       104.2240   87.5490  129.7700 P.3   1118  NAD1118     0.2189
      2  O1A      103.3390   87.5440  130.9620 O.3   1118  NAD1118    -0.4371
      3  O2A      105.6630   87.4840  130.0690 O.2   1118  NAD1118    -0.5170
      4  O5B      104.0090   88.9000  128.8960 O.3   1118  NAD1118    -0.3112
      5  C5B      102.7960   89.6390  128.9150 C.3   1118  NAD1118     0.1813
      6  C4B      103.1340   91.0770  129.2980 C.3   1118  NAD1118     0.1821
      7  O4B      101.9440   91.8470  129.3280 O.3   1118  NAD1118    -0.3135
      8  C3B      103.7710   91.1640  130.6860 C.3   1118  NAD1118     0.2184
      9  O3B      104.9730   91.9090  130.6660 O.3   1118  NAD1118    -0.2174
     10  C2B      102.7290   91.8670  131.5110 C.3   1118  NAD1118     0.2570
     11  O2B      103.3110   92.6060  132.5660 O.3   1118  NAD1118    -0.2130
     12  C1B      101.9810   92.6950  130.4730 C.3   1118  NAD1118     0.3186
     13  N9A      100.5830   92.9300  130.8560 N.pl3 1118  NAD1118    -0.1439
     14  C8A       99.6930   92.0370  131.3930 C.3   1118  NAD1118     0.3377
     15  N7A       98.5060   92.6770  131.5500 N.2   1118  NAD1118    -0.2095
     16  C5A       98.6520   93.9600  131.1470 C.2   1118  NAD1118     0.2526
     17  C6A       97.7740   95.0390  131.1180 C.2   1118  NAD1118     0.4393
     18  N6A       96.5280   94.9170  131.5890 N.pl3 1118  NAD1118     0.2180
     19  N1A       98.2330   96.2500  130.6250 N.2   1118  NAD1118     0.0021
     20  C2A       99.5340   96.4010  130.1820 C.3   1118  NAD1118     0.5254
     21  N3A      100.3850   95.3120  130.2240 N.2   1118  NAD1118    -0.0055
     22  C4A       99.9420   94.1270  130.7010 C.2   1118  NAD1118     0.3518
     23  O3       103.7700   86.3430  128.8280 O.3   1118  NAD1118    -0.2703
     24  PN       104.3870   85.9140  127.3900 P.3   1118  NAD1118     0.2189
     25  O1N      104.5430   84.4550  127.4690 O.3   1118  NAD1118    -0.4371
     26  O2N      105.5230   86.7820  127.0530 O.2   1118  NAD1118    -0.5170
     27  O5D      103.1760   86.1770  126.3750 O.3   1118  NAD1118    -0.3112
     28  C5D      103.1680   87.2700  125.4730 C.3   1118  NAD1118     0.1813
     29  C4D      101.9880   87.1210  124.5110 C.3   1118  NAD1118     0.1799
     30  O4D      102.1150   85.8960  123.8080 O.3   1118  NAD1118    -0.3327
     31  C3D      100.6660   87.0350  125.2690 C.3   1118  NAD1118     0.2158
     32  O3D       99.6500   87.6900  124.5300 O.3   1118  NAD1118    -0.2175
     33  C2D      100.3750   85.5510  125.3100 C.3   1118  NAD1118     0.2309
     34  O2D       98.9890   85.2770  125.4510 O.3   1118  NAD1118    -0.2158
     35  C1D      100.9530   85.1180  123.9630 C.3   1118  NAD1118     0.2263
     36  N1N      101.2910   83.6800  123.8760 N.pl3 1118  NAD1118    -0.2787
     37  C2N      102.2480   83.1110  124.6920 C.3   1118  NAD1118     0.1244
     38  C3N      102.5410   81.7420  124.5760 C.2   1118  NAD1118     0.0544
     39  C7N      103.6490   81.1190  125.3900 C.2   1118  NAD1118     0.2818
     40  O7N      104.4150   81.9030  126.2780 O.2   1118  NAD1118    -0.2670
     41  N7N      103.8880   79.8360  125.2480 N.am  1118  NAD1118    -0.0839
     42  C4N      101.8600   80.9800  123.6290 C.2   1118  NAD1118     0.0033
     43  C5N      100.8900   81.5630  122.8200 C.2   1118  NAD1118     0.0157
     44  C6N      100.6090   82.9230  122.9460 C.2   1118  NAD1118     0.0633
@<TRIPOS>BOND
     1    43    44    2
     2    43    42    1
     3    44    36    1
     4    42    38    2
     5    30    35    1
     6    30    29    1
     7    36    35    1
     8    36    37    1
     9    35    33    1
    10    29    31    1
    11    29    28    1
    12    32    31    1
    13    38    37    1
    14    38    39    1
    15    41    39   am
    16    31    33    1
    17    33    34    1
    18    39    40    2
    19    28    27    1
    20    27    24    1
    21    26    24    2
    22    24    25    1
    23    24    23    1
    24    23     1    1
    25     4     5    1
    26     4     1    1
    27     5     6    1
    28     6     7    1
    29     6     8    1
    30     7    12    1
    31     1     3    2
    32     1     2    1
    33    20    21    1
    34    20    19    1
    35    21    22    2
    36    12    13    1
    37    12    10    1
    38    19    17    2
    39     9     8    1
    40     8    10    1
    41    22    13    1
    42    22    16    1
    43    13    14    1
    44    17    16    1
    45    17    18    1
    46    16    15    2
    47    14    15    1
    48    10    11    1
