@<TRIPOS>MOLECULE
2p69_PLP_A_1.pdb
 16 16 0 0 0
SMALL
GASTEIGER

@<TRIPOS>ATOM
      1  N1        -5.1810   -7.0650   15.7460 N.ar  306  PLP306     -0.2452
      2  C2        -5.4490   -8.4140   15.6370 C.ar  306  PLP306      0.0982
      3  C2A       -6.5290   -8.9020   14.7140 C.3   306  PLP306      0.0555
      4  C3        -4.7310   -9.3320   16.4000 C.ar  306  PLP306      0.2120
      5  O3        -4.9850  -10.6760   16.3030 O.3   306  PLP306     -0.2852
      6  C4        -3.7430   -8.9000   17.2680 C.ar  306  PLP306      0.0822
      7  C4A       -2.8020   -9.8810   17.9110 C.2   306  PLP306      0.2372
      8  O4A       -3.1310  -11.0660   17.9460 O.2   306  PLP306     -0.2830
      9  C5        -3.4860   -7.5540   17.3800 C.ar  306  PLP306      0.0333
     10  C6        -4.1950   -6.6280   16.6140 C.ar  306  PLP306      0.0969
     11  C5A       -2.3890   -7.1590   18.3280 C.3   306  PLP306      0.1819
     12  O4P       -2.7550   -6.0290   19.0620 O.3   306  PLP306     -0.2653
     13  P         -1.7610   -5.5110   20.2170 P.3   306  PLP306      0.5329
     14  O1P       -2.3540   -5.8850   21.5900 O.3   306  PLP306     -0.1145
     15  O2P       -1.7340   -4.0130   20.0420 O.2   306  PLP306     -0.2224
     16  O3P       -0.4110   -6.2080   20.0480 O.3   306  PLP306     -0.1145
@<TRIPOS>BOND
     1     3     2    1
     2     2     1   ar
     3     2     4   ar
     4     1    10   ar
     5     5     4    1
     6     4     6   ar
     7    10     9   ar
     8     6     9   ar
     9     6     7    1
    10     9    11    1
    11     7     8    2
    12    11    12    1
    13    12    13    1
    14    15    13    2
    15    16    13    1
    16    13    14    1
