@<TRIPOS>MOLECULE
2p6a_III_E_1.pdb
 50 49 0 0 0
SMALL
GASTEIGER

@<TRIPOS>ATOM
      1  N         44.9890    8.5210   70.7070 N.3     1  ALA1       -0.1231
      2  CA        43.7980    7.6660   70.4300 C.3     1  ALA1        0.1694
      3  C         42.6250    8.5150   69.9390 C.2     1  ALA1        0.2592
      4  O         42.4590    8.7130   68.7360 O.2     1  ALA1       -0.2718
      5  CB        43.4110    6.8750   71.6690 C.3     1  ALA1        0.0304
      6  N         41.8130    9.0070   70.8710 N.am    2  ALA2       -0.1966
      7  CA        40.7850   10.0010   70.5520 C.3     2  ALA2        0.1728
      8  C         39.3600    9.4530   70.4380 C.2     2  ALA2        0.2616
      9  O         38.9330    8.6440   71.2630 O.2     2  ALA2       -0.2715
     10  CB        41.1670   10.7750   69.3010 C.3     2  ALA2        0.0334
     11  N         38.6240    9.9110   69.4270 N.am    3  ALA3       -0.1963
     12  CA        37.2270    9.5080   69.2430 C.3     3  ALA3        0.1728
     13  C         36.7200    9.7890   67.8250 C.2     3  ALA3        0.2616
     14  O         37.5020    9.7660   66.8620 O.2     3  ALA3       -0.2715
     15  CB        36.3360   10.1820   70.2810 C.3     3  ALA3        0.0334
     16  N         35.4070   10.0220   67.7000 N.am    4  ALA4       -0.1963
     17  CA        34.7950   10.3500   66.4110 C.3     4  ALA4        0.1728
     18  C         33.2670   10.3610   66.4720 C.2     4  ALA4        0.2616
     19  O         32.6120    9.4090   66.0400 O.2     4  ALA4       -0.2715
     20  CB        35.2790    9.3960   65.3260 C.3     4  ALA4        0.0334
     21  N         32.7040   11.4420   67.0080 N.am    5  ALA5       -0.1963
     22  CA        31.2550   11.5970   67.0640 C.3     5  ALA5        0.1728
     23  C         30.6680   11.2610   65.6950 C.2     5  ALA5        0.2616
     24  O         31.2340   11.6350   64.6640 O.2     5  ALA5       -0.2715
     25  CB        30.8850   13.0170   67.4790 C.3     5  ALA5        0.0334
     26  N         29.5500   10.5380   65.6850 N.am    6  ALA6       -0.1963
     27  CA        28.9290   10.1260   64.4290 C.3     6  ALA6        0.1728
     28  C         28.7820   11.3140   63.4850 C.2     6  ALA6        0.2616
     29  O         29.4020   12.3590   63.6930 O.2     6  ALA6       -0.2715
     30  CB        27.5920    9.4500   64.6720 C.3     6  ALA6        0.0334
     31  N         27.9740   11.1530   62.4430 N.am    7  ALA7       -0.1963
     32  CA        27.9840   12.1180   61.3500 C.3     7  ALA7        0.1728
     33  C         26.6170   12.3780   60.7190 C.2     7  ALA7        0.2616
     34  O         25.6260   11.7650   61.1040 O.2     7  ALA7       -0.2715
     35  CB        28.9880   11.6800   60.2940 C.3     7  ALA7        0.0334
     36  N         26.5800   13.2970   59.7560 N.am    8  ALA8       -0.1963
     37  CA        25.3860   13.5550   58.9590 C.3     8  ALA8        0.1728
     38  C         25.5300   12.9030   57.5830 C.2     8  ALA8        0.2616
     39  O         24.7800   11.9930   57.2270 O.2     8  ALA8       -0.2715
     40  CB        25.1610   15.0560   58.8210 C.3     8  ALA8        0.0334
     41  N         26.5140   13.3670   56.8180 N.am    9  ALA9       -0.1963
     42  CA        26.7680   12.8360   55.4800 C.3     9  ALA9        0.1728
     43  C         28.0040   13.4520   54.8090 C.2     9  ALA9        0.2616
     44  O         28.7610   14.2030   55.4330 O.2     9  ALA9       -0.2715
     45  CB        25.5330   13.0000   54.5950 C.3     9  ALA9        0.0334
     46  N         28.2130   13.1140   53.5390 N.am   10  ALA10      -0.1977
     47  CA        29.3260   13.6590   52.7670 C.3    10  ALA10       0.1597
     48  C         29.1800   13.3670   51.2700 C.2    10  ALA10       0.2287
     49  O         29.8180   12.4190   50.7190 O.2    10  ALA10      -0.2864
     50  CB        30.6510   13.1290   53.2960 C.3    10  ALA10       0.0319
@<TRIPOS>BOND
     1    49    48    2
     2    48    47    1
     3    47    50    1
     4    47    46    1
     5    46    43   am
     6    45    42    1
     7    43    44    2
     8    43    42    1
     9    42    41    1
    10    41    38   am
    11    39    38    2
    12    38    37    1
    13    40    37    1
    14    37    36    1
    15    36    33   am
    16    35    32    1
    17    33    34    2
    18    33    32    1
    19    32    31    1
    20    31    28   am
    21    28    29    2
    22    28    27    1
    23    27    30    1
    24    27    26    1
    25    24    23    2
    26    20    17    1
    27    26    23   am
    28    23    22    1
    29    19    18    2
    30    17    18    1
    31    17    16    1
    32    18    21   am
    33    14    13    2
    34    21    22    1
    35    22    25    1
    36    16    13   am
    37    13    12    1
    38     4     3    2
    39    12    11    1
    40    12    15    1
    41    10     7    1
    42    11     8   am
    43     3     2    1
    44     3     6   am
    45     2     1    1
    46     2     5    1
    47     8     7    1
    48     8     9    2
    49     7     6    1
