@<TRIPOS>MOLECULE
2p6d_SAH_A_1.pdb
 26 28 0 0 0
SMALL
GASTEIGER

@<TRIPOS>ATOM
      1  N         33.7560   93.0490   67.4110 N.3   301  SAH301     -0.1208
      2  CA        32.3060   92.6010   67.2890 C.3   301  SAH301      0.1952
      3  CB        31.6860   91.9270   68.4840 C.3   301  SAH301      0.0422
      4  CG        32.3290   90.6670   69.0490 C.3   301  SAH301      0.0597
      5  SD        31.1310   89.9010   70.2290 S.3   301  SAH301     -0.1375
      6  C         31.4760   93.8960   66.8750 C.2   301  SAH301      0.3819
      7  O         32.0850   94.9770   66.7430 O.co2 301  SAH301     -0.2441
      8  OXT       30.1950   93.7400   66.6950 O.co2 301  SAH301     -0.2441
      9  C5'       30.2420   88.7810   69.2360 C.3   301  SAH301      0.0899
     10  C4'       28.7720   88.7140   69.7980 C.3   301  SAH301      0.1630
     11  O4'       28.1470   90.0040   69.5730 O.3   301  SAH301     -0.3153
     12  C3'       27.8990   87.6900   69.1730 C.3   301  SAH301      0.2168
     13  O3'       28.0420   86.4440   69.8360 O.3   301  SAH301     -0.2175
     14  C2'       26.4940   88.3420   69.2930 C.3   301  SAH301      0.2569
     15  O2'       25.8510   88.0870   70.5460 O.3   301  SAH301     -0.2130
     16  C1'       26.7590   89.8590   69.0010 C.3   301  SAH301      0.3185
     17  N9        26.6990   90.2580   67.6420 N.pl3 301  SAH301     -0.1439
     18  C8        27.6600   90.5510   66.6800 C.3   301  SAH301      0.3377
     19  N7        27.1920   90.8870   65.5170 N.2   301  SAH301     -0.2095
     20  C5        25.7760   90.8280   65.6750 C.2   301  SAH301      0.2526
     21  C6        24.6930   91.0920   64.7540 C.2   301  SAH301      0.4393
     22  N6        24.8670   91.4660   63.4850 N.pl3 301  SAH301      0.2180
     23  N1        23.4290   90.9280   65.2770 N.2   301  SAH301      0.0021
     24  C2        23.1960   90.5460   66.5610 C.3   301  SAH301      0.5254
     25  N3        24.2020   90.2860   67.4660 N.2   301  SAH301     -0.0055
     26  C4        25.4600   90.4480   66.9550 C.2   301  SAH301      0.3518
@<TRIPOS>BOND
     1    22    21    1
     2    21    23    2
     3    21    20    1
     4    23    24    1
     5    19    20    2
     6    19    18    1
     7    20    26    1
     8    24    25    1
     9    18    17    1
    10     8     6   ar
    11     7     6   ar
    12     6     2    1
    13    26    25    2
    14    26    17    1
    15     2     1    1
    16     2     3    1
    17    17    16    1
    18     3     4    1
    19    16    14    1
    20    16    11    1
    21     4     5    1
    22    12    14    1
    23    12    10    1
    24    12    13    1
    25     9    10    1
    26     9     5    1
    27    14    15    1
    28    11    10    1
