@<TRIPOS>MOLECULE
2p6f_GN8_A_1.pdb
 25 27 0 0 0
SMALL
GASTEIGER

@<TRIPOS>ATOM
      1  OAA        3.1000  -84.5360   58.0190 O.2   701  GN8701     -0.2690
      2  CAU        3.5380  -85.5660   57.3860 C.2   701  GN8701      0.2598
      3  CAW        4.5140  -85.4230   56.4100 C.2   701  GN8701      0.0850
      4  CAF        5.1780  -84.1660   55.9520 C.2   701  GN8701      0.0143
      5  CAR        6.2270  -84.0590   54.8950 C.ar  701  GN8701      0.0413
      6  CAQ        6.7510  -82.8050   54.5800 C.ar  701  GN8701      0.2179
      7  OAC        6.2910  -81.7080   55.2470 O.3   701  GN8701     -0.2848
      8  CAT        7.7360  -82.6730   53.5950 C.ar  701  GN8701      0.1815
      9  NAY        8.2620  -81.4570   53.2730 N.pl3 701  GN8701      0.0609
     10  OAD        7.8350  -80.2970   53.9190 O.2   701  GN8701     -0.1260
     11  OAB        9.2430  -81.3540   52.2840 O.2   701  GN8701     -0.1260
     12  CAN        8.1980  -83.8050   52.9190 C.ar  701  GN8701      0.0274
     13  CAJ        7.6810  -85.0610   53.2250 C.ar  701  GN8701      0.0019
     14  CAK        6.7010  -85.1820   54.2100 C.ar  701  GN8701      0.0033
     15  SAP        4.9210  -86.9620   55.7190 S.3   701  GN8701     -0.0604
     16  CAV        3.7390  -87.6420   56.8120 C.2   701  GN8701      0.1215
     17  SAE        3.5130  -89.4000   56.7290 S.2   701  GN8701     -0.0272
     18  NAX        3.0700  -86.8050   57.6510 N.am  701  GN8701     -0.2398
     19  CAO        2.0270  -87.0690   58.6660 C.3   701  GN8701      0.1260
     20  CAS        1.8680  -88.4960   59.1640 C.ar  701  GN8701     -0.0020
     21  CAL        0.7680  -89.2620   58.7460 C.ar  701  GN8701     -0.0026
     22  CAM        2.8010  -89.0420   60.0560 C.ar  701  GN8701     -0.0026
     23  CAI        2.6450  -90.3570   60.5110 C.ar  701  GN8701     -0.0003
     24  CAG        1.5520  -91.1210   60.0820 C.ar  701  GN8701     -0.0000
     25  CAH        0.6130  -90.5760   59.1990 C.ar  701  GN8701     -0.0003
@<TRIPOS>BOND
     1    11     9    2
     2    12    13   ar
     3    12     8   ar
     4    13    14   ar
     5     9     8    1
     6     9    10    2
     7     8     6   ar
     8    14     5   ar
     9     6     5   ar
    10     6     7    1
    11     5     4    1
    12    15     3    1
    13    15    16    1
    14     4     3    2
    15     3     2    1
    16    17    16    2
    17    16    18    1
    18     2    18   am
    19     2     1    2
    20    18    19    1
    21    19    20    1
    22    21    20   ar
    23    21    25   ar
    24    20    22   ar
    25    25    24   ar
    26    22    23   ar
    27    24    23   ar
