@<TRIPOS>MOLECULE
2p6g_3LP_C_1.pdb
 25 28 0 0 0
SMALL
GASTEIGER

@<TRIPOS>ATOM
      1  OAB        8.4390  -19.5870  -28.0850 O.3   703  3LP703     -0.2195
      2  CAW        8.8810  -18.7720  -29.1750 C.3   703  3LP703      0.1917
      3  CAO        9.1370  -19.6490  -30.4040 C.3   703  3LP703      0.1234
      4  NAQ        8.0520  -20.5940  -30.6480 N.3   703  3LP703     -0.2167
      5  CAX        8.1890  -21.7870  -31.4810 C.3   703  3LP703      0.0729
      6  CAN        9.6520  -22.0990  -31.8250 C.3   703  3LP703      0.0174
      7  CAJ        9.8120  -23.4040  -32.6060 C.3   703  3LP703      0.0014
      8  CAF        9.1810  -24.5830  -31.8680 C.3   703  3LP703      0.0001
      9  CAI        7.7290  -24.3190  -31.4620 C.3   703  3LP703      0.0014
     10  CAM        7.5400  -22.9720  -30.7590 C.3   703  3LP703      0.0174
     11  CAP        7.8260  -17.7130  -29.4950 C.3   703  3LP703      0.1399
     12  NAY        7.9210  -16.5100  -28.6490 N.ar  703  3LP703     -0.3283
     13  CAV        7.1900  -16.2740  -27.5380 C.ar  703  3LP703      0.0594
     14  CAD        6.2150  -17.0100  -26.8590 C.ar  703  3LP703      0.0168
     15  CAC        5.6260  -16.4960  -25.7010 C.ar  703  3LP703     -0.0028
     16  CAR        6.0040  -15.2460  -25.2080 C.ar  703  3LP703     -0.0218
     17  CAA        5.3600  -14.7040  -23.9600 C.3   703  3LP703      0.0310
     18  CAE        6.9770  -14.5030  -25.8730 C.ar  703  3LP703     -0.0031
     19  CAU        7.5520  -15.0320  -27.0290 C.ar  703  3LP703      0.0126
     20  CAS        8.5190  -14.5060  -27.8610 C.ar  703  3LP703     -0.0091
     21  CAT        8.7270  -15.4460  -28.8640 C.ar  703  3LP703      0.0331
     22  CAK        9.2340  -13.1790  -27.7340 C.3   703  3LP703      0.0275
     23  CAG       10.0170  -12.9180  -29.0190 C.3   703  3LP703      0.0051
     24  CAH       10.7210  -14.1670  -29.5540 C.3   703  3LP703      0.0066
     25  CAL        9.7250  -15.2450  -29.9830 C.3   703  3LP703      0.0435
@<TRIPOS>BOND
     1     7     8    1
     2     7     6    1
     3     8     9    1
     4     6     5    1
     5     5    10    1
     6     5     4    1
     7     9    10    1
     8     4     3    1
     9     3     2    1
    10    25    24    1
    11    25    21    1
    12    24    23    1
    13    11     2    1
    14    11    12    1
    15     2     1    1
    16    23    22    1
    17    21    12   ar
    18    21    20   ar
    19    12    13   ar
    20    20    22    1
    21    20    19   ar
    22    13    19   ar
    23    13    14   ar
    24    19    18   ar
    25    14    15   ar
    26    18    16   ar
    27    15    16   ar
    28    16    17    1
