@<TRIPOS>MOLECULE
2p6i_SAH_A_1.pdb
 26 28 0 0 0
SMALL
GASTEIGER

@<TRIPOS>ATOM
      1  N         33.6430   92.8650   66.6190 N.3   1301  SAH1301    -0.1208
      2  CA        32.2020   92.4070   66.4530 C.3   1301  SAH1301     0.1952
      3  CB        31.5730   91.7040   67.6230 C.3   1301  SAH1301     0.0422
      4  CG        32.2200   90.4330   68.1720 C.3   1301  SAH1301     0.0597
      5  SD        31.0740   89.6940   69.4240 S.3   1301  SAH1301    -0.1375
      6  C         31.3730   93.7030   66.0550 C.2   1301  SAH1301     0.3819
      7  O         31.9730   94.7940   65.9700 O.co2 1301  SAH1301    -0.2441
      8  OXT       30.1090   93.5460   65.8390 O.co2 1301  SAH1301    -0.2441
      9  C5'       30.1650   88.5350   68.4860 C.3   1301  SAH1301     0.0899
     10  C4'       28.6830   88.5030   69.0250 C.3   1301  SAH1301     0.1630
     11  O4'       28.0920   89.8080   68.7850 O.3   1301  SAH1301    -0.3153
     12  C3'       27.7900   87.5020   68.3800 C.3   1301  SAH1301     0.2168
     13  O3'       27.9020   86.2340   69.0110 O.3   1301  SAH1301    -0.2175
     14  C2'       26.4010   88.1810   68.5130 C.3   1301  SAH1301     0.2569
     15  O2'       25.7680   87.9380   69.7730 O.3   1301  SAH1301    -0.2130
     16  C1'       26.6940   89.6920   68.2210 C.3   1301  SAH1301     0.3185
     17  N9        26.6280   90.0970   66.8720 N.pl3 1301  SAH1301    -0.1439
     18  C8        27.5960   90.3840   65.9230 C.3   1301  SAH1301     0.3377
     19  N7        27.1430   90.7260   64.7550 N.2   1301  SAH1301    -0.2095
     20  C5        25.7250   90.6760   64.8980 C.2   1301  SAH1301     0.2526
     21  C6        24.6600   90.9490   63.9640 C.2   1301  SAH1301     0.4393
     22  N6        24.8580   91.3280   62.6900 N.pl3 1301  SAH1301     0.2180
     23  N1        23.3900   90.7940   64.4740 N.2   1301  SAH1301     0.0021
     24  C2        23.1380   90.4090   65.7610 C.3   1301  SAH1301     0.5254
     25  N3        24.1270   90.1380   66.6780 N.2   1301  SAH1301    -0.0055
     26  C4        25.3930   90.2930   66.1760 C.2   1301  SAH1301     0.3518
@<TRIPOS>BOND
     1    22    21    1
     2    21    23    2
     3    21    20    1
     4    23    24    1
     5    19    20    2
     6    19    18    1
     7    20    26    1
     8    24    25    1
     9     8     6   ar
    10    18    17    1
    11     7     6   ar
    12     6     2    1
    13    26    25    2
    14    26    17    1
    15     2     1    1
    16     2     3    1
    17    17    16    1
    18     3     4    1
    19     4     5    1
    20    16    14    1
    21    16    11    1
    22    12    14    1
    23    12    13    1
    24    12    10    1
    25     9    10    1
    26     9     5    1
    27    14    15    1
    28    11    10    1
