@<TRIPOS>MOLECULE
2p6k_SAH_A_1.pdb
 26 28 0 0 0
SMALL
GASTEIGER

@<TRIPOS>ATOM
      1  N         33.8370   93.4820   66.7040 N.3   1301  SAH1301    -0.1208
      2  CA        32.4060   92.9850   66.5430 C.3   1301  SAH1301     0.1952
      3  CB        31.7670   92.2860   67.7080 C.3   1301  SAH1301     0.0422
      4  CG        32.4400   91.0500   68.2880 C.3   1301  SAH1301     0.0597
      5  SD        31.2640   90.3020   69.4860 S.3   1301  SAH1301    -0.1375
      6  C         31.5540   94.2420   66.0990 C.2   1301  SAH1301     0.3819
      7  O         32.1300   95.3390   65.9750 O.co2 1301  SAH1301    -0.2441
      8  OXT       30.2930   94.0370   65.8900 O.co2 1301  SAH1301    -0.2441
      9  C5'       30.3990   89.1230   68.5290 C.3   1301  SAH1301     0.0899
     10  C4'       28.9000   89.0830   69.0280 C.3   1301  SAH1301     0.1630
     11  O4'       28.3030   90.3800   68.7600 O.3   1301  SAH1301    -0.3153
     12  C3'       28.0310   88.0700   68.3720 C.3   1301  SAH1301     0.2168
     13  O3'       28.1480   86.8050   69.0070 O.3   1301  SAH1301    -0.2175
     14  C2'       26.6310   88.7320   68.4820 C.3   1301  SAH1301     0.2569
     15  O2'       25.9750   88.4840   69.7290 O.3   1301  SAH1301    -0.2130
     16  C1'       26.9090   90.2460   68.1880 C.3   1301  SAH1301     0.3185
     17  N9        26.8490   90.6410   66.8250 N.pl3 1301  SAH1301    -0.1439
     18  C8        27.8090   90.9590   65.8820 C.3   1301  SAH1301     0.3377
     19  N7        27.3500   91.2790   64.7090 N.2   1301  SAH1301    -0.2095
     20  C5        25.9350   91.1770   64.8450 C.2   1301  SAH1301     0.2526
     21  C6        24.8620   91.4060   63.9050 C.2   1301  SAH1301     0.4393
     22  N6        25.0490   91.7830   62.6350 N.pl3 1301  SAH1301     0.2180
     23  N1        23.5940   91.2050   64.4100 N.2   1301  SAH1301     0.0021
     24  C2        23.3520   90.8160   65.6980 C.3   1301  SAH1301     0.5254
     25  N3        24.3510   90.5880   66.6210 N.2   1301  SAH1301    -0.0055
     26  C4        25.6130   90.7890   66.1240 C.2   1301  SAH1301     0.3518
@<TRIPOS>BOND
     1    22    21    1
     2    21    23    2
     3    21    20    1
     4    23    24    1
     5    19    20    2
     6    19    18    1
     7    20    26    1
     8    24    25    1
     9    18    17    1
    10     8     6   ar
    11     7     6   ar
    12     6     2    1
    13    26    25    2
    14    26    17    1
    15     2     1    1
    16     2     3    1
    17    17    16    1
    18     3     4    1
    19    16    14    1
    20    16    11    1
    21     4     5    1
    22    12    14    1
    23    12    13    1
    24    12    10    1
    25    14    15    1
    26     9    10    1
    27     9     5    1
    28    11    10    1
