@<TRIPOS>MOLECULE
2p6l_SAH_A_1.pdb
 26 28 0 0 0
SMALL
GASTEIGER

@<TRIPOS>ATOM
      1  N         33.7520   92.8120   67.4990 N.3   1301  SAH1301    -0.1208
      2  CA        32.3060   92.3700   67.3590 C.3   1301  SAH1301     0.1952
      3  CB        31.6730   91.7090   68.5570 C.3   1301  SAH1301     0.0422
      4  CG        32.3170   90.4470   69.1320 C.3   1301  SAH1301     0.0597
      5  SD        31.1460   89.7190   70.3650 S.3   1301  SAH1301    -0.1375
      6  C         31.4950   93.6580   66.9230 C.2   1301  SAH1301     0.3819
      7  O         32.1050   94.7350   66.7910 O.co2 1301  SAH1301    -0.2441
      8  OXT       30.2290   93.5020   66.7230 O.co2 1301  SAH1301    -0.2441
      9  C5'       30.2440   88.5560   69.4230 C.3   1301  SAH1301     0.0899
     10  C4'       28.7580   88.5270   69.9620 C.3   1301  SAH1301     0.1630
     11  O4'       28.1600   89.8250   69.6960 O.3   1301  SAH1301    -0.3153
     12  C3'       27.8680   87.5100   69.3400 C.3   1301  SAH1301     0.2168
     13  O3'       27.9830   86.2560   69.9940 O.3   1301  SAH1301    -0.2175
     14  C2'       26.4750   88.1870   69.4560 C.3   1301  SAH1301     0.2569
     15  O2'       25.8290   87.9740   70.7150 O.3   1301  SAH1301    -0.2130
     16  C1'       26.7670   89.6910   69.1220 C.3   1301  SAH1301     0.3185
     17  N9        26.7150   90.0390   67.7490 N.pl3 1301  SAH1301    -0.1439
     18  C8        27.6860   90.2910   66.7960 C.3   1301  SAH1301     0.3377
     19  N7        27.2370   90.5850   65.6080 N.2   1301  SAH1301    -0.2095
     20  C5        25.8280   90.5380   65.7420 C.2   1301  SAH1301     0.2526
     21  C6        24.7710   90.7690   64.7890 C.2   1301  SAH1301     0.4393
     22  N6        24.9810   91.0970   63.5030 N.pl3 1301  SAH1301     0.2180
     23  N1        23.4970   90.6270   65.2930 N.2   1301  SAH1301     0.0021
     24  C2        23.2370   90.2920   66.5910 C.3   1301  SAH1301     0.5254
     25  N3        24.2180   90.0660   67.5250 N.2   1301  SAH1301    -0.0055
     26  C4        25.4860   90.2010   67.0330 C.2   1301  SAH1301     0.3518
@<TRIPOS>BOND
     1    22    21    1
     2    21    23    2
     3    21    20    1
     4    23    24    1
     5    19    20    2
     6    19    18    1
     7    20    26    1
     8    24    25    1
     9     8     6   ar
    10     7     6   ar
    11    18    17    1
    12     6     2    1
    13    26    25    2
    14    26    17    1
    15     2     1    1
    16     2     3    1
    17    17    16    1
    18     3     4    1
    19    16    14    1
    20    16    11    1
    21     4     5    1
    22    12    14    1
    23    12    10    1
    24    12    13    1
    25     9    10    1
    26     9     5    1
    27    14    15    1
    28    11    10    1
