@<TRIPOS>MOLECULE
2p70_PRZ_A_1.pdb
 12 12 0 0 0
SMALL
GASTEIGER

@<TRIPOS>ATOM
      1  N1        58.2540   41.7880    2.2170 N.ar  2961  PRZ2961    -0.2415
      2  C2        59.1760   42.4550    1.4710 C.ar  2961  PRZ2961     0.1160
      3  C3        59.3650   43.8760    1.5130 C.ar  2961  PRZ2961     0.2393
      4  N4        58.5930   44.5340    2.4280 N.ar  2961  PRZ2961    -0.2075
      5  C5        57.7220   43.8360    3.2330 C.ar  2961  PRZ2961     0.1227
      6  C6        57.5890   42.4370    3.1590 C.ar  2961  PRZ2961     0.1193
      7  C21       59.7150   41.6570    0.4370 C.3   2961  PRZ2961     0.0726
      8  C22       59.0860   42.0010   -0.6650 C.2   2961  PRZ2961    -0.0378
      9  C23       59.3540   41.1780   -1.6420 C.2   2961  PRZ2961    -0.0087
     10  C24       58.2410   43.2510   -0.8810 C.3   2961  PRZ2961     0.0268
     11  O31       60.1790   44.4380    0.7510 O.3   2961  PRZ2961    -0.4553
     12  C31       60.1100   45.8590    0.9620 C.3   2961  PRZ2961     0.2543
@<TRIPOS>BOND
     1     9     8    2
     2    10     8    1
     3     8     7    1
     4     7     2    1
     5    11    12    1
     6    11     3    1
     7     2     3   ar
     8     2     1   ar
     9     3     4   ar
    10     1     6   ar
    11     4     5   ar
    12     6     5   ar
