@<TRIPOS>MOLECULE
2p71_IHD_A_1.pdb
 17 16 0 0 0
SMALL
GASTEIGER

@<TRIPOS>ATOM
      1  C17       60.5850   48.0640   -3.6090 C.3   300  IHD300      0.0000
      2  C16       61.9300   47.4700   -3.3290 C.3   300  IHD300      0.0000
      3  C15       62.0630   45.9290   -3.1990 C.3   300  IHD300      0.0000
      4  C14       63.5980   45.7290   -3.1510 C.3   300  IHD300      0.0000
      5  C13       64.3140   44.4020   -2.8490 C.3   300  IHD300      0.0000
      6  C12       63.6420   43.0800   -3.0580 C.3   300  IHD300      0.0000
      7  C11       64.3220   41.9010   -2.3630 C.3   300  IHD300      0.0000
      8  C10       63.5050   40.9590   -1.4360 C.3   300  IHD300      0.0000
      9  C9        62.6850   41.7430   -0.3920 C.3   300  IHD300      0.0000
     10  C8        61.3350   42.2380   -1.0330 C.3   300  IHD300      0.0000
     11  C7        60.0690   41.5350   -0.5750 C.3   300  IHD300      0.0000
     12  C6        59.2640   42.4640    0.3460 C.3   300  IHD300      0.0000
     13  C5        58.4920   41.5770    1.3170 C.3   300  IHD300      0.0000
     14  C4        57.7630   42.1820    2.5310 C.3   300  IHD300      0.0008
     15  C3        57.4110   43.6840    2.4240 C.3   300  IHD300      0.0112
     16  C2        58.4290   44.5350    3.1680 C.3   300  IHD300      0.0624
     17  I1        59.3540   45.7670    1.6140 I     300  IHD300     -0.0745
@<TRIPOS>BOND
     1     1     2    1
     2     2     3    1
     3     3     4    1
     4     4     5    1
     5     6     5    1
     6     6     7    1
     7     7     8    1
     8     8     9    1
     9    10    11    1
    10    10     9    1
    11    11    12    1
    12    12    13    1
    13    13    14    1
    14    17    16    1
    15    15    14    1
    16    15    16    1
