@<TRIPOS>MOLECULE
2p72_UPG_B_1.pdb
 36 38 0 0 0
SMALL
GASTEIGER

@<TRIPOS>ATOM
      1  N1       -16.1700   30.1780   -9.8160 N.am  215  UPG215     -0.1766
      2  C2       -14.9630   30.0070  -10.5300 C.1   215  UPG215      0.2845
      3  N3       -14.5020   31.0090  -11.2880 N.2   215  UPG215     -0.2452
      4  C4       -15.1470   32.1820  -11.3830 C.1   215  UPG215      0.2182
      5  C5       -16.3470   32.3860  -10.6900 C.2   215  UPG215      0.1242
      6  C6       -16.8430   31.3460   -9.8970 C.2   215  UPG215      0.0929
      7  O2       -14.3460   28.9160  -10.4580 O.2   215  UPG215     -0.1918
      8  O4       -14.6620   33.0750  -12.1220 O.2   215  UPG215     -0.2085
      9  C1C      -16.6320   29.0440   -9.0080 C.3   215  UPG215      0.2401
     10  C2C      -15.8170   28.9390   -7.7220 C.3   215  UPG215      0.2319
     11  O2C      -15.4150   27.5760   -7.5370 O.3   215  UPG215     -0.2157
     12  C3C      -16.7750   29.4130   -6.6440 C.3   215  UPG215      0.2158
     13  C4C      -18.1510   29.1250   -7.2230 C.3   215  UPG215      0.1799
     14  O4C      -18.0100   29.1980   -8.6460 O.3   215  UPG215     -0.3320
     15  O3C      -16.5660   28.8260   -5.3620 O.3   215  UPG215     -0.2175
     16  C5C      -19.1590   30.1910   -6.8680 C.3   215  UPG215      0.1813
     17  O5C      -18.6850   31.4450   -7.3790 O.3   215  UPG215     -0.3112
     18  PA       -19.0040   32.7990   -6.5560 P.3   215  UPG215      0.2189
     19  O1A      -19.3270   32.5050   -5.1350 O.3   215  UPG215     -0.4371
     20  O2A      -17.8490   33.7690   -6.6780 O.2   215  UPG215     -0.5170
     21  O3A      -20.2790   33.3830   -7.3460 O.3   215  UPG215     -0.2703
     22  PB       -21.1490   34.7010   -6.9450 P.3   215  UPG215      0.2208
     23  O1B      -20.4750   35.6320   -5.9720 O.3   215  UPG215     -0.4371
     24  O2B      -21.5060   35.2780   -8.2800 O.2   215  UPG215     -0.5170
     25  O3B      -22.4280   34.0880   -6.2020 O.3   215  UPG215     -0.2857
     26  C1'      -23.6540   33.9080   -6.9220 C.3   215  UPG215      0.2742
     27  C2'      -24.7710   34.4040   -6.0100 C.3   215  UPG215      0.2409
     28  C3'      -24.7630   33.5920   -4.6980 C.3   215  UPG215      0.2198
     29  C4'      -24.7870   32.0790   -4.9490 C.3   215  UPG215      0.2144
     30  C5'      -23.8620   31.6360   -6.0810 C.3   215  UPG215      0.1835
     31  C6'      -24.2880   30.2660   -6.5920 C.3   215  UPG215      0.2142
     32  O2'      -24.4580   35.7720   -5.7610 O.3   215  UPG215     -0.2149
     33  O3'      -25.8700   33.9080   -3.8460 O.3   215  UPG215     -0.2174
     34  O4'      -24.4280   31.3950   -3.7260 O.3   215  UPG215     -0.2176
     35  O5'      -23.8510   32.5200   -7.2230 O.3   215  UPG215     -0.3254
     36  O6'      -23.1610   29.5780   -7.1570 O.3   215  UPG215     -0.2176
@<TRIPOS>BOND
     1     8     4    2
     2     4     3    2
     3     4     5    1
     4     3     2    2
     5     5     6    2
     6     2     7    2
     7     2     1   am
     8     6     1    1
     9     1     9    1
    10     9    14    1
    11     9    10    1
    12    14    13    1
    13    24    22    2
    14    10    11    1
    15    10    12    1
    16    17    16    1
    17    17    18    1
    18    21    22    1
    19    21    18    1
    20    13    16    1
    21    13    12    1
    22    35    26    1
    23    35    30    1
    24    36    31    1
    25    22    25    1
    26    22    23    1
    27    26    25    1
    28    26    27    1
    29    20    18    2
    30    12    15    1
    31    31    30    1
    32    18    19    1
    33    30    29    1
    34    27    32    1
    35    27    28    1
    36    29    28    1
    37    29    34    1
    38    28    33    1
