@<TRIPOS>MOLECULE
2p73_UDP_A_1.pdb
 25 26 0 0 0
SMALL
GASTEIGER

@<TRIPOS>ATOM
      1  N1        24.9630    9.3740   -1.8970 N.am  411  UDP411     -0.1996
      2  C2        23.5820    9.5290   -1.9650 C.1   411  UDP411      0.2802
      3  N3        22.8050    8.5580   -2.5260 N.2   411  UDP411     -0.2497
      4  C4        23.3790    7.4050   -3.0050 C.1   411  UDP411      0.1941
      5  C5        24.7720    7.2430   -2.9300 C.3   411  UDP411      0.1579
      6  C6        25.5510    8.3640   -2.6220 C.3   411  UDP411      0.1249
      7  O2        23.0120   10.5310   -1.5710 O.2   411  UDP411     -0.1922
      8  O4        22.6340    6.5520   -3.4920 O.2   411  UDP411     -0.2133
      9  C1'       25.7700   10.4480   -1.2850 C.3   411  UDP411      0.2361
     10  C2'       25.5440   10.3650    0.2140 C.3   411  UDP411      0.2316
     11  O2'       25.3850   11.6770    0.7060 O.3   411  UDP411     -0.2157
     12  C3'       26.7930    9.6830    0.7420 C.3   411  UDP411      0.2158
     13  C4'       27.8550    9.9700   -0.3210 C.3   411  UDP411      0.1799
     14  O4'       27.1630   10.2970   -1.5170 O.3   411  UDP411     -0.3322
     15  O3'       27.1230   10.1920    2.0150 O.3   411  UDP411     -0.2175
     16  C5'       28.7870    8.8050   -0.6060 C.3   411  UDP411      0.1813
     17  O5'       28.0170    7.6630   -0.9060 O.3   411  UDP411     -0.3111
     18  PA        28.5030    6.2240   -0.4100 P.3   411  UDP411      0.2231
     19  O1A       28.7630    6.2430    1.0510 O.3   411  UDP411     -0.4370
     20  O2A       27.5890    5.1370   -0.7750 O.2   411  UDP411     -0.5169
     21  O3A       29.9540    6.0280   -1.1110 O.3   411  UDP411     -0.2261
     22  PB        31.0400    4.9370   -0.6390 P.3   411  UDP411      0.5373
     23  O1B       31.6300    5.2150    0.7010 O.3   411  UDP411     -0.1143
     24  O2B       30.3980    3.6050   -0.5300 O.3   411  UDP411     -0.1143
     25  O3B       32.1700    4.9280   -1.6200 O.2   411  UDP411     -0.2221
@<TRIPOS>BOND
     1     8     4    2
     2     4     5    1
     3     4     3    2
     4     5     6    1
     5     6     1    1
     6     3     2    2
     7     2     1   am
     8     2     7    2
     9     1     9    1
    10    25    22    2
    11    14     9    1
    12    14    13    1
    13     9    10    1
    14    21    22    1
    15    21    18    1
    16    17    16    1
    17    17    18    1
    18    20    18    2
    19    22    24    1
    20    22    23    1
    21    16    13    1
    22    18    19    1
    23    13    12    1
    24    10    11    1
    25    10    12    1
    26    12    15    1
