@<TRIPOS>MOLECULE
2p7g_2OH_A_1.pdb
 17 18 0 0 0
SMALL
GASTEIGER

@<TRIPOS>ATOM
      1  O2        48.5790  -29.6480 -101.2110 O.3     1  2OH1       -0.2866
      2  C13       48.5640  -29.4780  -99.8580 C.ar    1  2OH1        0.1957
      3  C12       47.5250  -30.0870  -99.1290 C.ar    1  2OH1        0.0417
      4  C11       47.4680  -29.9360  -97.7110 C.ar    1  2OH1       -0.0007
      5  C14       49.5590  -28.7140  -99.1980 C.ar    1  2OH1        0.0417
      6  C15       49.5080  -28.5580  -97.7840 C.ar    1  2OH1       -0.0007
      7  C4        48.4580  -29.1650  -96.9920 C.ar    1  2OH1       -0.0188
      8  C2        48.4200  -28.9690  -95.4200 C.3     1  2OH1        0.0377
      9  C3        49.7240  -29.6120  -94.8290 C.3     1  2OH1        0.0088
     10  C5        47.2320  -29.7120  -94.7540 C.3     1  2OH1        0.0088
     11  C1        48.2150  -27.4370  -95.0660 C.ar    1  2OH1       -0.0188
     12  C10       49.1120  -26.6650  -94.2480 C.ar    1  2OH1       -0.0007
     13  C9        48.8460  -25.2860  -93.9710 C.ar    1  2OH1        0.0417
     14  C6        47.0510  -26.7480  -95.5860 C.ar    1  2OH1       -0.0007
     15  C7        46.7960  -25.3860  -95.3140 C.ar    1  2OH1        0.0417
     16  C8        47.6860  -24.6620  -94.5100 C.ar    1  2OH1        0.1957
     17  O1        47.4540  -23.3420  -94.2300 O.3     1  2OH1       -0.2866
@<TRIPOS>BOND
     1     1     2    1
     2     2     5   ar
     3     2     3   ar
     4     5     6   ar
     5     3     4   ar
     6     6     7   ar
     7     4     7   ar
     8     7     8    1
     9    14    15   ar
    10    14    11   ar
    11     8    11    1
    12     8     9    1
    13     8    10    1
    14    15    16   ar
    15    11    12   ar
    16    16    17    1
    17    16    13   ar
    18    12    13   ar
