@<TRIPOS>MOLECULE
2p7u_D1R_A_1.pdb
 41 44 0 0 0
SMALL
GASTEIGER

@<TRIPOS>ATOM
      1  C39      -10.5700    6.3770    8.0570 C.3   300  D1R300      0.1123
      2  C40      -10.5080    7.6410    8.9090 C.3   300  D1R300      0.0940
      3  N4       -11.6020    7.7170    9.8560 N.3   300  D1R300     -0.2686
      4  C33      -11.9620    9.0340   10.3510 C.3   300  D1R300      0.0897
      5  C49      -12.2540    6.5660   10.4730 C.3   300  D1R300      0.0940
      6  C48      -12.2990    5.3870    9.5300 C.3   300  D1R300      0.1123
      7  N3       -11.0300    5.2100    8.8170 N.am  300  D1R300     -0.2600
      8  C8       -10.3960    4.0200    8.7450 C.2   300  D1R300      0.3237
      9  O2       -10.8290    2.9740    9.3010 O.2   300  D1R300     -0.2508
     10  N1        -9.2780    3.9440    8.0130 N.am  300  D1R300     -0.1804
     11  C9        -8.5930    2.6480    7.9760 C.3   300  D1R300      0.1786
     12  C10       -7.9500    2.4590    6.5750 C.3   300  D1R300      0.0575
     13  C11       -8.8710    2.6190    5.3950 C.ar  300  D1R300     -0.0200
     14  C12      -10.1970    2.2370    5.5290 C.ar  300  D1R300     -0.0042
     15  C13      -11.0560    2.3630    4.4230 C.ar  300  D1R300     -0.0003
     16  C14      -10.5250    2.8540    3.2350 C.ar  300  D1R300     -0.0000
     17  C15       -9.2160    3.2290    3.1230 C.ar  300  D1R300     -0.0003
     18  C16       -8.3440    3.0820    4.2190 C.ar  300  D1R300     -0.0042
     19  C17       -7.4450    2.6390    8.9570 C.2   300  D1R300      0.2616
     20  O3        -6.8470    3.7030    9.2060 O.2   300  D1R300     -0.2715
     21  N2        -7.1340    1.4670    9.5260 N.am  300  D1R300     -0.2057
     22  C18       -6.0020    1.3190   10.4830 C.3   300  D1R300      0.0975
     23  C19       -6.5460    0.9770   11.8870 C.3   300  D1R300      0.0264
     24  C20       -7.2490    2.1530   12.5720 C.3   300  D1R300      0.0281
     25  C21       -7.5790    1.8220   13.9960 C.ar  300  D1R300     -0.0221
     26  C22       -8.5350    0.8530   14.2770 C.ar  300  D1R300     -0.0043
     27  C23       -8.8020    0.5080   15.6090 C.ar  300  D1R300     -0.0003
     28  C24       -8.1380    1.1870   16.6330 C.ar  300  D1R300     -0.0000
     29  C25       -7.2200    2.1790   16.3480 C.ar  300  D1R300     -0.0003
     30  C26       -6.9420    2.5340   15.0280 C.ar  300  D1R300     -0.0043
     31  C27       -4.9760    0.2310    9.8710 C.3   300  D1R300      0.0474
     32  C28       -5.5920   -1.1660    9.8650 C.3   300  D1R300      0.1577
     33  S1        -4.8350   -2.2990   10.9340 S.O2  300  D1R300      0.0087
     34  O4        -3.5000   -2.4900   10.5640 O.2   300  D1R300     -0.1686
     35  O5        -5.5490   -3.5320   10.7210 O.2   300  D1R300     -0.1686
     36  CAB       -5.0970   -1.9760   12.4550 C.ar  300  D1R300      0.1057
     37  CAA       -6.3470   -2.4060   12.9710 C.ar  300  D1R300      0.0183
     38  CAC       -6.6470   -2.1510   14.3240 C.ar  300  D1R300      0.0013
     39  CAE       -5.7090   -1.4990   15.1590 C.ar  300  D1R300      0.0001
     40  CAF       -4.4630   -1.1160   14.6600 C.ar  300  D1R300      0.0013
     41  CAD       -4.1570   -1.3640   13.2780 C.ar  300  D1R300      0.0183
@<TRIPOS>BOND
     1    17    16   ar
     2    17    18   ar
     3    16    15   ar
     4    18    13   ar
     5    15    14   ar
     6    13    14   ar
     7    13    12    1
     8    12    11    1
     9    11    10    1
    10    11    19    1
    11    10     8   am
    12     1     7    1
    13     1     2    1
    14     8     7   am
    15     8     9    2
    16     7     6    1
    17     2     3    1
    18    19    20    2
    19    19    21   am
    20    21    22    1
    21     6     5    1
    22     3     4    1
    23     3     5    1
    24    32    31    1
    25    32    33    1
    26    31    22    1
    27    22    23    1
    28    34    33    2
    29    35    33    2
    30    33    36    1
    31    23    24    1
    32    36    37   ar
    33    36    41   ar
    34    24    25    1
    35    37    38   ar
    36    41    40   ar
    37    25    26   ar
    38    25    30   ar
    39    26    27   ar
    40    38    39   ar
    41    40    39   ar
    42    30    29   ar
    43    27    28   ar
    44    29    28   ar
