@<TRIPOS>MOLECULE
2p7z_OHT_A_1.pdb
 29 31 0 0 0
SMALL
GASTEIGER

@<TRIPOS>ATOM
      1  C10       48.2330  -29.3590  -99.9140 C.3   201  OHT201      0.0050
      2  C9        49.2520  -29.0890  -98.7940 C.3   201  OHT201      0.0264
      3  C8        49.0700  -29.9170  -97.4700 C.2   201  OHT201     -0.0222
      4  C11       49.3450  -31.3290  -97.7080 C.ar  201  OHT201     -0.0040
      5  C16       48.3500  -32.2940  -97.4170 C.ar  201  OHT201     -0.0003
      6  C15       48.6170  -33.6620  -97.6420 C.ar  201  OHT201     -0.0000
      7  C14       49.8820  -34.0730  -98.1570 C.ar  201  OHT201     -0.0000
      8  C13       50.8800  -33.1210  -98.4480 C.ar  201  OHT201     -0.0000
      9  C12       50.6150  -31.7490  -98.2250 C.ar  201  OHT201     -0.0003
     10  C7        48.7180  -29.4030  -96.2040 C.2   201  OHT201     -0.0040
     11  C1        48.2640  -27.9550  -95.9440 C.ar  201  OHT201     -0.0001
     12  C2        49.0150  -27.0930  -95.0740 C.ar  201  OHT201      0.0033
     13  C3        48.5780  -25.7570  -94.8150 C.ar  201  OHT201      0.0420
     14  C4        47.3880  -25.2720  -95.4250 C.ar  201  OHT201      0.1957
     15  O4        46.9940  -23.9930  -95.1540 O.3   201  OHT201     -0.2866
     16  C5        46.6330  -26.0950  -96.2870 C.ar  201  OHT201      0.0420
     17  C6        47.0660  -27.4280  -96.5420 C.ar  201  OHT201      0.0033
     18  C17       48.7560  -30.2940  -95.0090 C.ar  201  OHT201     -0.0001
     19  C18       49.9430  -30.9790  -94.5770 C.ar  201  OHT201      0.0031
     20  C19       49.9380  -31.7390  -93.3700 C.ar  201  OHT201      0.0369
     21  C20       48.7470  -31.8250  -92.5830 C.ar  201  OHT201      0.1386
     22  O20       48.7750  -32.5580  -91.4860 O.3   201  OHT201     -0.4740
     23  C23       48.5020  -32.0500  -90.1680 C.3   201  OHT201      0.2226
     24  C24       48.6480  -33.2450  -89.2000 C.3   201  OHT201      0.1201
     25  N24       49.9920  -33.4070  -88.5720 N.3   201  OHT201     -0.2672
     26  C25       50.9960  -32.6270  -89.3330 C.3   201  OHT201      0.0898
     27  C26       50.0270  -32.9800  -87.1480 C.3   201  OHT201      0.0898
     28  C21       47.5780  -31.1490  -93.0330 C.ar  201  OHT201      0.0369
     29  C22       47.5760  -30.3890  -94.2270 C.ar  201  OHT201      0.0031
@<TRIPOS>BOND
     1     1     2    1
     2     2     3    1
     3     8     9   ar
     4     8     7   ar
     5     9     4   ar
     6     7     6   ar
     7     4     3    1
     8     4     5   ar
     9     6     5   ar
    10     3    10    2
    11    17    16   ar
    12    17    11   ar
    13    16    14   ar
    14    10    11    1
    15    10    18    1
    16    11    12   ar
    17    14    15    1
    18    14    13   ar
    19    12    13   ar
    20    18    19   ar
    21    18    29   ar
    22    19    20   ar
    23    29    28   ar
    24    20    21   ar
    25    28    21   ar
    26    21    22    1
    27    22    23    1
    28    23    24    1
    29    26    25    1
    30    24    25    1
    31    25    27    1
