@<TRIPOS>MOLECULE
2p83_MR0_A_1.pdb
 44 46 0 0 0
SMALL
GASTEIGER

@<TRIPOS>ATOM
      1  N1       -23.1910   56.9660   64.0390 N.am  801  MR0801     -0.2004
      2  C4       -25.6080   57.0410   64.4350 C.ar  801  MR0801      0.0553
      3  C5       -25.4090   57.5420   65.7700 C.ar  801  MR0801      0.0091
      4  C6       -26.3000   58.1290   68.1220 C.2   801  MR0801      0.2490
      5  C7       -29.2860   56.1760   64.4740 C.2   801  MR0801      0.2842
      6  C8       -24.4760   56.9980   63.4910 C.2   801  MR0801      0.2648
      7  C10      -25.3990   60.6170   67.7380 C.3   801  MR0801      0.0937
      8  C13      -26.6470   61.2590   67.0870 C.3   801  MR0801      0.0215
      9  C15      -21.8950   56.9600   63.2570 C.3   801  MR0801      0.1316
     10  C17      -20.9590   57.9280   64.0340 C.3   801  MR0801      0.0508
     11  C20      -22.4840   53.3060   59.6490 C.ar  801  MR0801     -0.0018
     12  C21      -23.7590   53.5870   59.0400 C.ar  801  MR0801     -0.0027
     13  C22      -23.8240   54.3330   57.7990 C.ar  801  MR0801      0.0028
     14  C24      -21.3010   54.5330   57.7590 C.ar  801  MR0801      0.1385
     15  C26      -22.9390   61.2620   63.4260 C.ar  801  MR0801      0.1421
     16  C28      -21.6530   59.3000   64.3070 C.ar  801  MR0801     -0.0159
     17  C        -26.5170   57.6040   66.7220 C.ar  801  MR0801      0.0539
     18  C1       -27.8120   57.1570   66.3130 C.ar  801  MR0801      0.0091
     19  C2       -27.9810   56.6560   64.9600 C.ar  801  MR0801      0.0569
     20  C3       -26.8830   56.6020   64.0360 C.ar  801  MR0801      0.0092
     21  O        -26.8860   57.5070   69.0410 O.2   801  MR0801     -0.2699
     22  N        -25.4990   59.2770   68.4870 N.am  801  MR0801     -0.2761
     23  C9       -24.7090   59.1130   69.7700 C.3   801  MR0801      0.0937
     24  C11      -23.2720   59.7260   69.7060 C.3   801  MR0801      0.0215
     25  C12      -22.2190   58.6630   69.2690 C.3   801  MR0801      0.0018
     26  C14      -27.7990   61.2990   68.1000 C.3   801  MR0801      0.0018
     27  O1       -24.6430   57.0100   62.2660 O.2   801  MR0801     -0.2684
     28  C16      -21.2460   55.6060   62.9840 C.3   801  MR0801      0.1894
     29  C18      -22.1630   54.7100   62.1750 C.3   801  MR0801      0.1237
     30  N2       -21.5070   53.3930   61.8670 N.3   801  MR0801     -0.2105
     31  C19      -22.3780   52.5320   60.9960 C.3   801  MR0801      0.1152
     32  C23      -22.6000   54.7960   57.1770 C.ar  801  MR0801      0.0369
     33  C25      -21.2660   53.7940   58.9810 C.ar  801  MR0801      0.0340
     34  O3       -20.2220   55.0470   57.0450 O.3   801  MR0801     -0.4714
     35  C27      -22.2810   60.0060   63.2270 C.ar  801  MR0801      0.0256
     36  C29      -21.6930   59.8860   65.6460 C.ar  801  MR0801      0.0256
     37  C30      -22.3580   61.1590   65.8560 C.ar  801  MR0801      0.1421
     38  C31      -22.9810   61.8370   64.7340 C.ar  801  MR0801      0.0592
     39  O2       -20.0390   55.8500   62.2320 O.3   801  MR0801     -0.2197
     40  CO       -18.8620   54.8920   57.4650 C.3   801  MR0801      0.2525
     41  N7A      -30.4530   56.7200   65.0170 N.am  801  MR0801     -0.0837
     42  O7B      -29.3280   55.2790   63.5670 O.2   801  MR0801     -0.2667
     43  F30      -22.3990   61.6920   67.0530 F     801  MR0801     -0.2041
     44  F26      -23.5100   61.8900   62.4130 F     801  MR0801     -0.2041
@<TRIPOS>BOND
     1    34    40    1
     2    34    14    1
     3    32    14   ar
     4    32    13   ar
     5    14    33   ar
     6    13    12   ar
     7    33    11   ar
     8    12    11   ar
     9    11    31    1
    10    31    30    1
    11    30    29    1
    12    29    28    1
    13    39    28    1
    14    27     6    2
    15    44    15    1
    16    28     9    1
    17    35    15   ar
    18    35    16   ar
    19     9    10    1
    20     9     1    1
    21    15    38   ar
    22     6     1   am
    23     6     2    1
    24    42     5    2
    25    10    16    1
    26    20     2   ar
    27    20    19   ar
    28    16    36   ar
    29     2     3   ar
    30     5    19    1
    31     5    41   am
    32    38    37   ar
    33    19    18   ar
    34    36    37   ar
    35     3    17   ar
    36    37    43    1
    37    18    17   ar
    38    17     4    1
    39     8     7    1
    40     8    26    1
    41     7    22    1
    42     4    22   am
    43     4    21    2
    44    22    23    1
    45    25    24    1
    46    24    23    1
