@<TRIPOS>MOLECULE
2p85_HEM_A_1.pdb
 43 50 0 0 0
SMALL
GASTEIGER

@<TRIPOS>ATOM
      1 FE         22.9700  -36.3180   15.6720 Fe    500  HEM500      0.0000
      2  CHA       22.1000  -39.5240   16.1800 C.2   500  HEM500      0.0000
      3  CHB       20.4900  -36.0340   13.4630 C.2   500  HEM500      0.0000
      4  CHC       23.8490  -33.1560   15.1610 C.2   500  HEM500      0.0000
      5  CHD       25.5190  -36.6950   17.8300 C.2   500  HEM500      0.0000
      6  NA        21.6300  -37.6230   14.7810 N.ar  500  HEM500      0.0000
      7  C1A       21.4810  -38.9430   15.0700 C.ar  500  HEM500      0.0000
      8  C2A       20.4070  -39.4730   14.3430 C.ar  500  HEM500      0.0000
      9  C3A       19.9100  -38.4200   13.5940 C.ar  500  HEM500      0.0000
     10  C4A       20.6980  -37.3160   13.9010 C.ar  500  HEM500      0.0000
     11  CMA       18.7130  -38.4370   12.5990 C.3   500  HEM500      0.0000
     12  CAA       19.9210  -40.9300   14.4100 C.3   500  HEM500      0.0000
     13  CBA       18.8940  -41.1560   15.4920 C.3   500  HEM500      0.0000
     14  CGA       18.3670  -42.5500   15.5720 C.2   500  HEM500      0.0000
     15  O1A       17.1660  -42.7060   15.4470 O.co2 500  HEM500      0.0000
     16  O2A       19.1030  -43.5250   15.7540 O.co2 500  HEM500      0.0000
     17  NB        22.3400  -34.8390   14.3680 N.2   500  HEM500      0.0000
     18  C1B       21.3150  -34.9140   13.5110 C.2   500  HEM500      0.0000
     19  C2B       21.1110  -33.6710   12.8350 C.2   500  HEM500      0.0000
     20  C3B       22.1200  -32.8160   13.3630 C.2   500  HEM500      0.0000
     21  C4B       22.8360  -33.6180   14.3050 C.2   500  HEM500      0.0000
     22  CMB       20.0290  -33.3900   11.7900 C.3   500  HEM500      0.0000
     23  CAB       22.4120  -31.4520   13.0730 C.3   500  HEM500      0.0000
     24  CBB       22.0390  -30.5890   11.9510 C.3   500  HEM500      0.0000
     25  NC        24.4700  -35.0660   16.3990 N.ar  500  HEM500      0.0000
     26  C1C       24.5480  -33.7820   16.1930 C.ar  500  HEM500      0.0000
     27  C2C       25.5740  -33.2030   16.9370 C.ar  500  HEM500      0.0000
     28  C3C       26.1770  -34.2400   17.6570 C.ar  500  HEM500      0.0000
     29  C4C       25.4420  -35.4000   17.2880 C.ar  500  HEM500      0.0000
     30  CMC       25.9720  -31.6950   16.9650 C.3   500  HEM500      0.0000
     31  CAC       27.2350  -34.2480   18.5380 C.3   500  HEM500      0.0000
     32  CBC       27.2490  -34.1940   19.9570 C.3   500  HEM500      0.0000
     33  ND        23.7270  -37.8540   16.8060 N.2   500  HEM500      0.0000
     34  C1D       24.8130  -37.8240   17.5290 C.2   500  HEM500      0.0000
     35  C2D       25.0630  -39.1000   18.0720 C.2   500  HEM500      0.0000
     36  C3D       24.0490  -39.9360   17.6270 C.2   500  HEM500      0.0000
     37  C4D       23.2420  -39.1070   16.8440 C.2   500  HEM500      0.0000
     38  CMD       26.2530  -39.5110   18.9930 C.3   500  HEM500      0.0000
     39  CAD       23.7900  -41.4630   17.8880 C.3   500  HEM500      0.0000
     40  CBD       22.8820  -41.7120   19.1230 C.3   500  HEM500      0.0000
     41  CGD       22.5340  -43.1780   19.4900 C.2   500  HEM500      0.0000
     42  O1D       21.9200  -43.4410   20.5170 O.co2 500  HEM500      0.0000
     43  O2D       22.8930  -44.0920   18.7310 O.co2 500  HEM500      0.0000
@<TRIPOS>BOND
     1    22    19    1
     2    24    23    1
     3    11     9    1
     4    19    20    2
     5    19    18    1
     6    23    20    1
     7    20    21    1
     8     3    18    1
     9     3    10    2
    10    18    17    2
    11     9    10   ar
    12     9     8   ar
    13    10     6   ar
    14    21    17    1
    15    21     4    2
    16     8    12    1
    17     8     7   ar
    18    17     1    1
    19    12    13    1
    20     6     7   ar
    21     6     1    1
    22     7     2    2
    23     4    26    1
    24    15    14   ar
    25    13    14    1
    26    14    16   ar
    27     1    25    1
    28     1    33    1
    29     2    37    1
    30    26    25   ar
    31    26    27   ar
    32    25    29   ar
    33    33    37    2
    34    33    34    1
    35    37    36    1
    36    27    30    1
    37    27    28   ar
    38    29    28   ar
    39    29     5    1
    40    34     5    2
    41    34    35    1
    42    36    39    1
    43    36    35    2
    44    28    31    1
    45    39    40    1
    46    35    38    1
    47    31    32    1
    48    43    41   ar
    49    40    41    1
    50    41    42   ar
