@<TRIPOS>MOLECULE
2p86_VS1_A_1.pdb
 40 43 0 0 0
SMALL
GASTEIGER

@<TRIPOS>ATOM
      1  N1        -3.8490   11.1550   17.2630 N.am  300  VS1300     -0.1802
      2  C3        -2.7120   10.4360   17.8130 C.3   300  VS1300      0.1786
      3  C12       -2.7040    8.9720   17.3190 C.3   300  VS1300      0.0575
      4  C14       -3.9760    8.1860   17.5220 C.ar  300  VS1300     -0.0200
      5  C15       -4.8270    8.3960   18.6000 C.ar  300  VS1300     -0.0042
      6  C16       -6.0090    7.6260   18.7140 C.ar  300  VS1300     -0.0003
      7  C17       -6.3120    6.6840   17.7700 C.ar  300  VS1300     -0.0000
      8  C18       -5.4800    6.5110   16.6870 C.ar  300  VS1300     -0.0003
      9  C19       -4.3370    7.2520   16.5670 C.ar  300  VS1300     -0.0042
     10  C11       -1.3990   11.0650   17.3360 C.2   300  VS1300      0.2616
     11  N20       -0.3740   10.9900   18.1590 N.am  300  VS1300     -0.2057
     12  C21        0.9730   11.4400   17.7780 C.3   300  VS1300      0.0975
     13  C23        1.4620   12.5800   18.6460 C.3   300  VS1300      0.0264
     14  C24        0.6650   13.8600   18.4980 C.3   300  VS1300      0.0281
     15  C29        1.3700   15.0200   19.1500 C.ar  300  VS1300     -0.0221
     16  C30        1.5900   14.9950   20.5370 C.ar  300  VS1300     -0.0043
     17  C31        2.2460   16.0430   21.1570 C.ar  300  VS1300     -0.0003
     18  C32        2.7060   17.0960   20.4370 C.ar  300  VS1300     -0.0000
     19  C33        2.4760   17.1590   19.0740 C.ar  300  VS1300     -0.0003
     20  C34        1.8020   16.1300   18.4160 C.ar  300  VS1300     -0.0043
     21  C25        2.1720    9.6420   19.1870 C.3   300  VS1300      0.1577
     22  S26        3.8010   10.0250   19.8050 S.O2  300  VS1300      0.0087
     23  C35        3.3950   10.5600   21.4130 C.ar  300  VS1300      0.1057
     24  C36        3.5100   11.8860   21.8050 C.ar  300  VS1300      0.0183
     25  C37        3.1360   12.3720   23.0800 C.ar  300  VS1300      0.0013
     26  C38        2.5980   11.4390   23.9580 C.ar  300  VS1300      0.0001
     27  C39        2.4680   10.1080   23.5680 C.ar  300  VS1300      0.0013
     28  C40        2.8190    9.6590   22.2840 C.ar  300  VS1300      0.0183
     29  O36        4.2990   11.2540   19.1370 O.2   300  VS1300     -0.1686
     30  O35        4.6400    8.8940   19.7300 O.2   300  VS1300     -0.1686
     31  O13       -1.3370   11.5340   16.2070 O.2   300  VS1300     -0.2715
     32  C2        -4.1210   12.4010   17.6130 C.2   300  VS1300      0.3276
     33  O10       -3.3920   12.9950   18.4370 O.2   300  VS1300     -0.2504
     34  N4        -5.1970   13.0470   17.0970 N.am  300  VS1300     -0.2340
     35  C5        -5.3560   14.4550   17.5140 C.2   300  VS1300      0.1094
     36  C6        -6.5060   15.1260   17.0290 C.2   300  VS1300      0.1884
     37  O7        -7.2760   14.5220   16.1100 O.2   300  VS1300     -0.4692
     38  C8        -7.4370   13.0600   16.1430 C.3   300  VS1300      0.2274
     39  C9        -6.0670   12.4740   16.1110 C.3   300  VS1300      0.1471
     40  C22        1.9240   10.2220   17.8140 C.3   300  VS1300      0.0474
@<TRIPOS>BOND
     1    37    38    1
     2    37    36    1
     3    39    38    1
     4    39    34    1
     5    31    10    2
     6     9     8   ar
     7     9     4   ar
     8     8     7   ar
     9    36    35    2
    10    34    35    1
    11    34    32   am
    12     1    32   am
    13     1     2    1
    14     3     4    1
    15     3     2    1
    16    10     2    1
    17    10    11   am
    18     4     5   ar
    19    32    33    2
    20     7     6   ar
    21    12    40    1
    22    12    11    1
    23    12    13    1
    24    40    21    1
    25    20    19   ar
    26    20    15   ar
    27    14    13    1
    28    14    15    1
    29     5     6   ar
    30    19    18   ar
    31    29    22    2
    32    15    16   ar
    33    21    22    1
    34    30    22    2
    35    22    23    1
    36    18    17   ar
    37    16    17   ar
    38    23    24   ar
    39    23    28   ar
    40    24    25   ar
    41    28    27   ar
    42    25    26   ar
    43    27    26   ar
