@<TRIPOS>MOLECULE
2p8b_NSK_A_1.pdb
 17 16 0 0 0
SMALL
GASTEIGER

@<TRIPOS>ATOM
      1  O1       -11.6850   31.6680  -28.1300 O.co2 501  NSK501     -0.2456
      2  O2       -11.8520   33.0010  -29.9650 O.co2 501  NSK501     -0.2456
      3  C1       -11.3210   32.1010  -29.2500 C.2   501  NSK501      0.3654
      4  C2       -10.0600   31.4650  -29.8590 C.3   501  NSK501      0.1237
      5  C3        -8.8100   31.5920  -28.9950 C.3   501  NSK501      0.0986
      6  O3        -6.8280   30.2580  -28.9060 O.2   501  NSK501     -0.2733
      7  C4        -7.5990   30.9100  -29.6020 C.2   501  NSK501      0.2424
      8  N1        -7.4630   31.1120  -30.9810 N.am  501  NSK501     -0.1956
      9  C5        -6.2930   30.6810  -31.7870 C.3   501  NSK501      0.1977
     10  C6        -5.9700   29.1710  -31.5750 C.2   501  NSK501      0.3842
     11  O4        -4.7470   28.8370  -31.5960 O.co2 501  NSK501     -0.2437
     12  C7        -5.0650   31.5580  -31.4390 C.3   501  NSK501      0.0333
     13  C8        -5.2500   33.0190  -31.8810 C.3   501  NSK501      0.0039
     14  C9        -3.9350   33.7920  -31.8340 C.3   501  NSK501      0.0206
     15  C10       -4.1620   35.2580  -32.1810 C.3   501  NSK501      0.1093
     16  N2        -4.3560   35.3870  -33.6480 N.3   501  NSK501     -0.1314
     17  O5        -6.9870   28.4330  -31.3960 O.co2 501  NSK501     -0.2437
@<TRIPOS>BOND
     1    16    15    1
     2    15    14    1
     3    13    14    1
     4    13    12    1
     5     9    10    1
     6     9    12    1
     7     9     8    1
     8    11    10   ar
     9    10    17   ar
    10     8     7   am
    11     2     3   ar
    12     4     3    1
    13     4     5    1
    14     7     5    1
    15     7     6    2
    16     3     1   ar
