@<TRIPOS>MOLECULE
2p8c_SUG_A_1.pdb
 19 18 0 0 0
SMALL
GASTEIGER

@<TRIPOS>ATOM
      1  O2        -4.8530   28.6730   16.9400 O.co2 501  SUG501     -0.2437
      2  N         -7.5810   31.0190   17.5580 N.am  501  SUG501     -0.1956
      3  CA        -6.4530   30.5100   16.7070 C.3   501  SUG501      0.1979
      4  CB        -5.2170   31.4510   16.8980 C.3   501  SUG501      0.0370
      5  CG        -5.5630   32.9080   16.5380 C.3   501  SUG501      0.0493
      6  CD        -4.4900   33.5980   15.7090 C.3   501  SUG501      0.2205
      7  NE        -4.9070   34.9620   15.4070 N.pl3 501  SUG501     -0.0865
      8  CZ        -4.1590   35.9060   14.8350 C.cat 501  SUG501      0.5346
      9  NH1       -2.8990   35.6560   14.4790 N.pl3 501  SUG501      0.1354
     10  NH2       -4.6800   37.1090   14.6170 N.pl3 501  SUG501      0.1354
     11  C         -6.0810   28.9940   16.9450 C.2   501  SUG501      0.3842
     12  O         -7.0920   28.2380   17.1110 O.co2 501  SUG501     -0.2437
     13  CW        -9.0130   31.4530   19.5200 C.3   501  SUG501      0.0986
     14  CX       -10.2800   31.3880   18.6590 C.3   501  SUG501      0.1237
     15  CY       -11.4880   32.0980   19.3240 C.2   501  SUG501      0.3654
     16  OD1      -11.8650   31.6470   20.4580 O.co2 501  SUG501     -0.2456
     17  OD2      -11.9710   33.0660   18.6520 O.co2 501  SUG501     -0.2456
     18  CV        -7.7740   30.7910   18.9360 C.2   501  SUG501      0.2424
     19  OXT       -7.0270   30.1260   19.6530 O.2   501  SUG501     -0.2733
@<TRIPOS>BOND
     1     9     8    1
     2    10     8    1
     3     8     7    2
     4     7     6    1
     5     6     5    1
     6     5     4    1
     7     3     4    1
     8     3    11    1
     9     3     2    1
    10     1    11   ar
    11    11    12   ar
    12     2    18   am
    13    17    15   ar
    14    14    15    1
    15    14    13    1
    16    18    13    1
    17    18    19    2
    18    15    16   ar
