@<TRIPOS>MOLECULE
2p8h_MY9_A_1.pdb
 46 49 0 0 0
SMALL
GASTEIGER

@<TRIPOS>ATOM
      1  C1        32.1850   44.2740    6.0810 C.ar  386  MY9386     -0.0003
      2  C2        32.6060   45.3040    5.1170 C.ar  386  MY9386     -0.0024
      3  C3        32.5730   46.7340    5.3770 C.ar  386  MY9386     -0.0003
      4  C4        32.1190   47.1660    6.6770 C.ar  386  MY9386      0.0294
      5  C5        31.7640   46.1370    7.6220 C.ar  386  MY9386      0.1401
      6  C6        31.7730   44.7050    7.3840 C.ar  386  MY9386      0.0294
      7  C7        33.1310   44.9540    3.7740 C.3   386  MY9386      0.1178
      8  N1        32.2070   44.1910    2.9440 N.am  386  MY9386     -0.1989
      9  C8        31.4220   44.6770    1.9210 C.2   386  MY9386      0.2651
     10  C9        30.4450   43.7270    1.3410 C.ar  386  MY9386      0.0565
     11  C10       30.7740   42.3320    1.2320 C.ar  386  MY9386      0.0092
     12  C11       29.8000   41.3750    0.8380 C.ar  386  MY9386      0.0565
     13  C12       28.4720   41.8070    0.4710 C.ar  386  MY9386      0.0207
     14  C13       28.1050   43.2000    0.4850 C.ar  386  MY9386      0.0688
     15  C14       29.1160   44.1440    0.9340 C.ar  386  MY9386      0.0207
     16  N2        26.8040   43.5560    0.0790 N.pl3 386  MY9386     -0.1925
     17  S1        25.9420   44.7830    0.7850 S.O2  386  MY9386      0.0588
     18  C15       26.2710   46.3560    0.0070 C.3   386  MY9386      0.1999
     19  C16       26.2440   43.0030   -1.1970 C.3   386  MY9386      0.1388
     20  C17       30.1350   39.9540    0.7600 C.2   386  MY9386      0.2649
     21  O1        31.5470   45.8410    1.5330 O.2   386  MY9386     -0.2684
     22  O2        26.4540   44.9280    2.1180 O.2   386  MY9386     -0.1542
     23  O3        24.5390   44.4870    0.6790 O.2   386  MY9386     -0.1542
     24  O4        29.9030   39.2940   -0.2560 O.2   386  MY9386     -0.2684
     25  C18       34.4420   44.1630    3.9240 C.3   386  MY9386      0.0283
     26  N3        30.7160   39.4100    1.8720 N.am  386  MY9386     -0.2004
     27  C19       31.4290   38.1100    1.8020 C.3   386  MY9386      0.1321
     28  C20       32.8820   38.3470    2.2210 C.3   386  MY9386      0.0507
     29  C21       33.6450   39.4470    1.4640 C.ar  386  MY9386     -0.0204
     30  C22       33.5320   39.6790    0.0090 C.ar  386  MY9386     -0.0042
     31  C23       34.3120   40.7450   -0.5790 C.ar  386  MY9386     -0.0003
     32  C24       35.1670   41.5550    0.2780 C.ar  386  MY9386     -0.0000
     33  C25       35.3140   41.3190    1.7080 C.ar  386  MY9386     -0.0003
     34  C26       34.5170   40.2560    2.3030 C.ar  386  MY9386     -0.0042
     35  C27       30.7540   37.0830    2.7550 C.3   386  MY9386      0.1967
     36  O5        31.4260   35.9300    2.8070 O.3   386  MY9386     -0.2193
     37  F1        31.3920   46.5360    8.8460 F     386  MY9386     -0.2042
     38  C28       27.5610   35.3400    2.2870 C.3   386  MY9386      0.1211
     39  N4        28.6070   35.8620    3.1670 N.3   386  MY9386     -0.1926
     40  C29       29.2840   36.8200    2.2840 C.3   386  MY9386      0.1825
     41  C30       29.2600   36.1190    0.9280 C.2   386  MY9386      0.2451
     42  N5        28.2100   35.2960    0.9620 N.am  386  MY9386     -0.2664
     43  O6        29.9930   36.2280   -0.0510 O.2   386  MY9386     -0.2732
     44  C31       27.7380   34.4090   -0.1020 C.3   386  MY9386      0.1161
     45  C32       26.3340   36.2840    2.2470 C.3   386  MY9386      0.0381
     46  C33       27.1540   33.9620    2.7910 C.3   386  MY9386      0.0381
@<TRIPOS>BOND
     1    19    16    1
     2    31    30   ar
     3    31    32   ar
     4    24    20    2
     5    44    42    1
     6    43    41    2
     7    18    17    1
     8    30    29   ar
     9    16    14    1
    10    16    17    1
    11    32    33   ar
    12    13    14   ar
    13    13    12   ar
    14    14    15   ar
    15    23    17    2
    16    20    12    1
    17    20    26   am
    18    17    22    2
    19    12    11   ar
    20    41    42   am
    21    41    40    1
    22    15    10   ar
    23    42    38    1
    24    11    10   ar
    25    10     9    1
    26    29    28    1
    27    29    34   ar
    28    21     9    2
    29    33    34   ar
    30    27    26    1
    31    27    28    1
    32    27    35    1
    33     9     8   am
    34    45    38    1
    35    40    35    1
    36    40    39    1
    37    38    46    1
    38    38    39    1
    39    35    36    1
    40     8     7    1
    41     7    25    1
    42     7     2    1
    43     2     3   ar
    44     2     1   ar
    45     3     4   ar
    46     1     6   ar
    47     4     5   ar
    48     6     5   ar
    49     5    37    1
