@<TRIPOS>MOLECULE
2p8n_ADE_A_1.pdb
 10 11 0 0 0
SMALL
GASTEIGER

@<TRIPOS>ATOM
      1  N9       -23.2210   11.9740   -8.6430 N.2   271  ADE271     -0.1914
      2  C8       -23.9430   12.3660   -7.5400 C.3   271  ADE271      0.2618
      3  N7       -24.2420   11.3970   -6.7270 N.2   271  ADE271     -0.2267
      4  C5       -23.6880   10.2970   -7.3000 C.2   271  ADE271      0.2303
      5  C6       -23.6690    8.9490   -6.9250 C.2   271  ADE271      0.4393
      6  N6       -24.2520    8.5300   -5.7940 N.pl3 271  ADE271      0.2185
      7  N1       -23.0060    8.1060   -7.7700 N.2   271  ADE271     -0.0265
      8  C2       -22.4380    8.5840   -8.8910 C.3   271  ADE271      0.4008
      9  N3       -22.3920    9.8150   -9.3550 N.2   271  ADE271     -0.1640
     10  C4       -23.0610   10.6250   -8.4930 C.1   271  ADE271      0.0579
@<TRIPOS>BOND
     1     9     8    1
     2     9    10    2
     3     8     7    1
     4     1    10    2
     5     1     2    1
     6    10     4    1
     7     7     5    2
     8     2     3    1
     9     4     5    1
    10     4     3    2
    11     5     6    1
