@<TRIPOS>MOLECULE
2p8o_BVA_C_1.pdb
 14 15 0 0 0
SMALL
GASTEIGER

@<TRIPOS>ATOM
      1  C14       26.8290    2.7420   39.7040 C.2   300  BVA300      0.0000
      2  C17       26.4230    5.0710   40.3900 C.ar  300  BVA300      0.0000
      3  C19       25.8240    5.6450   42.6270 C.ar  300  BVA300      0.0000
      4  C21       26.2660    3.3680   42.0550 C.ar  300  BVA300      0.0000
      5  C20       25.9140    4.3290   42.9900 C.ar  300  BVA300      0.0000
      6  C18       26.0680    6.0270   41.3340 C.ar  300  BVA300      0.0000
      7  O8        27.1780    0.5370   39.0740 O.2   300  BVA300      0.0000
      8  O9        25.6780    0.6970   36.7890 O.3   300  BVA300      0.0000
      9  O10       26.9940    3.0670   38.4850 O.2   300  BVA300      0.0000
     10  O11       28.2220   -0.0240   36.7140 O.3   300  BVA300      0.0000
     11  O12       28.9140    2.1630   37.8980 O.3   300  BVA300      0.0000
     12  N13       26.9310    1.4830   40.0100 N.2   300  BVA300      0.0000
     13  C15       26.5110    3.7370   40.7510 C.ar  300  BVA300      0.0000
     14  V16       27.2240    1.4220   37.4020 V     300  BVA300      0.0000
@<TRIPOS>BOND
     1    10    14    1
     2     8    14    1
     3    14    11    1
     4    14     9    1
     5    14     7    1
     6     9     1    1
     7     7    12    1
     8     1    12    2
     9     1    13    1
    10     2    13   ar
    11     2     6   ar
    12    13     4   ar
    13     6     3   ar
    14     4     5   ar
    15     3     5   ar
