@<TRIPOS>MOLECULE
2p8s_417_A_1.pdb
 29 32 0 0 0
SMALL
GASTEIGER

@<TRIPOS>ATOM
      1  C1        34.7310   50.4710   36.3910 C.ar  1001  4171001     0.0612
      2  C2        35.9770   51.0680   36.5800 C.ar  1001  4171001     0.1386
      3  C3        37.2100   50.3820   36.3930 C.ar  1001  4171001     0.0087
      4  C4        37.1530   49.0100   35.9870 C.ar  1001  4171001     0.0300
      5  C5        35.8900   48.3970   35.7950 C.ar  1001  4171001     0.1672
      6  C6        34.6950   49.1280   35.9960 C.ar  1001  4171001     0.1696
      7  C9        38.5190   51.1180   36.6180 C.3   1001  4171001     0.0423
      8  C10       39.4530   50.3730   37.6060 C.3   1001  4171001     0.0073
      9  C11       40.7550   51.1730   37.8190 C.3   1001  4171001     0.0164
     10  C12       41.5200   51.4310   36.4790 C.3   1001  4171001     0.0594
     11  C13       40.5800   52.1470   35.4690 C.3   1001  4171001     0.0353
     12  C14       39.2640   51.3620   35.2580 C.3   1001  4171001     0.0972
     13  N21       42.7790   52.2300   36.6550 N.3   1001  4171001    -0.2659
     14  C22       43.9240   51.4030   37.1440 C.3   1001  4171001     0.0972
     15  C23       45.2800   52.1690   37.1080 C.3   1001  4171001     0.1260
     16  N24       45.1260   53.5950   37.5070 N.ar  1001  4171001    -0.2929
     17  C25       43.9470   54.2130   37.7040 C.ar  1001  4171001     0.1596
     18  C26       42.6280   53.4650   37.5260 C.3   1001  4171001     0.1390
     19  C33       46.0350   54.5570   37.7680 C.ar  1001  4171001     0.2383
     20  N34       45.3680   55.6890   38.0910 N.ar  1001  4171001    -0.1250
     21  N35       44.1360   55.4830   38.0550 N.ar  1001  4171001    -0.1320
     22  F36       35.8440   47.1120   35.4190 F     1001  4171001    -0.2018
     23  F37       35.9780   52.3450   36.9570 F     1001  4171001    -0.2044
     24  N38       38.3910   52.0670   34.3150 N.3   1001  4171001    -0.1325
     25  C39       47.5570   54.4190   37.7080 C.3   1001  4171001     0.4524
     26  F40       48.1170   55.5870   38.0250 F     1001  4171001    -0.1632
     27  F41       47.8820   54.0480   36.4740 F     1001  4171001    -0.1632
     28  F42       47.9070   53.4850   38.5850 F     1001  4171001    -0.1632
     29  F43       33.5100   48.5560   35.8190 F     1001  4171001    -0.2017
@<TRIPOS>BOND
     1    24    12    1
     2    12    11    1
     3    12     7    1
     4    22     5    1
     5    11    10    1
     6     5     4   ar
     7     5     6   ar
     8    29     6    1
     9     4     3   ar
    10     6     1   ar
    11     1     2   ar
    12     3     2   ar
    13     3     7    1
    14    27    25    1
    15    10    13    1
    16    10     9    1
    17     2    23    1
    18     7     8    1
    19    13    14    1
    20    13    18    1
    21    15    14    1
    22    15    16    1
    23    16    17   ar
    24    16    19   ar
    25    18    17    1
    26     8     9    1
    27    17    21   ar
    28    25    19    1
    29    25    26    1
    30    25    28    1
    31    19    20   ar
    32    21    20   ar
