@<TRIPOS>MOLECULE
2p8u_COA_A_1.pdb
 48 50 0 0 0
SMALL
GASTEIGER

@<TRIPOS>ATOM
      1  N1A       -2.0690   40.6770   65.2210 N.2   601  COA601      0.0021
      2  C2A       -0.9760   40.8090   64.4760 C.3   601  COA601      0.5254
      3  N3A        0.1690   41.2810   64.9820 N.2   601  COA601     -0.0055
      4  C4A        0.2310   41.6350   66.2770 C.2   601  COA601      0.3518
      5  C5A       -0.8930   41.5140   67.0890 C.2   601  COA601      0.2526
      6  C6A       -2.0660   41.0230   66.5260 C.2   601  COA601      0.4393
      7  N6A       -3.1560   40.8820   67.2760 N.pl3 601  COA601      0.2180
      8  N7A       -0.5570   41.9290   68.3160 N.2   601  COA601     -0.2095
      9  C8A        0.7330   42.2970   68.2860 C.3   601  COA601      0.3377
     10  N9A        1.2050   42.1280   67.0380 N.pl3 601  COA601     -0.1439
     11  C1B        2.5740   42.3680   66.5720 C.3   601  COA601      0.3185
     12  C2B        3.2840   43.6000   67.0540 C.3   601  COA601      0.2543
     13  O2B        2.8780   44.7210   66.2680 O.3   601  COA601     -0.2131
     14  C3B        4.7250   43.1540   66.7550 C.3   601  COA601      0.1928
     15  O3B        4.9970   43.1380   65.3530 O.3   601  COA601     -0.2673
     16  P3B        5.6020   44.4130   64.6080 P.3   601  COA601      0.5327
     17  O7A        5.8560   43.7750   63.1370 O.2   601  COA601     -0.2224
     18  O8A        7.0060   44.8160   65.3230 O.3   601  COA601     -0.1145
     19  O9A        4.6590   45.5810   64.6030 O.3   601  COA601     -0.1145
     20  C4B        4.7140   41.6800   67.1750 C.3   601  COA601      0.1795
     21  O4B        3.3270   41.3040   67.2530 O.3   601  COA601     -0.3136
     22  C5B        5.3800   41.4900   68.5380 C.3   601  COA601      0.1812
     23  O5B        5.0430   42.5560   69.4250 O.3   601  COA601     -0.3112
     24  P1A        4.3360   42.2640   70.8240 P.3   601  COA601      0.2189
     25  O1A        3.0270   41.5890   70.5890 O.2   601  COA601     -0.5170
     26  O2A        4.4150   43.5920   71.4840 O.3   601  COA601     -0.4371
     27  O3A        5.2640   41.1560   71.6170 O.3   601  COA601     -0.2703
     28  P2A        6.5310   41.6290   72.5120 P.3   601  COA601      0.2188
     29  O4A        6.0380   41.8380   73.8930 O.3   601  COA601     -0.4371
     30  O5A        7.2020   42.7620   71.8110 O.2   601  COA601     -0.5170
     31  O6A        7.4980   40.2840   72.4270 O.3   601  COA601     -0.3138
     32  CBP        9.7900   39.6400   71.7410 C.3   601  COA601      0.0645
     33  CCP        8.3960   40.1220   71.3050 C.3   601  COA601      0.1519
     34  CDP       10.5210   39.0890   70.5050 C.3   601  COA601      0.0056
     35  CEP       10.5780   40.8390   72.2890 C.3   601  COA601      0.0056
     36  CAP        9.6000   38.5600   72.8290 C.3   601  COA601      0.2312
     37  OAP        8.8200   37.4870   72.3040 O.3   601  COA601     -0.2131
     38  C9P       10.9360   38.0370   73.4070 C.2   601  COA601      0.2719
     39  O9P       11.4860   38.6370   74.3360 O.2   601  COA601     -0.2706
     40  N8P       11.4290   36.9130   72.8640 N.am  601  COA601     -0.2028
     41  C7P       12.6970   36.3500   73.3430 C.3   601  COA601      0.1248
     42  C6P       13.8890   37.1590   72.8310 C.3   601  COA601      0.1102
     43  C5P       14.0820   37.0330   71.3090 C.2   601  COA601      0.2432
     44  O5P       13.7300   36.0180   70.7040 O.2   601  COA601     -0.2733
     45  N4P       14.6510   38.1110   70.7650 N.am  601  COA601     -0.2044
     46  C3P       14.9610   38.2820   69.3410 C.3   601  COA601      0.1276
     47  C2P       16.4210   38.7160   69.2100 C.3   601  COA601      0.0920
     48  S1P       17.5800   37.3620   69.6590 S.3   601  COA601     -0.0802
@<TRIPOS>BOND
     1    17    16    2
     2     2     3    1
     3     2     1    1
     4    19    16    1
     5    16    18    1
     6    16    15    1
     7     3     4    2
     8     1     6    2
     9    15    14    1
    10    13    12    1
    11     4    10    1
    12     4     5    1
    13     6     5    1
    14     6     7    1
    15    11    10    1
    16    11    12    1
    17    11    21    1
    18    14    12    1
    19    14    20    1
    20    10     9    1
    21     5     8    2
    22    20    21    1
    23    20    22    1
    24     9     8    1
    25    22    23    1
    26    47    46    1
    27    47    48    1
    28    46    45    1
    29    23    24    1
    30    34    32    1
    31    25    24    2
    32    44    43    2
    33    45    43   am
    34    24    26    1
    35    24    27    1
    36    33    32    1
    37    33    31    1
    38    43    42    1
    39    27    28    1
    40    32    35    1
    41    32    36    1
    42    30    28    2
    43    37    36    1
    44    31    28    1
    45    28    29    1
    46    36    38    1
    47    42    41    1
    48    40    41    1
    49    40    38   am
    50    38    39    2
