@<TRIPOS>MOLECULE
2p8w_GNP_T_1.pdb
 32 34 0 0 0
SMALL
GASTEIGER

@<TRIPOS>ATOM
      1  PG       -16.4610   45.8780  -61.9000 P.3   843  GNP843      0.4884
      2  O1G      -15.9000   45.0250  -60.8260 O.3   843  GNP843     -0.1240
      3  O2G      -17.3240   45.2460  -62.9810 O.2   843  GNP843     -0.2331
      4  O3G      -17.2270   47.1320  -61.4800 O.3   843  GNP843     -0.1240
      5  N3B      -15.3870   46.8230  -62.5470 N.3   843  GNP843     -0.0163
      6  PB       -15.1060   47.8860  -63.6480 P.3   843  GNP843      0.4669
      7  O1B      -15.8630   47.7990  -64.8800 O.2   843  GNP843     -0.2351
      8  O2B      -15.3030   49.2360  -62.9270 O.3   843  GNP843     -0.1253
      9  O3A      -13.6150   48.0410  -64.0770 O.3   843  GNP843     -0.2360
     10  PA       -12.5040   49.0120  -63.6400 P.3   843  GNP843      0.2220
     11  O1A      -12.1520   48.7890  -62.2210 O.3   843  GNP843     -0.4370
     12  O2A      -12.7630   50.4240  -63.8650 O.2   843  GNP843     -0.5170
     13  O5'      -11.2880   48.7760  -64.6160 O.3   843  GNP843     -0.3111
     14  C5'      -10.8480   47.4100  -64.6750 C.3   843  GNP843      0.1813
     15  C4'       -9.4050   47.2420  -65.1620 C.3   843  GNP843      0.1799
     16  O4'       -9.3140   47.6920  -66.4790 O.3   843  GNP843     -0.3326
     17  C3'       -8.4900   48.1780  -64.4610 C.3   843  GNP843      0.2158
     18  O3'       -7.2650   47.5230  -64.2200 O.3   843  GNP843     -0.2175
     19  C2'       -8.3140   49.3600  -65.3460 C.3   843  GNP843      0.2310
     20  O2'       -7.0020   49.9110  -65.1830 O.3   843  GNP843     -0.2158
     21  C1'       -8.4450   48.7930  -66.6330 C.3   843  GNP843      0.2293
     22  N9        -8.9620   49.7850  -67.5520 N.pl3 843  GNP843     -0.2354
     23  C8        -9.9790   50.6700  -67.4930 C.3   843  GNP843      0.2246
     24  N7       -10.1140   51.4350  -68.5430 N.2   843  GNP843     -0.2322
     25  C5        -9.0600   50.9930  -69.3400 C.2   843  GNP843      0.2182
     26  C6        -8.6370   51.4070  -70.6180 C.1   843  GNP843      0.2372
     27  O6        -9.0680   52.3470  -71.2690 O.2   843  GNP843     -0.2069
     28  N1        -7.5600   50.6740  -71.1030 N.2   843  GNP843     -0.2485
     29  C2        -6.9510   49.6570  -70.4190 C.1   843  GNP843      0.2531
     30  N2        -5.9760   49.0150  -71.0570 N.pl3 843  GNP843     -0.0226
     31  N3        -7.3300   49.2710  -69.2030 N.2   843  GNP843     -0.3074
     32  C4        -8.3870   49.9840  -68.7390 C.2   843  GNP843      0.2300
@<TRIPOS>BOND
     1    27    26    2
     2    28    26    2
     3    28    29    2
     4    30    29    1
     5    26    25    1
     6    29    31    2
     7    25    32    1
     8    25    24    2
     9    31    32    2
    10    32    22    1
    11    24    23    1
    12    22    23    1
    13    22    21    1
    14    21    16    1
    15    21    19    1
    16    16    15    1
    17    19    20    1
    18    19    17    1
    19    15    14    1
    20    15    17    1
    21     7     6    2
    22    14    13    1
    23    13    10    1
    24    17    18    1
    25     9     6    1
    26     9    10    1
    27    12    10    2
    28     6     8    1
    29     6     5    1
    30    10    11    1
    31     3     1    2
    32     5     1    1
    33     1     4    1
    34     1     2    1
