@<TRIPOS>MOLECULE
2p8x_APR_T_1.pdb
 35 38 0 0 0
SMALL
GASTEIGER

@<TRIPOS>ATOM
      1  N1       -54.1620    7.1460    5.8940 N.2   1699  APR1699     0.0021
      2  C2       -53.7730    8.4300    6.2980 C.3   1699  APR1699     0.5254
      3  N3       -54.3070    9.5740    5.9670 N.2   1699  APR1699    -0.0055
      4  C4       -55.3700    9.4000    5.1450 C.2   1699  APR1699     0.3518
      5  C5       -55.8940    8.1920    4.6650 C.2   1699  APR1699     0.2526
      6  C6       -55.2490    7.0000    5.0650 C.2   1699  APR1699     0.4393
      7  N6       -55.6100    5.7830    4.6700 N.pl3 1699  APR1699     0.2180
      8  N7       -57.0020    8.4080    3.8520 N.2   1699  APR1699    -0.2095
      9  C8       -57.1180    9.7270    3.8290 C.3   1699  APR1699     0.3377
     10  N9       -56.1460   10.3630    4.5750 N.pl3 1699  APR1699    -0.1439
     11  C1'      -55.8800   11.7880    4.8000 C.3   1699  APR1699     0.3186
     12  C2'      -56.1690   12.4710    3.4900 C.3   1699  APR1699     0.2570
     13  O2'      -54.9570   12.8070    2.8090 O.3   1699  APR1699    -0.2130
     14  C3'      -57.0820   13.6730    3.8070 C.3   1699  APR1699     0.2184
     15  O3'      -56.4190   14.9610    3.7360 O.3   1699  APR1699    -0.2174
     16  O4'      -56.7500   12.2790    5.7730 O.3   1699  APR1699    -0.3135
     17  C4'      -57.6350   13.3630    5.2240 C.3   1699  APR1699     0.1821
     18  C5'      -58.7580   12.3480    5.0660 C.3   1699  APR1699     0.1813
     19  O5'      -59.9160   12.6670    5.0080 O.3   1699  APR1699    -0.3112
     20  PA       -60.8780   11.4130    5.2970 P.3   1699  APR1699     0.2189
     21  O1A      -62.3230   11.8760    5.2510 O.2   1699  APR1699    -0.5170
     22  O2A      -60.4910   10.8980    6.5410 O.3   1699  APR1699    -0.4371
     23  O3A      -60.8490   10.4150    4.0210 O.3   1699  APR1699    -0.2703
     24  PB       -61.6550   10.9030    2.6520 P.3   1699  APR1699     0.2189
     25  O1B      -63.1280   10.7810    2.4290 O.2   1699  APR1699    -0.5170
     26  O2B      -61.3290   12.2830    2.6130 O.3   1699  APR1699    -0.4371
     27  O5D      -60.7670   10.2650    1.5640 O.3   1699  APR1699    -0.3112
     28  C5D      -59.4450    9.9090    1.7530 C.3   1699  APR1699     0.1812
     29  O4D      -58.3080   11.0650    0.2010 O.3   1699  APR1699    -0.3482
     30  C1D      -56.8680   11.2080    0.1070 C.3   1699  APR1699     0.1777
     31  O2D      -55.3530    9.2180   -0.1680 O.3   1699  APR1699    -0.2176
     32  C2D      -56.3950    9.8290    0.6130 C.3   1699  APR1699     0.2140
     33  O3D      -57.4060    7.9000   -0.5800 O.3   1699  APR1699    -0.2176
     34  C3D      -57.5720    8.8580    0.4890 C.3   1699  APR1699     0.2140
     35  C4D      -58.8040    9.6990    0.4300 C.3   1699  APR1699     0.1780
@<TRIPOS>BOND
     1    33    34    1
     2    31    32    1
     3    30    29    1
     4    30    32    1
     5    29    35    1
     6    35    34    1
     7    35    28    1
     8    34    32    1
     9    27    28    1
    10    27    24    1
    11    25    24    2
    12    26    24    1
    13    24    23    1
    14    13    12    1
    15    12    14    1
    16    12    11    1
    17    15    14    1
    18    14    17    1
    19     9     8    1
    20     9    10    1
    21     8     5    2
    22    23    20    1
    23    10    11    1
    24    10     4    1
    25     5     6    1
    26     5     4    1
    27     7     6    1
    28    11    16    1
    29    19    18    1
    30    19    20    1
    31     6     1    2
    32    18    17    1
    33     4     3    2
    34    17    16    1
    35    21    20    2
    36    20    22    1
    37     1     2    1
    38     3     2    1
