@<TRIPOS>MOLECULE
2p8x_GNP_T_1.pdb
 32 34 0 0 0
SMALL
GASTEIGER

@<TRIPOS>ATOM
      1  PG       -15.1760   46.8850  -61.9410 P.3   843  GNP843      0.4884
      2  O1G      -14.5540   46.0690  -60.8710 O.3   843  GNP843     -0.1240
      3  O2G      -15.9960   46.1980  -63.0220 O.2   843  GNP843     -0.2331
      4  O3G      -16.0260   48.0810  -61.5150 O.3   843  GNP843     -0.1240
      5  N3B      -14.1720   47.9030  -62.5880 N.3   843  GNP843     -0.0163
      6  PB       -13.9680   48.9870  -63.6860 P.3   843  GNP843      0.4669
      7  O1B      -14.7210   48.8510  -64.9160 O.2   843  GNP843     -0.2351
      8  O2B      -14.2560   50.3180  -62.9610 O.3   843  GNP843     -0.1253
      9  O3A      -12.4920   49.2460  -64.1190 O.3   843  GNP843     -0.2360
     10  PA       -11.4500   50.2900  -63.6810 P.3   843  GNP843      0.2220
     11  O1A      -11.0790   50.0880  -62.2640 O.3   843  GNP843     -0.4370
     12  O2A      -11.8070   51.6810  -63.9010 O.2   843  GNP843     -0.5170
     13  O5'      -10.2230   50.1420  -64.6610 O.3   843  GNP843     -0.3111
     14  C5'       -9.6900   48.8100  -64.7250 C.3   843  GNP843      0.1813
     15  C4'       -8.2400   48.7430  -65.2160 C.3   843  GNP843      0.1799
     16  O4'       -8.1840   49.2030  -66.5320 O.3   843  GNP843     -0.3326
     17  C3'       -7.3900   49.7390  -64.5150 C.3   843  GNP843      0.2158
     18  O3'       -6.1220   49.1690  -64.2790 O.3   843  GNP843     -0.2175
     19  C2'       -7.2990   50.9330  -65.3970 C.3   843  GNP843      0.2310
     20  O2'       -6.0280   51.5730  -65.2350 O.3   843  GNP843     -0.2158
     21  C1'       -7.3940   50.3620  -66.6850 C.3   843  GNP843      0.2293
     22  N9        -7.9810   51.3180  -67.6000 N.pl3 843  GNP843     -0.2354
     23  C8        -9.0570   52.1300  -67.5350 C.3   843  GNP843      0.2246
     24  N7        -9.2470   52.8880  -68.5830 N.2   843  GNP843     -0.2322
     25  C5        -8.1670   52.5220  -69.3840 C.2   843  GNP843      0.2182
     26  C6        -7.7770   52.9680  -70.6610 C.1   843  GNP843      0.2372
     27  O6        -8.2740   53.8780  -71.3090 O.2   843  GNP843     -0.2069
     28  N1        -6.6530   52.3130  -71.1520 N.2   843  GNP843     -0.2485
     29  C2        -5.9740   51.3380  -70.4720 C.1   843  GNP843      0.2531
     30  N2        -4.9580   50.7670  -71.1150 N.pl3 843  GNP843     -0.0226
     31  N3        -6.3210   50.9230  -69.2570 N.2   843  GNP843     -0.3074
     32  C4        -7.4240   51.5600  -68.7870 C.2   843  GNP843      0.2300
@<TRIPOS>BOND
     1    27    26    2
     2    28    26    2
     3    28    29    2
     4    30    29    1
     5    26    25    1
     6    29    31    2
     7    25    32    1
     8    25    24    2
     9    31    32    2
    10    32    22    1
    11    24    23    1
    12    22    23    1
    13    22    21    1
    14    21    16    1
    15    21    19    1
    16    16    15    1
    17    19    20    1
    18    19    17    1
    19    15    14    1
    20    15    17    1
    21     7     6    2
    22    14    13    1
    23    13    10    1
    24    17    18    1
    25     9     6    1
    26     9    10    1
    27    12    10    2
    28     6     8    1
    29     6     5    1
    30    10    11    1
    31     3     1    2
    32     5     1    1
    33     1     4    1
    34     1     2    1
