@<TRIPOS>MOLECULE
2p8y_SO1_T_1.pdb
 35 39 0 0 0
SMALL
GASTEIGER

@<TRIPOS>ATOM
      1  O14      -39.0040   27.9400  -41.3470 O.co2 1700  SO11700    -0.2457
      2  C5       -38.4340   26.8330  -41.3250 C.2   1700  SO11700     0.3643
      3  O15      -37.7480   26.3730  -40.3830 O.co2 1700  SO11700    -0.2457
      4  C1       -38.5770   25.9380  -42.6360 C.3   1700  SO11700     0.1025
      5  C4       -37.1340   25.7360  -43.3510 C.3   1700  SO11700     0.0107
      6  C12      -37.4860   25.2450  -44.6390 C.3   1700  SO11700     0.0006
      7  C6       -39.0200   25.1490  -44.5950 C.3   1700  SO11700     0.0033
      8  C10      -39.3540   23.8360  -43.7870 C.3   1700  SO11700     0.0080
      9  C3       -39.3140   24.4590  -42.3260 C.3   1700  SO11700     0.0681
     10  C11      -38.3780   23.6850  -41.3500 C.2   1700  SO11700     0.2071
     11  O19      -37.7100   22.7070  -41.6310 O.2   1700  SO11700    -0.2883
     12  C9       -40.7470   24.7740  -41.6980 C.3   1700  SO11700     0.0075
     13  C18      -41.6990   23.6920  -41.2310 C.3   1700  SO11700     0.0004
     14  C24      -42.9570   24.5240  -40.9120 C.3   1700  SO11700     0.0000
     15  C22      -42.9780   25.7350  -41.8980 C.3   1700  SO11700     0.0000
     16  C25      -43.0120   27.0470  -41.0910 C.3   1700  SO11700     0.0000
     17  C16      -41.7080   25.4970  -42.7360 C.3   1700  SO11700     0.0005
     18  C7       -41.0190   26.6930  -43.4450 C.3   1700  SO11700     0.0030
     19  C2       -39.4450   26.4370  -43.8200 C.3   1700  SO11700     0.0376
     20  C8       -39.1290   27.8080  -44.5220 C.3   1700  SO11700     0.1453
     21  O17      -39.6310   27.7440  -45.8430 O.3   1700  SO11700    -0.3286
     22  C52      -39.3990   28.8850  -46.5980 C.3   1700  SO11700     0.2694
     23  O56      -39.9540   30.0780  -45.9180 O.3   1700  SO11700    -0.3285
     24  C56      -39.7050   31.3170  -46.6280 C.3   1700  SO11700     0.1475
     25  C61      -40.3120   32.4640  -45.8070 C.3   1700  SO11700     0.0348
     26  C55      -40.3010   31.2440  -48.0900 C.3   1700  SO11700     0.1752
     27  O64      -40.0310   32.4690  -48.8190 O.3   1700  SO11700    -0.3484
     28  C65      -41.1860   33.2550  -49.1310 C.3   1700  SO11700     0.1742
     29  C54      -39.6750   30.0420  -48.8470 C.3   1700  SO11700     0.2165
     30  O60      -38.2600   30.2230  -48.9360 O.3   1700  SO11700    -0.2175
     31  C53      -39.9690   28.7380  -48.0730 C.3   1700  SO11700     0.2404
     32  O57      -41.3810   28.5420  -48.0270 O.3   1700  SO11700    -0.2149
     33  C13      -35.7390   25.9990  -42.7640 C.3   1700  SO11700     0.0005
     34  C20      -34.6730   25.0320  -43.3370 C.3   1700  SO11700     0.0000
     35  C21      -35.2560   27.4530  -43.0010 C.3   1700  SO11700     0.0000
@<TRIPOS>BOND
     1    28    27    1
     2    30    29    1
     3    29    26    1
     4    29    31    1
     5    27    26    1
     6    26    24    1
     7    31    32    1
     8    31    22    1
     9    24    23    1
    10    24    25    1
    11    22    23    1
    12    22    21    1
    13    21    20    1
    14     6     7    1
    15     6     5    1
    16     7    19    1
    17     7     8    1
    18    20    19    1
    19    19    18    1
    20    19     4    1
    21     8     9    1
    22    18    17    1
    23     5    33    1
    24     5     4    1
    25    34    33    1
    26    35    33    1
    27    17    15    1
    28    17    12    1
    29     4     9    1
    30     4     2    1
    31     9    12    1
    32     9    10    1
    33    15    16    1
    34    15    14    1
    35    12    13    1
    36    11    10    2
    37     1     2   ar
    38     2     3   ar
    39    13    14    1
