@<TRIPOS>MOLECULE
2p8y_GDP_T_1.pdb
 28 30 0 0 0
SMALL
GASTEIGER

@<TRIPOS>ATOM
      1  PB       -15.2790   49.5670  -64.2640 P.3   843  GDP843      0.5373
      2  O1B      -16.1490   48.7600  -65.1540 O.2   843  GDP843     -0.2221
      3  O2B      -14.9370   48.8820  -62.9510 O.3   843  GDP843     -0.1143
      4  O3B      -15.8310   50.9830  -64.0180 O.3   843  GDP843     -0.1143
      5  O3A      -13.8390   49.7800  -65.0730 O.3   843  GDP843     -0.2261
      6  PA       -12.5600   50.6070  -64.6880 P.3   843  GDP843      0.2231
      7  O1A      -12.3020   50.5880  -63.2320 O.3   843  GDP843     -0.4370
      8  O2A      -12.6200   51.9930  -65.2940 O.2   843  GDP843     -0.5169
      9  O5'      -11.4180   49.8140  -65.4640 O.3   843  GDP843     -0.3111
     10  C5'      -11.1090   48.4560  -65.1280 C.3   843  GDP843      0.1813
     11  C4'       -9.7330   48.1410  -65.6560 C.3   843  GDP843      0.1799
     12  O4'       -9.7750   48.2910  -67.1140 O.3   843  GDP843     -0.3326
     13  C3'       -8.6200   49.0710  -65.1170 C.3   843  GDP843      0.2158
     14  O3'       -7.4490   48.1890  -64.9440 O.3   843  GDP843     -0.2175
     15  C2'       -8.4170   50.0640  -66.2470 C.3   843  GDP843      0.2310
     16  O2'       -7.1480   50.6570  -66.2240 O.3   843  GDP843     -0.2158
     17  C1'       -8.7910   49.2260  -67.4920 C.3   843  GDP843      0.2293
     18  N9        -9.3520   50.1380  -68.6600 N.pl3 843  GDP843     -0.2354
     19  C8       -10.3380   51.0920  -68.5660 C.3   843  GDP843      0.2246
     20  N7       -10.5460   51.6690  -69.7620 N.2   843  GDP843     -0.2322
     21  C5        -9.6520   51.0440  -70.6350 C.2   843  GDP843      0.2182
     22  C6        -9.4060   51.2450  -72.0300 C.1   843  GDP843      0.2372
     23  O6        -9.9860   52.0530  -72.7720 O.2   843  GDP843     -0.2069
     24  N1        -8.3960   50.4010  -72.5520 N.2   843  GDP843     -0.2485
     25  C2        -7.7050   49.4720  -71.7800 C.1   843  GDP843      0.2531
     26  N2        -6.7620   48.7240  -72.3820 N.pl3 843  GDP843     -0.0226
     27  N3        -7.9380   49.2880  -70.4670 N.2   843  GDP843     -0.3074
     28  C4        -8.9080   50.1060  -69.9650 C.2   843  GDP843      0.2300
@<TRIPOS>BOND
     1    23    22    2
     2    24    22    2
     3    24    25    2
     4    26    25    1
     5    22    21    1
     6    25    27    2
     7    21    28    1
     8    21    20    2
     9    27    28    2
    10    28    18    1
    11    20    19    1
    12    18    19    1
    13    18    17    1
    14    17    12    1
    15    17    15    1
    16    12    11    1
    17    15    16    1
    18    15    13    1
    19    11    10    1
    20    11    13    1
    21     9    10    1
    22     9     6    1
    23     8     6    2
    24     2     1    2
    25    13    14    1
    26     5     6    1
    27     5     1    1
    28     6     7    1
    29     1     4    1
    30     1     3    1
