@<TRIPOS>MOLECULE
2p8y_APR_T_1.pdb
 35 38 0 0 0
SMALL
GASTEIGER

@<TRIPOS>ATOM
      1  N1       -40.9220   14.9580    3.2020 N.2   1699  APR1699     0.0021
      2  C2       -41.6970   14.8690    4.3790 C.3   1699  APR1699     0.5254
      3  N3       -41.9790   15.7720    5.2890 N.2   1699  APR1699    -0.0055
      4  C4       -41.3830   16.9860    4.9970 C.2   1699  APR1699     0.3518
      5  C5       -40.5590   17.2470    3.8490 C.2   1699  APR1699     0.2526
      6  C6       -40.3140   16.1620    2.9120 C.2   1699  APR1699     0.4393
      7  N6       -39.5820   16.2730    1.8120 N.pl3 1699  APR1699     0.2180
      8  N7       -40.1110   18.5550    3.8610 N.2   1699  APR1699    -0.2095
      9  C8       -40.6600   19.1170    4.9690 C.3   1699  APR1699     0.3377
     10  N9       -41.4490   18.2210    5.6980 N.pl3 1699  APR1699    -0.1439
     11  C1'      -42.2440   18.4400    6.9820 C.3   1699  APR1699     0.3186
     12  C2'      -43.1500   19.7000    6.9620 C.3   1699  APR1699     0.2570
     13  O2'      -42.4310   20.9350    7.3830 O.3   1699  APR1699    -0.2130
     14  C3'      -44.3210   19.3560    7.9270 C.3   1699  APR1699     0.2184
     15  O3'      -44.3270   20.0430    9.1910 O.3   1699  APR1699    -0.2174
     16  O4'      -43.0530   17.3340    7.3350 O.3   1699  APR1699    -0.3135
     17  C4'      -44.2620   17.7590    7.9880 C.3   1699  APR1699     0.1821
     18  C5'      -45.3630   17.0340    7.3260 C.3   1699  APR1699     0.1813
     19  O5'      -46.1880   16.6120    8.3570 O.3   1699  APR1699    -0.3112
     20  PA       -46.9730   15.2760    8.1540 P.3   1699  APR1699     0.2189
     21  O1A      -47.8020   15.0400    9.4340 O.3   1699  APR1699    -0.4371
     22  O2A      -45.9220   14.1830    7.8020 O.2   1699  APR1699    -0.5170
     23  O3A      -47.9560   15.6940    6.9260 O.3   1699  APR1699    -0.2703
     24  PB       -49.5250   14.9940    6.8470 P.3   1699  APR1699     0.2189
     25  O1B      -49.7270   13.6100    7.4370 O.2   1699  APR1699    -0.5170
     26  O2B      -50.5020   15.9040    7.5780 O.3   1699  APR1699    -0.4371
     27  O5D      -49.8640   15.0680    5.3580 O.3   1699  APR1699    -0.3112
     28  C5D      -50.3070   16.2070    4.7000 C.3   1699  APR1699     0.1812
     29  O4D      -49.7640   15.5170    2.5610 O.3   1699  APR1699    -0.3482
     30  C1D      -49.7970   14.1920    1.9030 C.3   1699  APR1699     0.1777
     31  O2D      -51.9000   12.7900    1.9210 O.3   1699  APR1699    -0.2176
     32  C2D      -50.9130   13.5070    2.7000 C.3   1699  APR1699     0.2140
     33  O3D      -53.0140   14.8490    2.6600 O.3   1699  APR1699    -0.2176
     34  C3D      -51.7600   14.6130    3.3440 C.3   1699  APR1699     0.2140
     35  C4D      -50.9270   15.8400    3.4110 C.3   1699  APR1699     0.1780
@<TRIPOS>BOND
     1     7     6    1
     2    30    29    1
     3    30    32    1
     4    31    32    1
     5    29    35    1
     6    33    34    1
     7    32    34    1
     8     6     1    2
     9     6     5    1
    10     1     2    1
    11    34    35    1
    12    35    28    1
    13     5     8    2
    14     5     4    1
    15     8     9    1
    16     2     3    1
    17    28    27    1
    18     9    10    1
    19     4     3    2
    20     4    10    1
    21    27    24    1
    22    10    11    1
    23    24    23    1
    24    24    25    2
    25    24    26    1
    26    23    20    1
    27    12    11    1
    28    12    13    1
    29    12    14    1
    30    11    16    1
    31    18    17    1
    32    18    19    1
    33    16    17    1
    34    22    20    2
    35    14    17    1
    36    14    15    1
    37    20    19    1
    38    20    21    1
