@<TRIPOS>MOLECULE
2p8z_GNP_T_1.pdb
 32 34 0 0 0
SMALL
GASTEIGER

@<TRIPOS>ATOM
      1  PG       -15.4400   46.2190  -61.8670 P.3   843  GNP843      0.4884
      2  O1G      -14.8420   45.3670  -60.8110 O.3   843  GNP843     -0.1240
      3  O2G      -16.2840   45.5750  -62.9550 O.2   843  GNP843     -0.2331
      4  O3G      -16.2510   47.4350  -61.4190 O.3   843  GNP843     -0.1240
      5  N3B      -14.4060   47.2160  -62.5010 N.3   843  GNP843     -0.0163
      6  PB       -14.1710   48.3090  -63.5820 P.3   843  GNP843      0.4669
      7  O1B      -14.9310   48.2170  -64.8120 O.2   843  GNP843     -0.2351
      8  O2B      -14.4150   49.6370  -62.8350 O.3   843  GNP843     -0.1253
      9  O3A      -12.6890   48.5290  -64.0150 O.3   843  GNP843     -0.2360
     10  PA       -11.6130   49.5320  -63.5640 P.3   843  GNP843      0.2220
     11  O1A      -11.2450   49.2950  -62.1510 O.3   843  GNP843     -0.4370
     12  O2A      -11.9260   50.9370  -63.7620 O.2   843  GNP843     -0.5170
     13  O5'      -10.3940   49.3610  -64.5500 O.3   843  GNP843     -0.3111
     14  C5'       -9.9030   48.0130  -64.6370 C.3   843  GNP843      0.1813
     15  C4'       -8.4570   47.9090  -65.1340 C.3   843  GNP843      0.1799
     16  O4'       -8.3910   48.3870  -66.4420 O.3   843  GNP843     -0.3326
     17  C3'       -7.5750   48.8660  -64.4190 C.3   843  GNP843      0.2158
     18  O3'       -6.3250   48.2520  -64.1970 O.3   843  GNP843     -0.2175
     19  C2'       -7.4480   50.0700  -65.2830 C.3   843  GNP843      0.2310
     20  O2'       -6.1570   50.6670  -65.1150 O.3   843  GNP843     -0.2158
     21  C1'       -7.5650   49.5230  -66.5790 C.3   843  GNP843      0.2293
     22  N9        -8.1230   50.5120  -67.4770 N.pl3 843  GNP843     -0.2354
     23  C8        -9.1720   51.3560  -67.3960 C.3   843  GNP843      0.2246
     24  N7        -9.3410   52.1360  -68.4320 N.2   843  GNP843     -0.2322
     25  C5        -8.2760   51.7490  -69.2410 C.2   843  GNP843      0.2182
     26  C6        -7.8750   52.2020  -70.5130 C.1   843  GNP843      0.2372
     27  O6        -8.3450   53.1380  -71.1440 O.2   843  GNP843     -0.2069
     28  N1        -6.7740   51.5200  -71.0170 N.2   843  GNP843     -0.2485
     29  C2        -6.1240   50.5130  -70.3550 C.1   843  GNP843      0.2531
     30  N2        -5.1290   49.9210  -71.0100 N.pl3 843  GNP843     -0.0226
     31  N3        -6.4810   50.0900  -69.1450 N.2   843  GNP843     -0.3074
     32  C4        -7.5620   50.7550  -68.6620 C.2   843  GNP843      0.2300
@<TRIPOS>BOND
     1    27    26    2
     2    28    26    2
     3    28    29    2
     4    30    29    1
     5    26    25    1
     6    29    31    2
     7    25    32    1
     8    25    24    2
     9    31    32    2
    10    32    22    1
    11    24    23    1
    12    22    23    1
    13    22    21    1
    14    21    16    1
    15    21    19    1
    16    16    15    1
    17    19    20    1
    18    19    17    1
    19    15    14    1
    20    15    17    1
    21     7     6    2
    22    14    13    1
    23    13    10    1
    24    17    18    1
    25     9     6    1
    26     9    10    1
    27    12    10    2
    28     6     8    1
    29     6     5    1
    30    10    11    1
    31     3     1    2
    32     5     1    1
    33     1     4    1
    34     1     2    1
