@<TRIPOS>MOLECULE
2p8z_APR_T_1.pdb
 35 38 0 0 0
SMALL
GASTEIGER

@<TRIPOS>ATOM
      1  N1       -62.1690    3.2100    2.0590 N.2   1699  APR1699     0.0021
      2  C2       -60.8840    2.9700    2.5580 C.3   1699  APR1699     0.5254
      3  N3       -59.9400    3.8420    2.7990 N.2   1699  APR1699    -0.0055
      4  C4       -60.3510    5.1000    2.5220 C.2   1699  APR1699     0.3518
      5  C5       -61.5990    5.5090    2.0360 C.2   1699  APR1699     0.2526
      6  C6       -62.5600    4.5030    1.7910 C.2   1699  APR1699     0.4393
      7  N6       -63.7790    4.7270    1.3050 N.pl3 1699  APR1699     0.2180
      8  N7       -61.6570    6.8900    1.8850 N.2   1699  APR1699    -0.2095
      9  C8       -60.4510    7.2930    2.2490 C.3   1699  APR1699     0.3377
     10  N9       -59.6270    6.2510    2.6210 N.pl3 1699  APR1699    -0.1439
     11  C1'      -58.2250    6.2350    3.0570 C.3   1699  APR1699     0.3186
     12  C2'      -57.5270    7.2830    2.2310 C.3   1699  APR1699     0.2570
     13  O2'      -56.7500    6.6840    1.1920 O.3   1699  APR1699    -0.2130
     14  C3'      -56.7240    8.1600    3.2120 C.3   1699  APR1699     0.2184
     15  O3'      -55.2920    7.9290    3.1820 O.3   1699  APR1699    -0.2174
     16  O4'      -58.1500    6.5890    4.4030 O.3   1699  APR1699    -0.3135
     17  C4'      -57.3490    7.8460    4.5980 C.3   1699  APR1699     0.1821
     18  C5'      -58.6460    8.6350    4.7060 C.3   1699  APR1699     0.1813
     19  O5'      -58.7100    9.7070    5.2500 O.3   1699  APR1699    -0.3112
     20  PA       -60.2280   10.0890    5.6080 P.3   1699  APR1699     0.2189
     21  O1A      -60.2480   11.4240    6.3280 O.2   1699  APR1699    -0.5170
     22  O2A      -60.7280    9.0260    6.3770 O.3   1699  APR1699    -0.4371
     23  O3A      -61.0140   10.4760    4.2480 O.3   1699  APR1699    -0.2703
     24  PB       -60.6580   11.9440    3.5520 P.3   1699  APR1699     0.2189
     25  O1B      -61.2180   13.2570    3.9850 O.3   1699  APR1699    -0.4371
     26  O2B      -59.2490   11.9990    3.7230 O.2   1699  APR1699    -0.5170
     27  O5D      -60.8520   11.6000    2.0610 O.3   1699  APR1699    -0.3112
     28  C5D      -60.7890   10.3180    1.5470 C.3   1699  APR1699     0.1812
     29  O4D      -59.1630   10.4000   -0.0010 O.3   1699  APR1699    -0.3482
     30  C1D      -58.5610    9.2710   -0.6850 C.3   1699  APR1699     0.1777
     31  O2D      -59.9170    7.6980   -2.0970 O.3   1699  APR1699    -0.2176
     32  C2D      -59.7640    8.3170   -0.8090 C.3   1699  APR1699     0.2140
     33  O3D      -61.7670    9.3240   -1.8720 O.3   1699  APR1699    -0.2176
     34  C3D      -61.0380    9.1470   -0.6390 C.3   1699  APR1699     0.2140
     35  C4D      -60.6330   10.3920    0.0730 C.3   1699  APR1699     0.1780
@<TRIPOS>BOND
     1    31    32    1
     2    33    34    1
     3    32    30    1
     4    32    34    1
     5    30    29    1
     6    34    35    1
     7    29    35    1
     8    35    28    1
     9    13    12    1
    10     7     6    1
    11    28    27    1
    12     6     5    1
    13     6     1    2
    14     8     5    2
    15     8     9    1
    16     5     4    1
    17     1     2    1
    18    27    24    1
    19    12    11    1
    20    12    14    1
    21     9    10    1
    22     4    10    1
    23     4     3    2
    24     2     3    1
    25    10    11    1
    26    11    16    1
    27    15    14    1
    28    14    17    1
    29    24    26    2
    30    24    25    1
    31    24    23    1
    32    23    20    1
    33    16    17    1
    34    17    18    1
    35    18    19    1
    36    19    20    1
    37    20    21    2
    38    20    22    1
