@<TRIPOS>MOLECULE
2p8z_SO1_T_1.pdb
 35 39 0 0 0
SMALL
GASTEIGER

@<TRIPOS>ATOM
      1  O14      -38.9160   29.7720  -39.8700 O.co2 1700  SO11700    -0.2457
      2  C5       -38.3880   28.6450  -39.9330 C.2   1700  SO11700     0.3643
      3  O15      -37.8340   28.0350  -38.9900 O.co2 1700  SO11700    -0.2457
      4  C1       -38.4030   27.9350  -41.3600 C.3   1700  SO11700     0.1025
      5  C4       -36.8920   27.7600  -41.9280 C.3   1700  SO11700     0.0107
      6  C12      -37.1050   27.4580  -43.3010 C.3   1700  SO11700     0.0006
      7  C6       -38.6350   27.4290  -43.4450 C.3   1700  SO11700     0.0033
      8  C10      -39.1050   26.0400  -42.8630 C.3   1700  SO11700     0.0080
      9  C3       -39.2180   26.4660  -41.3370 C.3   1700  SO11700     0.0681
     10  C11      -38.4300   25.5280  -40.3750 C.2   1700  SO11700     0.2071
     11  O19      -37.7640   24.5640  -40.7070 O.2   1700  SO11700    -0.2883
     12  C9       -40.7050   26.7640  -40.8390 C.3   1700  SO11700     0.0075
     13  C18      -41.7390   25.6760  -40.6330 C.3   1700  SO11700     0.0004
     14  C24      -42.9990   26.5180  -40.3490 C.3   1700  SO11700     0.0000
     15  C22      -42.8640   27.8460  -41.1590 C.3   1700  SO11700     0.0000
     16  C25      -42.9530   29.0430  -40.1920 C.3   1700  SO11700     0.0000
     17  C16      -41.5120   27.6600  -41.8730 C.3   1700  SO11700     0.0005
     18  C7       -40.7070   28.9030  -42.3310 C.3   1700  SO11700     0.0030
     19  C2       -39.1080   28.6240  -42.5570 C.3   1700  SO11700     0.0376
     20  C8       -38.6680   30.0590  -43.0280 C.3   1700  SO11700     0.1453
     21  O17      -39.0120   30.1900  -44.3940 O.3   1700  SO11700    -0.3286
     22  C52      -38.6550   31.4070  -44.9580 C.3   1700  SO11700     0.2694
     23  O56      -39.2500   32.5270  -44.1900 O.3   1700  SO11700    -0.3285
     24  C56      -38.8780   33.8340  -44.6950 C.3   1700  SO11700     0.1475
     25  C61      -39.5420   34.8920  -43.8010 C.3   1700  SO11700     0.0348
     26  C55      -39.2990   33.9800  -46.2110 C.3   1700  SO11700     0.1752
     27  O64      -38.9060   35.2750  -46.7340 O.3   1700  SO11700    -0.3484
     28  C65      -39.9910   36.1480  -47.0660 C.3   1700  SO11700     0.1742
     29  C54      -38.6260   32.8580  -47.0470 C.3   1700  SO11700     0.2165
     30  O60      -37.2060   32.9820  -46.9500 O.3   1700  SO11700    -0.2175
     31  C53      -39.0520   31.4800  -46.4940 C.3   1700  SO11700     0.2404
     32  O57      -40.4640   31.3470  -46.6350 O.3   1700  SO11700    -0.2149
     33  C13      -35.5700   27.8790  -41.1570 C.3   1700  SO11700     0.0005
     34  C20      -34.4740   26.9450  -41.7300 C.3   1700  SO11700     0.0000
     35  C21      -35.0160   29.3260  -41.1400 C.3   1700  SO11700     0.0000
@<TRIPOS>BOND
     1    28    27    1
     2    29    30    1
     3    29    31    1
     4    29    26    1
     5    27    26    1
     6    32    31    1
     7    31    22    1
     8    26    24    1
     9    22    21    1
    10    22    23    1
    11    24    23    1
    12    24    25    1
    13    21    20    1
    14     7     6    1
    15     7     8    1
    16     7    19    1
    17     6     5    1
    18    20    19    1
    19     8     9    1
    20    19    18    1
    21    19     4    1
    22    18    17    1
    23     5     4    1
    24     5    33    1
    25    17    15    1
    26    17    12    1
    27    34    33    1
    28     4     9    1
    29     4     2    1
    30     9    12    1
    31     9    10    1
    32    15    14    1
    33    15    16    1
    34    33    35    1
    35    12    13    1
    36    11    10    2
    37    13    14    1
    38     2     1   ar
    39     2     3   ar
