@<TRIPOS>MOLECULE
2p93_ME1_A_1.pdb
 27 29 0 0 0
SMALL
GASTEIGER

@<TRIPOS>ATOM
      1  C1        12.1880   44.0860   65.6920 C.ar    1  ME11        0.0871
      2  C2        12.2030   44.8360   64.5730 C.ar    1  ME11        0.0186
      3  C3        10.9840   45.1580   64.1010 C.ar    1  ME11        0.0125
      4  C9         6.4100   45.0930   63.9840 C.3     1  ME11        0.1389
      5  C10        5.6210   43.9450   63.3580 C.3     1  ME11        0.1388
      6  C12        6.4980   43.2330   61.2100 C.2     1  ME11        0.2648
      7  C14        6.9290   42.1070   60.3620 C.ar    1  ME11        0.0551
      8  C15        7.7020   42.4420   59.1650 C.ar    1  ME11        0.0061
      9  C16        8.1980   41.3650   58.3210 C.ar    1  ME11        0.0178
     10  C19        6.6130   40.7140   60.7110 C.ar    1  ME11        0.0061
     11  C21        9.5950   38.3380   58.0100 C.ar    1  ME11        0.0829
     12  C22       10.1040   37.4970   56.9640 C.ar    1  ME11        0.0192
     13  C24        8.1610   37.9370   55.4650 C.ar    1  ME11        0.0611
     14  C4         9.9540   44.6390   64.8580 C.ar    1  ME11        0.0853
     15  S5        10.5520   43.7480   66.2200 S.2     1  ME11       -0.0709
     16  C6         8.7100   44.9440   64.2580 C.2     1  ME11        0.2709
     17  O7         8.7280   45.4950   63.1450 O.2     1  ME11       -0.2678
     18  N8         7.5270   44.6590   64.8450 N.am    1  ME11       -0.1993
     19  N11        6.3340   42.9630   62.5290 N.am    1  ME11       -0.1998
     20  O13        6.3020   44.3550   60.7460 O.2     1  ME11       -0.2684
     21  C17        7.9240   39.9590   58.6740 C.ar    1  ME11        0.0669
     22  C18        7.1140   39.6290   59.8680 C.ar    1  ME11        0.0178
     23  N20        8.3700   38.9770   57.7730 N.ar    1  ME11       -0.2731
     24  C23        9.4330   37.3130   55.7070 C.ar    1  ME11        0.0064
     25  C25        7.5930   38.7850   56.5540 C.ar    1  ME11        0.2648
     26  O26        6.4810   39.2980   56.4060 O.2     1  ME11       -0.2666
     27 CL27       13.8500   43.6750   66.1630 Cl      1  ME11       -0.0752
@<TRIPOS>BOND
     1    13    24   ar
     2    13    25   ar
     3    24    12   ar
     4    26    25    2
     5    25    23   ar
     6    12    11   ar
     7    23    11   ar
     8    23    21    1
     9     9    21   ar
    10     9     8   ar
    11    21    22   ar
    12     8     7   ar
    13    22    10   ar
    14     7    10   ar
    15     7     6    1
    16    20     6    2
    17     6    19   am
    18    19     5    1
    19    17    16    2
    20     5     4    1
    21     4    18    1
    22     3     2   ar
    23     3    14   ar
    24    16    18   am
    25    16    14    1
    26     2     1   ar
    27    14    15   ar
    28     1    27    1
    29     1    15   ar
