@<TRIPOS>MOLECULE
2p94_ME4_A_1.pdb
 35 39 0 0 0
SMALL
GASTEIGER

@<TRIPOS>ATOM
      1  C1         5.0040   44.3070   61.2040 C.3     1  ME41        0.1155
      2  C2         3.5610   44.4010   60.6550 C.3     1  ME41        0.0234
      3  C3         2.6880   43.3340   61.3240 C.3     1  ME41        0.0019
      4  C8         7.2990   45.3360   63.1160 C.2     1  ME41        0.2612
      5  C10        8.5780   44.9900   63.7740 C.2     1  ME41        0.0387
      6  C11        8.5550   44.3200   65.0860 C.2     1  ME41        0.0197
      7  C12        9.8160   43.9460   65.7130 C.2     1  ME41        0.0817
      8  C13       11.0950   44.2480   65.0120 C.2     1  ME41        0.0258
      9  C14       12.1640   43.7570   65.8800 C.2     1  ME41        0.0779
     10  C15       11.4770   43.2260   66.9840 C.2     1  ME41        0.1102
     11  C19        9.8490   45.2890   63.0830 C.3     1  ME41        0.0571
     12  C21        6.8450   42.8410   60.4850 C.2     1  ME41        0.2648
     13  C24        7.0580   40.3190   60.1750 C.ar    1  ME41        0.0061
     14  C27        8.3940   40.8680   57.6030 C.ar    1  ME41        0.0178
     15  N29        8.6060   38.4370   57.1860 N.ar    1  ME41       -0.2731
     16  C30        9.7660   37.7170   57.4690 C.ar    1  ME41        0.0829
     17  C31       10.2540   36.8490   56.4230 C.ar    1  ME41        0.0192
     18  C32        9.5820   36.6670   55.1570 C.ar    1  ME41        0.0064
     19  C33        8.3750   37.3750   54.8640 C.ar    1  ME41        0.0611
     20  C34        7.8890   38.3300   55.9120 C.ar    1  ME41        0.2648
     21  C4         2.6890   43.4780   62.8460 C.3     1  ME41        0.0019
     22  C5         4.1060   43.4140   63.4150 C.3     1  ME41        0.0234
     23  C6         4.9920   44.4970   62.7440 C.3     1  ME41        0.1155
     24  N7         6.3130   44.4410   63.3590 N.am    1  ME41       -0.2019
     25  O9         7.1390   46.3310   62.4020 O.2     1  ME41       -0.2687
     26  N16       10.1210   43.3340   66.8970 N.2     1  ME41       -0.2429
     27 CL17       13.9110   43.7010   65.7040 Cl      1  ME41       -0.0806
     28  C18       11.1100   44.9090   63.7160 C.2     1  ME41       -0.0189
     29  N20        5.5280   43.0020   60.7570 N.am    1  ME41       -0.2017
     30  O22        7.7040   43.6260   60.8810 O.2     1  ME41       -0.2684
     31  C23        7.2460   41.6840   59.6790 C.ar    1  ME41        0.0551
     32  C25        7.5430   39.1990   59.3710 C.ar    1  ME41        0.0178
     33  C26        8.2100   39.4760   58.0710 C.ar    1  ME41        0.0669
     34  C28        7.9090   41.9780   58.4080 C.ar    1  ME41        0.0061
     35  O35        6.9110   39.0360   55.6500 O.2     1  ME41       -0.2666
@<TRIPOS>BOND
     1    19    18   ar
     2    19    20   ar
     3    18    17   ar
     4    35    20    2
     5    20    15   ar
     6    17    16   ar
     7    15    16   ar
     8    15    33    1
     9    14    33   ar
    10    14    34   ar
    11    33    32   ar
    12    34    31   ar
    13    32    13   ar
    14    31    13   ar
    15    31    12    1
    16    12    29   am
    17    12    30    2
    18     2     1    1
    19     2     3    1
    20    29     1    1
    21     1    23    1
    22     3    21    1
    23    25     4    2
    24    23    24    1
    25    23    22    1
    26    21    22    1
    27    11    28    1
    28    11     5    1
    29     4    24   am
    30     4     5    1
    31    28     8    2
    32     5     6    2
    33     8     7    1
    34     8     9    1
    35     6     7    1
    36    27     9    1
    37     7    26    2
    38     9    10    2
    39    26    10    1
