@<TRIPOS>MOLECULE
2p95_ME5_A_1.pdb
 30 33 0 0 0
SMALL
GASTEIGER

@<TRIPOS>ATOM
      1  C1         8.5460   44.9450   63.3800 C.2     1  ME51        0.2708
      2  C2         9.2960   43.8860   65.5000 C.ar    1  ME51        0.0125
      3  C3         9.5640   44.5380   64.2590 C.ar    1  ME51        0.0853
      4  C7         7.1490   42.1470   59.3580 C.ar    1  ME51        0.0551
      5  C8         5.0430   45.6160   63.4870 C.3     1  ME51        0.0235
      6  C10        4.3840   44.5050   64.2690 C.3     1  ME51        0.0036
      7  C12        4.9380   43.4190   63.3770 C.3     1  ME51        0.0235
      8  C13        5.3910   43.9790   62.0470 C.3     1  ME51        0.1155
      9  C14        8.2100   41.1690   57.3330 C.ar    1  ME51        0.0178
     10  C15        9.8560   38.1880   57.5390 C.ar    1  ME51        0.0829
     11  C16        8.0650   39.8260   57.9090 C.ar    1  ME51        0.0669
     12  C19        6.2320   45.1160   62.6690 C.3     1  ME51        0.1155
     13  C21        7.9520   38.3560   55.9760 C.ar    1  ME51        0.2648
     14  C22        6.9270   40.8070   59.9310 C.ar    1  ME51        0.0061
     15  C24        8.5610   37.3230   55.0740 C.ar    1  ME51        0.0611
     16  C17        6.5160   43.2810   60.0360 C.2     1  ME51        0.2648
     17  C44        7.7670   42.3340   58.0690 C.ar    1  ME51        0.0061
     18  N2         8.6440   38.7530   57.1830 N.ar    1  ME51       -0.2731
     19  C18        7.3760   39.6420   59.1940 C.ar    1  ME51        0.0178
     20  C23       10.4500   37.1960   56.6830 C.ar    1  ME51        0.0192
     21  C26        9.8230   36.7760   55.4800 C.ar    1  ME51        0.0064
     22  O1         6.8730   38.8870   55.7130 O.2     1  ME51       -0.2666
     23  N4         6.1040   42.9900   61.2850 N.am    1  ME51       -0.2017
     24  O2         6.3440   44.3830   59.5350 O.2     1  ME51       -0.2684
     25  N1         7.2460   44.5470   63.6360 N.am    1  ME51       -0.2012
     26  O3         8.8650   45.6540   62.4180 O.2     1  ME51       -0.2678
     27  C4        10.5370   43.6020   66.1500 C.ar    1  ME51        0.0186
     28  S1        11.2170   44.7820   63.9130 S.2     1  ME51       -0.0709
     29  C5        11.6830   44.0440   65.3680 C.ar    1  ME51        0.0871
     30 CL1        13.4130   43.8570   65.7830 Cl      1  ME51       -0.0752
@<TRIPOS>BOND
     1    15    21   ar
     2    15    13   ar
     3    21    20   ar
     4    22    13    2
     5    13    18   ar
     6    20    10   ar
     7    18    10   ar
     8    18    11    1
     9     9    11   ar
    10     9    17   ar
    11    11    19   ar
    12    17     4   ar
    13    19    14   ar
    14     4    14   ar
    15     4    16    1
    16    24    16    2
    17    16    23   am
    18    23     8    1
    19     8    12    1
    20     8     7    1
    21    26     1    2
    22    12     5    1
    23    12    25    1
    24     7     6    1
    25     1    25   am
    26     1     3    1
    27     5     6    1
    28    28     3   ar
    29    28    29   ar
    30     3     2   ar
    31    29    30    1
    32    29    27   ar
    33     2    27   ar
