@<TRIPOS>MOLECULE
2p98_YE7_A_1.pdb
 17 19 0 0 0
SMALL
GASTEIGER

@<TRIPOS>ATOM
      1  CAK       -1.4350    0.7620   10.3750 C.3   266  YE7266      0.1616
      2  NAM       -2.7440    0.5730   10.2310 N.pl3 266  YE7266     -0.2544
      3  CAH       -3.8490    0.9390   11.0090 C.2   266  YE7266      0.0677
      4  CAI       -5.1300    0.6010   10.5880 C.2   266  YE7266      0.0163
      5  CAE       -5.3150   -0.0980    9.3990 C.ar  266  YE7266      0.0050
      6  CAF       -6.5990   -0.4280    8.9820 C.ar  266  YE7266      0.0002
      7  CAA       -6.7920   -1.1240    7.7940 C.ar  266  YE7266      0.0000
      8  CAB       -5.6960   -1.4910    7.0190 C.ar  266  YE7266      0.0001
      9  CAC       -4.4110   -1.1620    7.4340 C.ar  266  YE7266      0.0039
     10  CAD       -4.2190   -0.4650    8.6230 C.ar  266  YE7266      0.0443
     11  CAG       -2.9350   -0.1310    9.0360 C.2   266  YE7266      0.1871
     12  NAN       -1.7340   -0.3400    8.5050 N.2   266  YE7266     -0.3845
     13  CAJ       -0.8390    0.2080    9.3240 C.2   266  YE7266      0.1869
     14  CAL        0.6680    0.1970    9.0700 C.2   266  YE7266      0.3095
     15  OAQ        1.0990    0.0330    7.9310 O.2   266  YE7266     -0.2644
     16  NAO        1.4400    0.3330   10.1450 N.am  266  YE7266     -0.0867
     17  NAP        2.2740    1.3960   10.3100 N.3   266  YE7266      0.0074
@<TRIPOS>BOND
     1     8     9   ar
     2     8     7   ar
     3     9    10   ar
     4     7     6   ar
     5    15    14    2
     6    12    11    2
     7    12    13    2
     8    10    11    1
     9    10     5   ar
    10     6     5   ar
    11    11     2    1
    12    14    13    1
    13    14    16   am
    14    13     1    1
    15     5     4    1
    16    16    17    1
    17     2     1    1
    18     2     3    1
    19     4     3    2
