@<TRIPOS>MOLECULE
2p99_YE6_A_1.pdb
 16 17 0 0 0
SMALL
GASTEIGER

@<TRIPOS>ATOM
      1 CLAP       -5.9060    1.2490    9.6940 Cl    265  YE6265     -0.0821
      2  CAG       -5.7530   -0.0300    8.5380 C.ar  265  YE6265      0.0606
      3  CAH       -6.9030   -0.4750    7.8930 C.ar  265  YE6265      0.0115
      4  CAI       -6.8310   -1.4580    6.9130 C.ar  265  YE6265      0.0009
      5  CAJ       -5.5970   -2.0030    6.5730 C.ar  265  YE6265      0.0002
      6  CAK       -4.4480   -1.5630    7.2180 C.ar  265  YE6265      0.0039
      7  CAF       -4.5180   -0.5790    8.2020 C.ar  265  YE6265      0.0451
      8  CAD       -3.3290   -0.2080    8.8200 C.ar  265  YE6265      0.1463
      9  OAN       -2.1310   -0.4230    8.2010 O.2   265  YE6265     -0.4488
     10  CAC       -3.1060    0.3830    9.9950 C.ar  265  YE6265      0.0408
     11  CAB       -1.7960    0.5550   10.1500 C.ar  265  YE6265      0.0455
     12  CAA       -1.1960    0.0690    9.0640 C.ar  265  YE6265      0.2018
     13  CAE        0.3080    0.0660    8.7880 C.2   265  YE6265      0.3220
     14  OAO        0.7340    0.0070    7.6370 O.2   265  YE6265     -0.2631
     15  NAL        1.0890    0.1210    9.8640 N.am  265  YE6265     -0.0519
     16  NAM        2.3120    0.1260    9.7160 N.2   265  YE6265     -0.0327
@<TRIPOS>BOND
     1     5     4   ar
     2     5     6   ar
     3     4     3   ar
     4     6     7   ar
     5    14    13    2
     6     3     2   ar
     7     9     8   ar
     8     9    12   ar
     9     7     2   ar
    10     7     8    1
    11     2     1    1
    12    13    12    1
    13    13    15    1
    14     8    10   ar
    15    12    11   ar
    16    16    15    2
    17    10    11   ar
