@<TRIPOS>MOLECULE
2p9a_YE6_A_1.pdb
 16 17 0 0 0
SMALL
GASTEIGER

@<TRIPOS>ATOM
      1 CLAP       -7.4670   -2.7750    7.0940 Cl    267  YE6267     -0.0821
      2  CAG       -5.9300   -2.8600    6.3070 C.ar  267  YE6267      0.0606
      3  CAH       -5.8090   -3.6840    5.1920 C.ar  267  YE6267      0.0115
      4  CAI       -4.5980   -3.7910    4.5180 C.ar  267  YE6267      0.0009
      5  CAJ       -3.4950   -3.0690    4.9600 C.ar  267  YE6267      0.0002
      6  CAK       -3.6150   -2.2460    6.0740 C.ar  267  YE6267      0.0039
      7  CAF       -4.8240   -2.1360    6.7510 C.ar  267  YE6267      0.0451
      8  CAD       -4.8520   -1.2810    7.8490 C.ar  267  YE6267      0.1463
      9  OAN       -3.7120   -0.6670    8.2820 O.2   267  YE6267     -0.4488
     10  CAC       -5.8570   -0.9080    8.6380 C.ar  267  YE6267      0.0408
     11  CAB       -5.3970   -0.0730    9.5670 C.ar  267  YE6267      0.0455
     12  CAA       -4.0920    0.0790    9.3580 C.ar  267  YE6267      0.2018
     13  CAE       -3.1430    0.9600   10.1760 C.2   267  YE6267      0.3220
     14  OAO       -1.9430    1.0060    9.9170 O.2   267  YE6267     -0.2631
     15  NAL       -3.7010    1.6560   11.1630 N.am  267  YE6267     -0.0519
     16  NAM       -3.0270    2.4760   11.7830 N.2   267  YE6267     -0.0327
@<TRIPOS>BOND
     1     4     5   ar
     2     4     3   ar
     3     5     6   ar
     4     3     2   ar
     5     6     7   ar
     6     2     7   ar
     7     2     1    1
     8     7     8    1
     9     8     9   ar
    10     8    10   ar
    11     9    12   ar
    12    10    11   ar
    13    12    11   ar
    14    12    13    1
    15    14    13    2
    16    13    15    1
    17    15    16    2
