@<TRIPOS>MOLECULE
2p9c_NAI_A_1.pdb
 44 48 0 0 0
SMALL
GASTEIGER

@<TRIPOS>ATOM
      1  PA       -19.3840  -15.2320   24.9390 P.3   450  NAI450      0.2189
      2  O1A      -19.8970  -16.5560   25.3450 O.3   450  NAI450     -0.4371
      3  O2A      -18.2680  -15.3000   23.9820 O.2   450  NAI450     -0.5170
      4  O5B      -18.9790  -14.4440   26.2470 O.3   450  NAI450     -0.3112
      5  C5B      -19.7610  -14.5830   27.4110 C.3   450  NAI450      0.1813
      6  C4B      -18.8240  -14.2020   28.5390 C.3   450  NAI450      0.1821
      7  O4B      -19.4950  -13.7600   29.7050 O.3   450  NAI450     -0.3135
      8  C3B      -17.9770  -15.4040   28.9070 C.3   450  NAI450      0.2184
      9  O3B      -16.6460  -14.9570   28.9860 O.3   450  NAI450     -0.2174
     10  C2B      -18.4680  -15.7730   30.2890 C.3   450  NAI450      0.2570
     11  O2B      -17.4260  -16.3200   31.0600 O.3   450  NAI450     -0.2130
     12  C1B      -18.9080  -14.4120   30.8160 C.3   450  NAI450      0.3186
     13  N9A      -19.9310  -14.5860   31.8360 N.pl3 450  NAI450     -0.1439
     14  C8A      -20.8760  -15.5770   31.8730 C.3   450  NAI450      0.3377
     15  N7A      -21.6490  -15.3740   32.9620 N.2   450  NAI450     -0.2095
     16  C5A      -21.2090  -14.2820   33.6160 C.2   450  NAI450      0.2526
     17  C6A      -21.6370  -13.6470   34.7840 C.2   450  NAI450      0.4393
     18  N6A      -22.5600  -14.2200   35.5740 N.pl3 450  NAI450      0.2180
     19  N1A      -20.9530  -12.5040   35.2020 N.2   450  NAI450      0.0021
     20  C2A      -19.8730  -12.0120   34.4800 C.3   450  NAI450      0.5254
     21  N3A      -19.4660  -12.6680   33.3320 N.2   450  NAI450     -0.0055
     22  C4A      -20.1220  -13.7750   32.9120 C.2   450  NAI450      0.3518
     23  O3       -20.5730  -14.3430   24.3680 O.3   450  NAI450     -0.2703
     24  PN       -20.3890  -13.1330   23.3230 P.3   450  NAI450      0.2189
     25  O1N      -20.3760  -13.6600   21.9330 O.2   450  NAI450     -0.5170
     26  O2N      -19.2890  -12.2760   23.8360 O.3   450  NAI450     -0.4371
     27  O5D      -21.8100  -12.3720   23.4820 O.3   450  NAI450     -0.3112
     28  C5D      -22.2060  -11.8500   24.7240 C.3   450  NAI450      0.1813
     29  C4D      -23.7110  -11.6370   24.7700 C.3   450  NAI450      0.1799
     30  O4D      -24.0290  -10.8380   23.6700 O.3   450  NAI450     -0.3327
     31  C3D      -24.5290  -12.8990   24.6050 C.3   450  NAI450      0.2158
     32  O3D      -25.5740  -12.8410   25.5420 O.3   450  NAI450     -0.2175
     33  C2D      -25.1150  -12.7780   23.2100 C.3   450  NAI450      0.2309
     34  O2D      -26.3640  -13.4260   23.0940 O.3   450  NAI450     -0.2158
     35  C1D      -25.2410  -11.2690   23.1090 C.3   450  NAI450      0.2263
     36  N1N      -25.3340  -10.7530   21.7340 N.pl3 450  NAI450     -0.2787
     37  C2N      -26.2620   -9.7970   21.4490 C.3   450  NAI450      0.1244
     38  C3N      -26.3370   -9.2670   20.1650 C.2   450  NAI450      0.0544
     39  C7N      -27.1740   -8.0570   19.8700 C.2   450  NAI450      0.2818
     40  O7N      -27.9480   -8.1330   18.7160 O.2   450  NAI450     -0.2670
     41  N7N      -27.2050   -6.9720   20.6440 N.am  450  NAI450     -0.0839
     42  C4N      -25.4860   -9.7420   19.1740 C.2   450  NAI450      0.0033
     43  C5N      -24.5370  -10.7160   19.4770 C.2   450  NAI450      0.0157
     44  C6N      -24.4650  -11.2070   20.7690 C.2   450  NAI450      0.0633
@<TRIPOS>BOND
     1    40    39    2
     2    42    43    1
     3    42    38    2
     4    43    44    2
     5    39    38    1
     6    39    41   am
     7    38    37    1
     8    44    36    1
     9    37    36    1
    10    36    35    1
    11    25    24    2
    12    34    33    1
    13    35    33    1
    14    35    30    1
    15    33    31    1
    16    24    27    1
    17    24    26    1
    18    24    23    1
    19    27    28    1
    20    30    29    1
    21     3     1    2
    22    23     1    1
    23    31    29    1
    24    31    32    1
    25    28    29    1
    26     1     2    1
    27     1     4    1
    28     4     5    1
    29     5     6    1
    30     6     8    1
    31     6     7    1
    32     8     9    1
    33     8    10    1
    34     7    12    1
    35    10    12    1
    36    10    11    1
    37    12    13    1
    38    13    14    1
    39    13    22    1
    40    14    15    1
    41    22    21    2
    42    22    16    1
    43    15    16    2
    44    21    20    1
    45    16    17    1
    46    20    19    1
    47    17    19    2
    48    17    18    1
