@<TRIPOS>MOLECULE
2p9d_SAH_A_1.pdb
 26 28 0 0 0
SMALL
GASTEIGER

@<TRIPOS>ATOM
      1  N         33.8590   92.8900   68.0560 N.3   1301  SAH1301    -0.1208
      2  CA        32.4100   92.4440   67.9170 C.3   1301  SAH1301     0.1952
      3  CB        31.7780   91.7890   69.1150 C.3   1301  SAH1301     0.0422
      4  CG        32.4310   90.5390   69.7020 C.3   1301  SAH1301     0.0597
      5  SD        31.2720   89.8280   70.9490 S.3   1301  SAH1301    -0.1375
      6  C         31.5810   93.7260   67.4770 C.2   1301  SAH1301     0.3819
      7  O         32.1790   94.8120   67.3420 O.co2 1301  SAH1301    -0.2441
      8  OXT       30.3120   93.5560   67.2820 O.co2 1301  SAH1301    -0.2441
      9  C5'       30.3690   88.6510   70.0220 C.3   1301  SAH1301     0.0899
     10  C4'       28.8740   88.6400   70.5410 C.3   1301  SAH1301     0.1630
     11  O4'       28.2860   89.9400   70.2610 O.3   1301  SAH1301    -0.3153
     12  C3'       27.9830   87.6280   69.9110 C.3   1301  SAH1301     0.2168
     13  O3'       28.0950   86.3670   70.5540 O.3   1301  SAH1301    -0.2175
     14  C2'       26.5920   88.3080   70.0340 C.3   1301  SAH1301     0.2569
     15  O2'       25.9560   88.0990   71.2990 O.3   1301  SAH1301    -0.2130
     16  C1'       26.8860   89.8100   69.6940 C.3   1301  SAH1301     0.3185
     17  N9        26.8300   90.1570   68.3180 N.pl3 1301  SAH1301    -0.1439
     18  C8        27.8020   90.4020   67.3650 C.3   1301  SAH1301     0.3377
     19  N7        27.3500   90.6930   66.1870 N.2   1301  SAH1301    -0.2095
     20  C5        25.9410   90.6520   66.3250 C.2   1301  SAH1301     0.2526
     21  C6        24.8850   90.8910   65.3730 C.2   1301  SAH1301     0.4393
     22  N6        25.0970   91.2150   64.0890 N.pl3 1301  SAH1301     0.2180
     23  N1        23.6100   90.7590   65.8760 N.2   1301  SAH1301     0.0021
     24  C2        23.3490   90.4280   67.1730 C.3   1301  SAH1301     0.5254
     25  N3        24.3340   90.1950   68.1050 N.2   1301  SAH1301    -0.0055
     26  C4        25.6010   90.3260   67.6080 C.2   1301  SAH1301     0.3518
@<TRIPOS>BOND
     1    22    21    1
     2    21    23    2
     3    21    20    1
     4    23    24    1
     5    19    20    2
     6    19    18    1
     7    20    26    1
     8    24    25    1
     9     8     6   ar
    10     7     6   ar
    11    18    17    1
    12     6     2    1
    13    26    25    2
    14    26    17    1
    15     2     1    1
    16     2     3    1
    17    17    16    1
    18     3     4    1
    19    16    14    1
    20    16    11    1
    21     4     5    1
    22    12    14    1
    23    12    10    1
    24    12    13    1
    25     9    10    1
    26     9     5    1
    27    14    15    1
    28    11    10    1
