@<TRIPOS>MOLECULE
2p9e_NAI_A_1.pdb
 44 48 0 0 0
SMALL
GASTEIGER

@<TRIPOS>ATOM
      1  PA        20.1110   19.2660  -41.7490 P.3   508  NAI508      0.2189
      2  O1A       19.2490   19.1640  -42.9330 O.2   508  NAI508     -0.5170
      3  O2A       20.2450   17.9780  -41.0140 O.3   508  NAI508     -0.4371
      4  O5B       19.5060   20.4480  -40.8490 O.3   508  NAI508     -0.3112
      5  C5B       18.8640   21.5540  -41.4580 C.3   508  NAI508      0.1813
      6  C4B       17.6820   22.0090  -40.6020 C.3   508  NAI508      0.1821
      7  O4B       17.3140   23.3610  -40.8390 O.3   508  NAI508     -0.3135
      8  C3B       16.4270   21.1870  -40.8220 C.3   508  NAI508      0.2184
      9  O3B       16.0460   20.7450  -39.5320 O.3   508  NAI508     -0.2174
     10  C2B       15.4230   22.1820  -41.3840 C.3   508  NAI508      0.2570
     11  O2B       14.1350   21.9880  -40.8820 O.3   508  NAI508     -0.2130
     12  C1B       15.9130   23.5290  -40.9020 C.3   508  NAI508      0.3186
     13  N9A       15.5830   24.6220  -41.8390 N.pl3 508  NAI508     -0.1439
     14  C8A       15.3510   24.5660  -43.1940 C.3   508  NAI508      0.3377
     15  N7A       15.0700   25.8060  -43.6610 N.2   508  NAI508     -0.2095
     16  C5A       15.1100   26.6680  -42.6210 C.2   508  NAI508      0.2526
     17  C6A       14.9090   28.0490  -42.5370 C.2   508  NAI508      0.4393
     18  N6A       14.4930   28.7690  -43.5810 N.pl3 508  NAI508      0.2180
     19  N1A       15.0280   28.6580  -41.3230 N.2   508  NAI508      0.0021
     20  C2A       15.3180   27.8810  -40.2140 C.3   508  NAI508      0.5254
     21  N3A       15.5370   26.5120  -40.2910 N.2   508  NAI508     -0.0055
     22  C4A       15.4450   25.9260  -41.4860 C.2   508  NAI508      0.3518
     23  O3        21.5800   19.6910  -42.2460 O.3   508  NAI508     -0.2703
     24  PN        22.9530   19.5290  -41.4070 P.3   508  NAI508      0.2189
     25  O1N       23.6400   18.2240  -41.5830 O.2   508  NAI508     -0.5170
     26  O2N       22.6410   20.0070  -40.0460 O.3   508  NAI508     -0.4371
     27  O5D       23.8060   20.6870  -42.1190 O.3   508  NAI508     -0.3112
     28  C5D       23.2910   22.0020  -42.0910 C.3   508  NAI508      0.1813
     29  C4D       24.0410   22.8830  -43.0830 C.3   508  NAI508      0.1799
     30  O4D       25.4190   22.8530  -42.7710 O.3   508  NAI508     -0.3327
     31  C3D       23.8970   22.3600  -44.5020 C.3   508  NAI508      0.2158
     32  O3D       23.6760   23.4560  -45.3610 O.3   508  NAI508     -0.2175
     33  C2D       25.2590   21.7970  -44.7960 C.3   508  NAI508      0.2309
     34  O2D       25.6150   21.8420  -46.1590 O.3   508  NAI508     -0.2158
     35  C1D       26.0910   22.7680  -44.0030 C.3   508  NAI508      0.2263
     36  N1N       27.4330   22.2220  -43.8970 N.pl3 508  NAI508     -0.2787
     37  C2N       28.5220   23.0080  -44.1820 C.3   508  NAI508      0.1244
     38  C3N       29.7830   22.4340  -44.0770 C.2   508  NAI508      0.0544
     39  C7N       30.9860   23.2600  -43.8490 C.2   508  NAI508      0.2818
     40  O7N       32.1420   22.5110  -43.6070 O.2   508  NAI508     -0.2670
     41  N7N       30.9280   24.5960  -43.8620 N.am  508  NAI508     -0.0839
     42  C4N       29.9340   21.1150  -43.6930 C.2   508  NAI508      0.0033
     43  C5N       28.8150   20.3400  -43.4170 C.2   508  NAI508      0.0157
     44  C6N       27.5530   20.9060  -43.5210 C.2   508  NAI508      0.0633
@<TRIPOS>BOND
     1    34    33    1
     2    32    31    1
     3    33    31    1
     4    33    35    1
     5    31    29    1
     6    37    38    1
     7    37    36    1
     8    38    39    1
     9    38    42    2
    10    35    36    1
    11    35    30    1
    12    36    44    1
    13    41    39   am
    14    39    40    2
    15    42    43    1
    16    15    14    1
    17    15    16    2
    18    18    17    1
    19    44    43    2
    20    14    13    1
    21    29    30    1
    22    29    28    1
    23     2     1    2
    24    16    17    1
    25    16    22    1
    26    17    19    2
    27    23     1    1
    28    23    24    1
    29    27    28    1
    30    27    24    1
    31    13    22    1
    32    13    12    1
    33     1     3    1
    34     1     4    1
    35    25    24    2
    36    22    21    2
    37     5     4    1
    38     5     6    1
    39    24    26    1
    40    10    12    1
    41    10    11    1
    42    10     8    1
    43    19    20    1
    44    12     7    1
    45     7     6    1
    46     8     6    1
    47     8     9    1
    48    21    20    1
