@<TRIPOS>MOLECULE
2p9g_NAI_A_1.pdb
 44 48 0 0 0
SMALL
GASTEIGER

@<TRIPOS>ATOM
      1  PA        52.4060  -14.3450   -0.1530 P.3   450  NAI450      0.2189
      2  O1A       51.9990  -15.6660    0.3690 O.3   450  NAI450     -0.4371
      3  O2A       53.7730  -14.2750   -0.7340 O.2   450  NAI450     -0.5170
      4  O5B       52.3130  -13.3520    1.0850 O.3   450  NAI450     -0.3112
      5  C5B       52.0320  -13.9020    2.3450 C.3   450  NAI450      0.1813
      6  C4B       53.0270  -13.3230    3.3120 C.3   450  NAI450      0.1821
      7  O4B       52.3710  -12.9030    4.4870 O.3   450  NAI450     -0.3135
      8  C3B       54.0410  -14.3760    3.7300 C.3   450  NAI450      0.2184
      9  O3B       55.3530  -13.8520    3.5850 O.3   450  NAI450     -0.2174
     10  C2B       53.6810  -14.5920    5.1900 C.3   450  NAI450      0.2570
     11  O2B       54.7910  -15.0030    5.9180 O.3   450  NAI450     -0.2130
     12  C1B       53.1260  -13.2550    5.6550 C.3   450  NAI450      0.3186
     13  N9A       52.1740  -13.4200    6.7780 N.pl3 450  NAI450     -0.1439
     14  C8A       51.2130  -14.3950    6.8100 C.3   450  NAI450      0.3377
     15  N7A       50.4670  -14.2630    7.9230 N.2   450  NAI450     -0.2095
     16  C5A       50.9080  -13.2000    8.6240 C.2   450  NAI450      0.2526
     17  C6A       50.4870  -12.6550    9.8600 C.2   450  NAI450      0.4393
     18  N6A       49.7330  -13.3780   10.7030 N.pl3 450  NAI450      0.2180
     19  N1A       51.1340  -11.5410   10.3630 N.2   450  NAI450      0.0021
     20  C2A       52.1870  -11.0020    9.6300 C.3   450  NAI450      0.5254
     21  N3A       52.5940  -11.5730    8.4250 N.2   450  NAI450     -0.0055
     22  C4A       51.9730  -12.6580    7.9090 C.2   450  NAI450      0.3518
     23  O3        51.2400  -13.9620   -1.1790 O.3   450  NAI450     -0.2703
     24  PN        51.2510  -12.4970   -1.8120 P.3   450  NAI450      0.2189
     25  O1N       51.2800  -12.6370   -3.2790 O.2   450  NAI450     -0.5170
     26  O2N       52.3610  -11.7620   -1.1470 O.3   450  NAI450     -0.4371
     27  O5D       49.8580  -11.8120   -1.4350 O.3   450  NAI450     -0.3112
     28  C5D       49.5700  -11.3260   -0.1430 C.3   450  NAI450      0.1813
     29  C4D       48.0920  -10.9420   -0.1600 C.3   450  NAI450      0.1799
     30  O4D       47.8150  -10.0750   -1.2470 O.3   450  NAI450     -0.3327
     31  C3D       47.2340  -12.1740   -0.3730 C.3   450  NAI450      0.2158
     32  O3D       46.1580  -12.0800    0.5260 O.3   450  NAI450     -0.2175
     33  C2D       46.8200  -12.0640   -1.8350 C.3   450  NAI450      0.2309
     34  O2D       45.6110  -12.7070   -2.1680 O.3   450  NAI450     -0.2158
     35  C1D       46.6870  -10.5570   -1.9520 C.3   450  NAI450      0.2263
     36  N1N       46.4260  -10.1010   -3.3450 N.pl3 450  NAI450     -0.2787
     37  C2N       45.4330   -9.1700   -3.5020 C.3   450  NAI450      0.1244
     38  C3N       45.0850   -8.7080   -4.7770 C.2   450  NAI450      0.0544
     39  C7N       44.3270   -7.4130   -4.8920 C.2   450  NAI450      0.2818
     40  O7N       43.6190   -7.2560   -6.0860 O.2   450  NAI450     -0.2670
     41  N7N       44.3610   -6.4590   -3.9400 N.am  450  NAI450     -0.0839
     42  C4N       45.7460   -9.2030   -5.9240 C.2   450  NAI450      0.0033
     43  C5N       46.7510  -10.1660   -5.7590 C.2   450  NAI450      0.0157
     44  C6N       47.0640  -10.6180   -4.4500 C.2   450  NAI450      0.0633
@<TRIPOS>BOND
     1    40    39    2
     2    42    43    1
     3    42    38    2
     4    43    44    2
     5    39    38    1
     6    39    41   am
     7    38    37    1
     8    44    36    1
     9    37    36    1
    10    36    35    1
    11    25    24    2
    12    34    33    1
    13    35    33    1
    14    35    30    1
    15    33    31    1
    16    24    27    1
    17    24    23    1
    18    24    26    1
    19    27    28    1
    20    30    29    1
    21    23     1    1
    22     3     1    2
    23    31    29    1
    24    31    32    1
    25    29    28    1
    26     1     2    1
    27     1     4    1
    28     4     5    1
    29     5     6    1
    30     6     8    1
    31     6     7    1
    32     9     8    1
    33     8    10    1
    34     7    12    1
    35    10    12    1
    36    10    11    1
    37    12    13    1
    38    13    14    1
    39    13    22    1
    40    14    15    1
    41    22    21    2
    42    22    16    1
    43    15    16    2
    44    21    20    1
    45    16    17    1
    46    20    19    1
    47    17    19    2
    48    17    18    1
