@<TRIPOS>MOLECULE
2p9h_IPT_A_1.pdb
 15 15 0 0 0
SMALL
GASTEIGER

@<TRIPOS>ATOM
      1  C1        18.2250  -11.0810    1.0060 C.3   998  IPT998      0.1955
      2  C2        19.3760  -10.2470    1.6290 C.3   998  IPT998      0.2219
      3  O2        19.1540   -8.8500    1.2940 O.3   998  IPT998     -0.2167
      4  C3        20.7150  -10.7360    1.0900 C.3   998  IPT998      0.2181
      5  O3        21.8210  -10.1750    1.8320 O.3   998  IPT998     -0.2175
      6  C4        20.8150  -12.2750    1.1140 C.3   998  IPT998      0.2143
      7  O4        20.9300  -12.6530    2.4810 O.3   998  IPT998     -0.2176
      8  C5        19.5230  -12.9120    0.5490 C.3   998  IPT998      0.1820
      9  O5        18.3910  -12.3860    1.3430 O.3   998  IPT998     -0.3398
     10  C6        19.5230  -14.4170    0.6230 C.3   998  IPT998      0.2142
     11  O6        18.6160  -14.8880   -0.4300 O.3   998  IPT998     -0.2176
     12  S1        16.7430  -10.5400    1.8420 S.3   998  IPT998     -0.1102
     13  C1'       15.4060  -11.4290    0.9490 C.3   998  IPT998      0.0500
     14  C2'       14.1580  -11.4160    1.8370 C.3   998  IPT998      0.0117
     15  C3'       15.1210  -10.7540   -0.3980 C.3   998  IPT998      0.0117
@<TRIPOS>BOND
     1    11    10    1
     2    15    13    1
     3     8    10    1
     4     8     6    1
     5     8     9    1
     6    13    14    1
     7    13    12    1
     8     1     9    1
     9     1     2    1
    10     1    12    1
    11     4     6    1
    12     4     2    1
    13     4     5    1
    14     6     7    1
    15     3     2    1
