@<TRIPOS>MOLECULE
2p9i_ADP_A_1.pdb
 27 29 0 0 0
SMALL
GASTEIGER

@<TRIPOS>ATOM
      1  PB        22.1660   15.8830   42.4240 P.3   501  ADP501      0.5373
      2  O1B       21.8040   17.4220   42.7240 O.3   501  ADP501     -0.1143
      3  O2B       22.9780   15.3640   43.7120 O.3   501  ADP501     -0.1143
      4  O3B       20.9590   15.0660   42.1610 O.2   501  ADP501     -0.2221
      5  PA        24.3660   16.9800   41.0310 P.3   501  ADP501      0.2231
      6  O1A       23.8550   18.0680   40.1700 O.2   501  ADP501     -0.5169
      7  O2A       24.9100   17.3330   42.3620 O.3   501  ADP501     -0.4370
      8  O3A       23.1930   15.8870   41.1840 O.3   501  ADP501     -0.2261
      9  O5'       25.4560   16.1290   40.2090 O.3   501  ADP501     -0.3111
     10  C5'       26.0550   14.9630   40.7790 C.3   501  ADP501      0.1813
     11  C4'       26.4080   13.9840   39.6570 C.3   501  ADP501      0.1821
     12  O4'       27.3040   14.6540   38.7520 O.3   501  ADP501     -0.3135
     13  C3'       27.1430   12.7470   40.1770 C.3   501  ADP501      0.2184
     14  O3'       26.7590   11.6050   39.4070 O.3   501  ADP501     -0.2174
     15  C2'       28.6000   13.1150   39.8960 C.3   501  ADP501      0.2570
     16  O2'       29.3730   11.9220   39.7500 O.3   501  ADP501     -0.2130
     17  C1'       28.4030   13.7600   38.5240 C.3   501  ADP501      0.3186
     18  N9        29.5760   14.5340   38.0590 N.pl3 501  ADP501     -0.1439
     19  C8        30.2840   15.4130   38.7690 C.3   501  ADP501      0.3377
     20  N7        31.2120   15.9680   37.9940 N.2   501  ADP501     -0.2095
     21  C5        31.1000   15.4370   36.7810 C.2   501  ADP501      0.2526
     22  C6        31.7800   15.6250   35.5830 C.2   501  ADP501      0.4393
     23  N6        32.7540   16.5250   35.4850 N.pl3 501  ADP501      0.2180
     24  N1        31.3950   14.8720   34.4670 N.2   501  ADP501      0.0021
     25  C2        30.3400   13.9580   34.5820 C.3   501  ADP501      0.5254
     26  N3        29.7120   13.8100   35.7360 N.2   501  ADP501     -0.0055
     27  C4        30.0590   14.5150   36.8220 C.2   501  ADP501      0.3518
@<TRIPOS>BOND
     1    24    25    1
     2    24    22    2
     3    25    26    1
     4    23    22    1
     5    22    21    1
     6    26    27    2
     7    21    27    1
     8    21    20    2
     9    27    18    1
    10    20    19    1
    11    18    17    1
    12    18    19    1
    13    17    12    1
    14    17    15    1
    15    12    11    1
    16    14    13    1
    17    11    13    1
    18    11    10    1
    19    16    15    1
    20    15    13    1
    21     6     5    2
    22     9    10    1
    23     9     5    1
    24     5     8    1
    25     5     7    1
    26     8     1    1
    27     4     1    2
    28     1     2    1
    29     1     3    1
