@<TRIPOS>MOLECULE
2p9k_ATP_A_1.pdb
 31 33 0 0 0
SMALL
GASTEIGER

@<TRIPOS>ATOM
      1  PG        19.2620   14.9230   41.6740 P.3   601  ATP601      0.5373
      2  O1G       18.9740   13.7240   40.6380 O.2   601  ATP601     -0.2221
      3  O2G       19.3830   16.2420   40.7610 O.3   601  ATP601     -0.1143
      4  O3G       18.1920   15.0360   42.6900 O.3   601  ATP601     -0.1143
      5  PB        21.7760   15.7900   42.6340 P.3   601  ATP601      0.2277
      6  O1B       21.0320   17.0560   42.8090 O.2   601  ATP601     -0.5168
      7  O2B       22.6490   15.3280   43.7340 O.3   601  ATP601     -0.4368
      8  O3B       20.7130   14.6240   42.3060 O.3   601  ATP601     -0.2258
      9  PA        23.8760   16.8620   41.0900 P.3   601  ATP601      0.2189
     10  O1A       23.3970   17.9830   40.2530 O.2   601  ATP601     -0.5170
     11  O2A       24.4860   17.1690   42.4030 O.3   601  ATP601     -0.4371
     12  O3A       22.6370   15.8510   41.2740 O.3   601  ATP601     -0.2700
     13  O5'       24.8930   15.9680   40.2230 O.3   601  ATP601     -0.3112
     14  C5'       25.5870   14.8630   40.8070 C.3   601  ATP601      0.1813
     15  C4'       26.0250   13.9180   39.6880 C.3   601  ATP601      0.1821
     16  O4'       26.9300   14.6420   38.8360 O.3   601  ATP601     -0.3135
     17  C3'       26.7810   12.6870   40.1940 C.3   601  ATP601      0.2184
     18  O3'       26.4100   11.5510   39.4090 O.3   601  ATP601     -0.2174
     19  C2'       28.2320   13.0650   39.9050 C.3   601  ATP601      0.2570
     20  O2'       28.9900   11.8700   39.7060 O.3   601  ATP601     -0.2130
     21  C1'       28.0220   13.7540   38.5580 C.3   601  ATP601      0.3186
     22  N9        29.1900   14.5520   38.1180 N.pl3 601  ATP601     -0.1439
     23  C8        29.8860   15.4110   38.8540 C.3   601  ATP601      0.3377
     24  N7        30.8180   15.9930   38.1000 N.2   601  ATP601     -0.2095
     25  C5        30.7120   15.4970   36.8710 C.2   601  ATP601      0.2526
     26  C6        31.3960   15.7210   35.6840 C.2   601  ATP601      0.4393
     27  N6        32.3680   16.6310   35.6210 N.pl3 601  ATP601      0.2180
     28  N1        31.0230   15.0010   34.5460 N.2   601  ATP601      0.0021
     29  C2        29.9670   14.0780   34.6280 C.3   601  ATP601      0.5254
     30  N3        29.3370   13.8960   35.7690 N.2   601  ATP601     -0.0055
     31  C4        29.6750   14.5710   36.8810 C.2   601  ATP601      0.3518
@<TRIPOS>BOND
     1    28    29    1
     2    28    26    2
     3    29    30    1
     4    27    26    1
     5    26    25    1
     6    30    31    2
     7    25    31    1
     8    25    24    2
     9    31    22    1
    10    24    23    1
    11    22    21    1
    12    22    23    1
    13    21    16    1
    14    21    19    1
    15    16    15    1
    16    18    17    1
    17    15    17    1
    18    15    14    1
    19    20    19    1
    20    19    17    1
    21    13    14    1
    22    13     9    1
    23    10     9    2
    24     2     1    2
    25     3     1    1
    26     9    12    1
    27     9    11    1
    28    12     5    1
    29     1     8    1
    30     1     4    1
    31     8     5    1
    32     5     6    2
    33     5     7    1
