@<TRIPOS>MOLECULE
2p9n_ADP_A_1.pdb
 27 29 0 0 0
SMALL
GASTEIGER

@<TRIPOS>ATOM
      1  PB        23.1830   14.0090   43.5200 P.3   501  ADP501      0.5373
      2  O1B       21.9760   13.8930   44.5800 O.3   501  ADP501     -0.1143
      3  O2B       22.5320   13.8210   42.0590 O.2   501  ADP501     -0.2221
      4  O3B       23.9100   15.2930   43.6340 O.3   501  ADP501     -0.1143
      5  PA        23.5330   11.2260   43.6840 P.3   501  ADP501      0.2231
      6  O1A       24.1180   10.4680   44.8210 O.3   501  ADP501     -0.4370
      7  O2A       22.0670   11.2740   43.5520 O.2   501  ADP501     -0.5169
      8  O3A       24.1220   12.7260   43.7730 O.3   501  ADP501     -0.2261
      9  O5'       24.1860   10.6880   42.3130 O.3   501  ADP501     -0.3111
     10  C5'       25.2140   11.4550   41.6790 C.3   501  ADP501      0.1813
     11  C4'       25.8820   10.7000   40.5280 C.3   501  ADP501      0.1821
     12  O4'       26.8250   11.5940   39.9130 O.3   501  ADP501     -0.3135
     13  C3'       26.6830    9.4830   41.0020 C.3   501  ADP501      0.2184
     14  O3'       26.4290    8.3720   40.1350 O.3   501  ADP501     -0.2174
     15  C2'       28.1280    9.9520   40.8320 C.3   501  ADP501      0.2570
     16  O2'       28.9650    8.8250   40.5540 O.3   501  ADP501     -0.2130
     17  C1'       27.9430   10.7700   39.5550 C.3   501  ADP501      0.3186
     18  N9        29.1000   11.6210   39.1970 N.pl3 501  ADP501     -0.1439
     19  C8        29.7450   12.4700   39.9960 C.3   501  ADP501      0.3377
     20  N7        30.6820   13.1060   39.3020 N.2   501  ADP501     -0.2095
     21  C5        30.6430   12.6610   38.0480 C.2   501  ADP501      0.2526
     22  C6        31.3650   12.9540   36.8970 C.2   501  ADP501      0.4393
     23  N6        32.3410   13.8590   36.9090 N.pl3 501  ADP501      0.2180
     24  N1        31.0500   12.2800   35.7120 N.2   501  ADP501      0.0021
     25  C2        30.0170   11.3300   35.7180 C.3   501  ADP501      0.5254
     26  N3        29.3530   11.0770   36.8290 N.2   501  ADP501     -0.0055
     27  C4        29.6320   11.7100   37.9840 C.2   501  ADP501      0.3518
@<TRIPOS>BOND
     1    24    25    1
     2    24    22    2
     3    25    26    1
     4    26    27    2
     5    22    23    1
     6    22    21    1
     7    27    21    1
     8    27    18    1
     9    21    20    2
    10    18    17    1
    11    18    19    1
    12    20    19    1
    13    17    12    1
    14    17    15    1
    15    12    11    1
    16    14    13    1
    17    11    13    1
    18    11    10    1
    19    16    15    1
    20    15    13    1
    21    10     9    1
    22     3     1    2
    23     9     5    1
    24     1     4    1
    25     1     8    1
    26     1     2    1
    27     7     5    2
    28     5     8    1
    29     5     6    1
