@<TRIPOS>MOLECULE
2p9p_ADP_A_1.pdb
 27 29 0 0 0
SMALL
GASTEIGER

@<TRIPOS>ATOM
      1  PB        22.4430   14.9210   43.3810 P.3   501  ADP501      0.5373
      2  O1B       22.1630   16.4140   43.8950 O.3   501  ADP501     -0.1143
      3  O2B       23.2860   14.1780   44.5250 O.3   501  ADP501     -0.1143
      4  O3B       21.1890   14.1980   43.0810 O.2   501  ADP501     -0.2221
      5  PA        24.7420   15.9980   42.1750 P.3   501  ADP501      0.2231
      6  O1A       24.4760   17.2180   41.3900 O.2   501  ADP501     -0.5169
      7  O2A       25.1680   16.1570   43.5830 O.3   501  ADP501     -0.4370
      8  O3A       23.4280   15.0750   42.1250 O.3   501  ADP501     -0.2261
      9  O5'       25.8020   15.0830   41.3870 O.3   501  ADP501     -0.3111
     10  C5'       26.2480   13.8270   41.9050 C.3   501  ADP501      0.1813
     11  C4'       26.5620   12.8730   40.7500 C.3   501  ADP501      0.1821
     12  O4'       27.4880   13.5440   39.8790 O.3   501  ADP501     -0.3135
     13  C3'       27.2260   11.5610   41.1790 C.3   501  ADP501      0.2184
     14  O3'       26.7690   10.4920   40.3470 O.3   501  ADP501     -0.2174
     15  C2'       28.6950   11.8550   40.8810 C.3   501  ADP501      0.2570
     16  O2'       29.4050   10.6330   40.6570 O.3   501  ADP501     -0.2130
     17  C1'       28.4970   12.5800   39.5520 C.3   501  ADP501      0.3186
     18  N9        29.7050   13.3030   39.0870 N.pl3 501  ADP501     -0.1439
     19  C8        30.4510   14.1250   39.8140 C.3   501  ADP501      0.3377
     20  N7        31.4060   14.6530   39.0510 N.2   501  ADP501     -0.2095
     21  C5        31.2610   14.1560   37.8220 C.2   501  ADP501      0.2526
     22  C6        31.9280   14.3710   36.6290 C.2   501  ADP501      0.4393
     23  N6        32.9770   15.1870   36.5800 N.pl3 501  ADP501      0.2180
     24  N1        31.4790   13.7030   35.4790 N.2   501  ADP501      0.0021
     25  C2        30.3800   12.8420   35.5700 C.3   501  ADP501      0.5254
     26  N3        29.7720   12.6590   36.7290 N.2   501  ADP501     -0.0055
     27  C4        30.1770   13.2880   37.8450 C.2   501  ADP501      0.3518
@<TRIPOS>BOND
     1    24    25    1
     2    24    22    2
     3    25    26    1
     4    23    22    1
     5    22    21    1
     6    26    27    2
     7    21    27    1
     8    21    20    2
     9    27    18    1
    10    20    19    1
    11    18    17    1
    12    18    19    1
    13    17    12    1
    14    17    15    1
    15    12    11    1
    16    14    13    1
    17    16    15    1
    18    11    13    1
    19    11    10    1
    20    15    13    1
    21     9    10    1
    22     9     5    1
    23     6     5    2
    24     8     5    1
    25     8     1    1
    26     5     7    1
    27     4     1    2
    28     1     2    1
    29     1     3    1
