@<TRIPOS>MOLECULE
2p9s_ATP_A_1.pdb
 31 33 0 0 0
SMALL
GASTEIGER

@<TRIPOS>ATOM
      1  PG        19.6670   14.9450   42.4930 P.3   501  ATP501      0.5373
      2  O1G       19.0810   13.7760   41.5530 O.3   501  ATP501     -0.1143
      3  O2G       19.8270   16.2280   41.5310 O.2   501  ATP501     -0.2221
      4  O3G       18.7900   15.2270   43.6530 O.3   501  ATP501     -0.1143
      5  PB        22.3160   15.4920   43.2950 P.3   501  ATP501      0.2277
      6  O1B       21.7810   16.8700   43.2200 O.2   501  ATP501     -0.5168
      7  O2B       22.9120   15.0300   44.5670 O.3   501  ATP501     -0.4368
      8  O3B       21.1430   14.4580   42.9090 O.3   501  ATP501     -0.2258
      9  PA        24.5960   16.2790   41.8530 P.3   501  ATP501      0.2189
     10  O1A       24.1240   17.3660   40.9640 O.2   501  ATP501     -0.5170
     11  O2A       25.2030   16.6470   43.1500 O.3   501  ATP501     -0.4371
     12  O3A       23.3610   15.2730   42.0910 O.3   501  ATP501     -0.2700
     13  O5'       25.6070   15.3320   41.0320 O.3   501  ATP501     -0.3112
     14  C5'       26.1520   14.1420   41.6120 C.3   501  ATP501      0.1813
     15  C4'       26.6550   13.2220   40.4960 C.3   501  ATP501      0.1821
     16  O4'       27.5440   13.9900   39.6640 O.3   501  ATP501     -0.3135
     17  C3'       27.4610   12.0340   41.0300 C.3   501  ATP501      0.2184
     18  O3'       27.1690   10.8630   40.2630 O.3   501  ATP501     -0.2174
     19  C2'       28.8980   12.4740   40.7520 C.3   501  ATP501      0.2570
     20  O2'       29.7200   11.3180   40.5680 O.3   501  ATP501     -0.2130
     21  C1'       28.6710   13.1430   39.3970 C.3   501  ATP501      0.3186
     22  N9        29.8220   13.9660   38.9660 N.pl3 501  ATP501     -0.1439
     23  C8        30.4930   14.8460   39.7070 C.3   501  ATP501      0.3377
     24  N7        31.4350   15.4260   38.9660 N.2   501  ATP501     -0.2095
     25  C5        31.3680   14.9050   37.7440 C.2   501  ATP501      0.2526
     26  C6        32.0840   15.1180   36.5710 C.2   501  ATP501      0.4393
     27  N6        33.0950   15.9810   36.5390 N.pl3 501  ATP501      0.2180
     28  N1        31.7380   14.3840   35.4300 N.2   501  ATP501      0.0021
     29  C2        30.6880   13.4580   35.5000 C.3   501  ATP501      0.5254
     30  N3        30.0320   13.2820   36.6320 N.2   501  ATP501     -0.0055
     31  C4        30.3400   13.9730   37.7410 C.2   501  ATP501      0.3518
@<TRIPOS>BOND
     1    28    29    1
     2    28    26    2
     3    29    30    1
     4    27    26    1
     5    26    25    1
     6    30    31    2
     7    31    25    1
     8    31    22    1
     9    25    24    2
    10    24    23    1
    11    22    21    1
    12    22    23    1
    13    21    16    1
    14    21    19    1
    15    16    15    1
    16    18    17    1
    17    15    17    1
    18    15    14    1
    19    20    19    1
    20    19    17    1
    21    10     9    2
    22    13    14    1
    23    13     9    1
    24     3     1    2
    25     2     1    1
    26     9    12    1
    27     9    11    1
    28    12     5    1
    29     1     8    1
    30     1     4    1
    31     8     5    1
    32     6     5    2
    33     5     7    1
