@<TRIPOS>MOLECULE
2p9t_3PG_A_1.pdb
 11 10 0 0 0
SMALL
GASTEIGER

@<TRIPOS>ATOM
      1  C1         4.5200    1.7080   13.3720 C.2   500  3PG500      0.3972
      2  O1         3.3840    2.1450   13.1910 O.co2 500  3PG500     -0.2427
      3  O2         4.8280    0.5610   13.7930 O.co2 500  3PG500     -0.2427
      4  C2         5.6920    2.6400   13.0110 C.3   500  3PG500      0.2838
      5  O3         5.1530    3.8710   12.5130 O.3   500  3PG500     -0.2081
      6  C3         6.5560    1.9780   11.9470 C.3   500  3PG500      0.1983
      7  O1P        5.8040    1.7050   10.7610 O.3   500  3PG500     -0.2669
      8  P          6.4420    0.7710    9.6060 P.3   500  3PG500      0.5327
      9  O2P        7.9100    0.7620    9.6240 O.3   500  3PG500     -0.1145
     10  O3P        5.8410    1.3110    8.2070 O.2   500  3PG500     -0.2224
     11  O4P        5.8000   -0.6940    9.8250 O.3   500  3PG500     -0.1145
@<TRIPOS>BOND
     1    10     8    2
     2     8     9    1
     3     8    11    1
     4     8     7    1
     5     7     6    1
     6     6     4    1
     7     5     4    1
     8     4     1    1
     9     2     1   ar
    10     1     3   ar
