@<TRIPOS>MOLECULE
2p9u_ANP_A_1.pdb
 31 33 0 0 0
SMALL
GASTEIGER

@<TRIPOS>ATOM
      1  PG        19.0130   13.0250   43.3740 P.3   901  ANP901      0.4884
      2  O1G       18.3730   12.0080   42.5120 O.2   901  ANP901     -0.2331
      3  O2G       19.3030   14.4010   42.5930 O.3   901  ANP901     -0.1240
      4  O3G       18.1020   13.4260   44.6380 O.3   901  ANP901     -0.1240
      5  PB        21.4120   13.7020   44.4270 P.3   901  ANP901      0.4669
      6  O1B       21.0370   15.0360   43.9080 O.2   901  ANP901     -0.2351
      7  O2B       22.2570   13.4540   45.6140 O.3   901  ANP901     -0.1253
      8  N3B       20.4350   12.4960   43.9520 N.3   901  ANP901     -0.0163
      9  PA        23.7060   14.3930   42.9600 P.3   901  ANP901      0.2220
     10  O1A       23.1050   15.4830   42.1630 O.2   901  ANP901     -0.5170
     11  O2A       24.4410   14.7490   44.1920 O.3   901  ANP901     -0.4370
     12  O3A       22.5280   13.3570   43.3180 O.3   901  ANP901     -0.2360
     13  O5'       24.6730   13.5280   42.0120 O.3   901  ANP901     -0.3111
     14  C5'       25.2730   12.3170   42.4780 C.3   901  ANP901      0.1813
     15  C4'       25.8580   11.5440   41.2950 C.3   901  ANP901      0.1821
     16  O4'       26.8470   12.3710   40.6580 O.3   901  ANP901     -0.3135
     17  C3'       26.5680   10.2460   41.6930 C.3   901  ANP901      0.2184
     18  O3'       26.1670    9.1950   40.8110 O.3   901  ANP901     -0.2174
     19  C2'       28.0360   10.5750   41.4290 C.3   901  ANP901      0.2570
     20  O2'       28.7210    9.3800   41.0460 O.3   901  ANP901     -0.2130
     21  C1'       27.8510   11.4570   40.1970 C.3   901  ANP901      0.3186
     22  N9        29.0870   12.2000   39.8640 N.pl3 901  ANP901     -0.1439
     23  C8        29.7370   13.0430   40.6620 C.3   901  ANP901      0.3377
     24  N7        30.7790   13.5570   40.0090 N.2   901  ANP901     -0.2095
     25  C5        30.7920   13.0380   38.7880 C.2   901  ANP901      0.2526
     26  C6        31.6010   13.1970   37.6690 C.2   901  ANP901      0.4393
     27  N6        32.6410   14.0270   37.6930 N.pl3 901  ANP901      0.2180
     28  N1        31.3120   12.5150   36.5560 N.2   901  ANP901      0.0021
     29  C2        30.2760   11.6940   36.5080 C.3   901  ANP901      0.5254
     30  N3        29.4830   11.5160   37.5480 N.2   901  ANP901     -0.0055
     31  C4        29.7100   12.1700   38.6950 C.2   901  ANP901      0.3518
@<TRIPOS>BOND
     1    29    28    1
     2    29    30    1
     3    28    26    2
     4    30    31    2
     5    26    27    1
     6    26    25    1
     7    31    25    1
     8    31    22    1
     9    25    24    2
    10    22    21    1
    11    22    23    1
    12    24    23    1
    13    21    16    1
    14    21    19    1
    15    16    15    1
    16    18    17    1
    17    20    19    1
    18    15    17    1
    19    15    14    1
    20    19    17    1
    21    13    14    1
    22    13     9    1
    23    10     9    2
    24     2     1    2
    25     3     1    1
    26     9    12    1
    27     9    11    1
    28    12     5    1
    29     1     8    1
    30     1     4    1
    31     6     5    2
    32     8     5    1
    33     5     7    1
