@<TRIPOS>MOLECULE
2pa3_NAI_A_1.pdb
 44 48 0 0 0
SMALL
GASTEIGER

@<TRIPOS>ATOM
      1  PA        54.0560  -64.9240  -33.7660 P.3   450  NAI450      0.2189
      2  O1A       54.3670  -65.1330  -32.3140 O.3   450  NAI450     -0.4371
      3  O2A       52.5960  -64.7090  -34.0700 O.2   450  NAI450     -0.5170
      4  O5B       54.6770  -66.1830  -34.5180 O.3   450  NAI450     -0.3112
      5  C5B       55.9950  -66.5850  -34.1850 C.3   450  NAI450      0.1813
      6  C4B       56.0090  -68.0080  -34.7560 C.3   450  NAI450      0.1821
      7  O4B       57.2900  -68.5970  -34.7250 O.3   450  NAI450     -0.3135
      8  C3B       55.0850  -68.9420  -33.9850 C.3   450  NAI450      0.2184
      9  O3B       54.1980  -69.4880  -34.9390 O.3   450  NAI450     -0.2174
     10  C2B       56.0280  -69.9680  -33.3490 C.3   450  NAI450      0.2570
     11  O2B       55.5040  -71.2740  -33.2850 O.3   450  NAI450     -0.2130
     12  C1B       57.1620  -69.9530  -34.3370 C.3   450  NAI450      0.3186
     13  N9A       58.4800  -70.2270  -33.8100 N.pl3 450  NAI450     -0.1439
     14  C8A       59.0180  -69.8010  -32.6340 C.3   450  NAI450      0.3377
     15  N7A       60.3150  -70.2350  -32.6270 N.2   450  NAI450     -0.2095
     16  C5A       60.6070  -70.8780  -33.7810 C.2   450  NAI450      0.2526
     17  C6A       61.7580  -71.5020  -34.2890 C.2   450  NAI450      0.4393
     18  N6A       62.8430  -71.6750  -33.5360 N.pl3 450  NAI450      0.2180
     19  N1A       61.7220  -72.0960  -35.5460 N.2   450  NAI450      0.0021
     20  C2A       60.5470  -72.0630  -36.2770 C.3   450  NAI450      0.5254
     21  N3A       59.4170  -71.4380  -35.7670 N.2   450  NAI450     -0.0055
     22  C4A       59.4440  -70.8680  -34.5380 C.2   450  NAI450      0.3518
     23  O3        55.0170  -63.7160  -34.2980 O.3   450  NAI450     -0.2703
     24  PN        54.4350  -62.5600  -35.2640 P.3   450  NAI450      0.2189
     25  O1N       53.5780  -61.5440  -34.5610 O.3   450  NAI450     -0.4371
     26  O2N       53.8190  -63.3590  -36.3700 O.2   450  NAI450     -0.5170
     27  O5D       55.8360  -61.8350  -35.6460 O.3   450  NAI450     -0.3112
     28  C5D       56.9530  -62.6460  -35.8830 C.3   450  NAI450      0.1813
     29  C4D       58.2110  -61.8360  -35.6120 C.3   450  NAI450      0.1799
     30  O4D       58.2530  -60.6660  -36.4120 O.3   450  NAI450     -0.3327
     31  C3D       58.2620  -61.3590  -34.1630 C.3   450  NAI450      0.2158
     32  O3D       59.5900  -61.5470  -33.7020 O.3   450  NAI450     -0.2175
     33  C2D       57.9880  -59.8690  -34.2460 C.3   450  NAI450      0.2309
     34  O2D       58.6560  -59.2040  -33.2090 O.3   450  NAI450     -0.2158
     35  C1D       58.6280  -59.5630  -35.5920 C.3   450  NAI450      0.2263
     36  N1N       58.2170  -58.2400  -36.0960 N.pl3 450  NAI450     -0.2787
     37  C2N       59.1070  -57.4580  -36.7950 C.3   450  NAI450      0.1244
     38  C3N       58.6710  -56.1880  -37.2350 C.2   450  NAI450      0.0544
     39  C7N       59.5370  -55.3130  -38.0780 C.2   450  NAI450      0.2818
     40  O7N       59.3350  -53.9310  -37.9160 O.2   450  NAI450     -0.2670
     41  N7N       60.4120  -55.8340  -38.9630 N.am  450  NAI450     -0.0839
     42  C4N       57.3840  -55.7080  -36.9940 C.2   450  NAI450      0.0033
     43  C5N       56.4960  -56.5270  -36.3020 C.2   450  NAI450      0.0157
     44  C6N       56.9400  -57.7810  -35.8450 C.2   450  NAI450      0.0633
@<TRIPOS>BOND
     1    41    39   am
     2    39    40    2
     3    39    38    1
     4    38    42    2
     5    38    37    1
     6    42    43    1
     7    37    36    1
     8    30    29    1
     9    30    35    1
    10    26    24    2
    11    43    44    2
    12    20    21    1
    13    20    19    1
    14    36    44    1
    15    36    35    1
    16    28    27    1
    17    28    29    1
    18    21    22    2
    19    27    24    1
    20    29    31    1
    21    35    33    1
    22    19    17    2
    23    24    25    1
    24    24    23    1
    25     9     8    1
    26     6     7    1
    27     6     5    1
    28     6     8    1
    29     7    12    1
    30    22    13    1
    31    22    16    1
    32     4     5    1
    33     4     1    1
    34    12    13    1
    35    12    10    1
    36    23     1    1
    37    17    16    1
    38    17    18    1
    39    33    31    1
    40    33    34    1
    41    31    32    1
    42     3     1    2
    43     8    10    1
    44    13    14    1
    45    16    15    2
    46     1     2    1
    47    10    11    1
    48    14    15    1
