@<TRIPOS>MOLECULE
2pa4_GUD_A_1.pdb
 36 38 0 0 0
SMALL
GASTEIGER

@<TRIPOS>ATOM
      1  N1        97.8130    4.2750   25.0980 N.am  326  GUD326     -0.1766
      2  C2        96.4700    4.1060   24.7200 C.1   326  GUD326      0.2845
      3  N3        96.0890    3.0610   23.9380 N.2   326  GUD326     -0.2452
      4  C4        96.9800    2.1840   23.4880 C.1   326  GUD326      0.2182
      5  C5        98.3210    2.3260   23.8220 C.2   326  GUD326      0.1242
      6  C6        98.7140    3.4000   24.6430 C.2   326  GUD326      0.0929
      7  O2        95.6420    4.9700   25.0740 O.2   326  GUD326     -0.1918
      8  O4        96.6160    1.2050   22.8020 O.2   326  GUD326     -0.2085
      9  C1D       98.2230    5.3970   25.9850 C.3   326  GUD326      0.2401
     10  C2D       98.8820    4.8640   27.2780 C.3   326  GUD326      0.2319
     11  O2D       97.9120    4.6840   28.3130 O.3   326  GUD326     -0.2157
     12  C3D       99.9390    5.9030   27.6340 C.3   326  GUD326      0.2158
     13  C4D      100.2020    6.6410   26.3210 C.3   326  GUD326      0.1799
     14  O4D       99.2410    6.1640   25.3860 O.3   326  GUD326     -0.3320
     15  O3D       99.3570    6.7910   28.5440 O.3   326  GUD326     -0.2175
     16  C5D      101.5350    6.2880   25.6810 C.3   326  GUD326      0.1813
     17  O5D      101.6270    4.8650   25.8000 O.3   326  GUD326     -0.3112
     18  PA       102.9610    4.1640   26.1550 P.3   326  GUD326      0.2189
     19  O1A      102.7960    2.6960   26.1590 O.2   326  GUD326     -0.5170
     20  O2A      103.4410    4.7700   27.4270 O.3   326  GUD326     -0.4371
     21  O3A      103.9680    4.4360   24.9360 O.3   326  GUD326     -0.2703
     22  PB       105.6230    4.5560   24.9790 P.3   326  GUD326      0.2208
     23  O1B      105.9450    5.3940   26.2080 O.3   326  GUD326     -0.4371
     24  O2B      106.1430    3.2080   24.8120 O.2   326  GUD326     -0.5170
     25  O3B      105.7630    5.4590   23.6500 O.3   326  GUD326     -0.2857
     26  C1'      105.0920    6.6640   23.4000 C.3   326  GUD326      0.2742
     27  C2'      105.3910    7.0160   21.9430 C.3   326  GUD326      0.2409
     28  C3'      106.9230    7.3060   21.8500 C.3   326  GUD326      0.2198
     29  C4'      107.3650    8.4390   22.7740 C.3   326  GUD326      0.2144
     30  C5'      106.9860    8.0570   24.2250 C.3   326  GUD326      0.1835
     31  C6'      107.3250    9.1380   25.2300 C.3   326  GUD326      0.2142
     32  O2'      105.0580    5.9300   21.0190 O.3   326  GUD326     -0.2149
     33  O3'      107.2910    7.4720   20.4700 O.3   326  GUD326     -0.2174
     34  O4'      108.7710    8.4160   22.7090 O.3   326  GUD326     -0.2176
     35  O5'      105.6050    7.7190   24.2850 O.3   326  GUD326     -0.3254
     36  O6'      106.7490    8.9590   26.5330 O.3   326  GUD326     -0.2176
@<TRIPOS>BOND
     1    33    28    1
     2    32    27    1
     3    28    27    1
     4    28    29    1
     5    27    26    1
     6    34    29    1
     7    29    30    1
     8     8     4    2
     9    26    25    1
    10    26    35    1
    11     4     5    1
    12     4     3    2
    13    25    22    1
    14     5     6    2
    15     3     2    2
    16    30    35    1
    17    30    31    1
    18     6     1    1
    19     2     7    2
    20     2     1   am
    21    24    22    2
    22    21    22    1
    23    21    18    1
    24    22    23    1
    25     1     9    1
    26    31    36    1
    27    14     9    1
    28    14    13    1
    29    16    17    1
    30    16    13    1
    31    17    18    1
    32     9    10    1
    33    18    19    2
    34    18    20    1
    35    13    12    1
    36    10    12    1
    37    10    11    1
    38    12    15    1
