@<TRIPOS>MOLECULE
2pa7_TYD_A_1.pdb
 25 26 0 0 0
SMALL
GASTEIGER

@<TRIPOS>ATOM
      1  PA        -8.3540   14.1750   10.6580 P.3   141  TYD141      0.2231
      2  O1A       -7.2060   14.7710   11.3840 O.3   141  TYD141     -0.4370
      3  O2A       -9.4170   15.1400   10.3030 O.2   141  TYD141     -0.5169
      4  O3A       -8.8810   12.9680   11.6330 O.3   141  TYD141     -0.2261
      5  PB       -10.0970   12.8290   12.5680 P.3   141  TYD141      0.5373
      6  O1B      -11.3230   12.6180   11.7080 O.2   141  TYD141     -0.2221
      7  O2B      -10.2290   14.0620   13.3860 O.3   141  TYD141     -0.1143
      8  O3B       -9.8290   11.6770   13.4540 O.3   141  TYD141     -0.1143
      9  O5'       -8.1070   13.4590    9.2900 O.3   141  TYD141     -0.3111
     10  C5'       -9.2420   13.7280    8.4550 C.3   141  TYD141      0.1812
     11  C4'       -9.1380   13.0040    7.1650 C.3   141  TYD141      0.1773
     12  O4'       -8.2170   13.7810    6.3620 O.3   141  TYD141     -0.3339
     13  C3'       -8.5980   11.5830    7.2750 C.3   141  TYD141      0.1857
     14  O3'       -8.9650   10.6930    6.1920 O.3   141  TYD141     -0.2203
     15  C2'       -7.0970   11.8850    7.2210 C.3   141  TYD141      0.0874
     16  C1'       -7.0490   13.0380    6.2310 C.3   141  TYD141      0.2090
     17  N1        -5.9030   13.9240    6.3800 N.am  141  TYD141     -0.1794
     18  C2        -5.0440   13.9590    5.3160 C.1   141  TYD141      0.2844
     19  O2        -5.2040   13.2900    4.3120 O.2   141  TYD141     -0.1918
     20  N3        -3.9770   14.8070    5.4570 N.2   141  TYD141     -0.2455
     21  C4        -3.7120   15.6050    6.5630 C.1   141  TYD141      0.2134
     22  O4        -2.7050   16.2950    6.5450 O.2   141  TYD141     -0.2088
     23  C5        -4.6620   15.4860    7.6170 C.2   141  TYD141      0.0891
     24  C5M       -4.4900   16.3080    8.8930 C.3   141  TYD141      0.0462
     25  C6        -5.6980   14.6870    7.5130 C.2   141  TYD141      0.0877
@<TRIPOS>BOND
     1    19    18    2
     2    18    20    2
     3    18    17   am
     4    20    21    2
     5    14    13    1
     6    16    12    1
     7    16    17    1
     8    16    15    1
     9    12    11    1
    10    17    25    1
    11    22    21    2
    12    21    23    1
    13    11    13    1
    14    11    10    1
    15    15    13    1
    16    25    23    2
    17    23    24    1
    18    10     9    1
    19     9     1    1
    20     3     1    2
    21     1     2    1
    22     1     4    1
    23     4     5    1
    24     6     5    2
    25     5     7    1
    26     5     8    1
