@<TRIPOS>MOLECULE
2paa_ATP_A_1.pdb
 31 33 0 0 0
SMALL
GASTEIGER

@<TRIPOS>ATOM
      1  PG        -4.9610   -7.1310   -1.1440 P.3   500  ATP500      0.5373
      2  O1G       -6.2390   -7.0510   -0.4020 O.3   500  ATP500     -0.1143
      3  O2G       -4.9890   -6.2830   -2.5140 O.2   500  ATP500     -0.2221
      4  O3G       -3.7210   -6.5410   -0.3020 O.3   500  ATP500     -0.1143
      5  PB        -5.6230   -9.7360   -2.0390 P.3   500  ATP500      0.2277
      6  O1B       -6.9890   -9.2330   -1.7680 O.2   500  ATP500     -0.5168
      7  O2B       -5.2270  -11.0360   -1.4490 O.3   500  ATP500     -0.4368
      8  O3B       -4.5490   -8.6400   -1.5400 O.3   500  ATP500     -0.2258
      9  PA        -5.3620  -11.1690   -4.4580 P.3   500  ATP500      0.2189
     10  O1A       -4.6850  -10.9130   -5.7500 O.2   500  ATP500     -0.5170
     11  O2A       -4.8360  -12.2520   -3.5980 O.3   500  ATP500     -0.4371
     12  O3A       -5.3820   -9.7840   -3.6330 O.3   500  ATP500     -0.2700
     13  O5'       -6.9250  -11.4270   -4.7380 O.3   500  ATP500     -0.3112
     14  C5'       -7.8580  -10.3430   -4.6970 C.3   500  ATP500      0.1813
     15  C4'       -9.2600  -10.8750   -4.9950 C.3   500  ATP500      0.1821
     16  O4'       -9.6640  -11.9150   -4.0960 O.3   500  ATP500     -0.3135
     17  C3'      -10.3750   -9.8410   -4.8390 C.3   500  ATP500      0.2184
     18  O3'      -10.5140   -9.1070   -6.0580 O.3   500  ATP500     -0.2174
     19  C2'      -11.6000  -10.7330   -4.6190 C.3   500  ATP500      0.2570
     20  O2'      -12.4690  -10.6430   -5.7510 O.3   500  ATP500     -0.2130
     21  C1'      -11.0020  -12.1410   -4.5570 C.3   500  ATP500      0.3186
     22  N9       -11.7490  -13.0310   -3.6440 N.pl3 500  ATP500     -0.1439
     23  C8       -11.9310  -12.8380   -2.3390 C.3   500  ATP500      0.3377
     24  N7       -12.6380  -13.8440   -1.8340 N.2   500  ATP500     -0.2095
     25  C5       -12.9100  -14.6850   -2.8250 C.2   500  ATP500      0.2526
     26  C6       -13.5950  -15.8920   -2.9060 C.2   500  ATP500      0.4393
     27  N6       -14.1590  -16.4200   -1.8250 N.pl3 500  ATP500      0.2180
     28  N1       -13.6800  -16.5070   -4.0930 N.2   500  ATP500      0.0021
     29  C2       -13.1270  -15.9860   -5.1750 C.3   500  ATP500      0.5254
     30  N3       -12.4710  -14.8420   -5.1320 N.2   500  ATP500     -0.0055
     31  C4       -12.3450  -14.1710   -3.9800 C.2   500  ATP500      0.3518
@<TRIPOS>BOND
     1    18    17    1
     2    20    19    1
     3    10     9    2
     4    29    30    1
     5    29    28    1
     6    30    31    2
     7    15    17    1
     8    15    14    1
     9    15    16    1
    10    17    19    1
    11    13    14    1
    12    13     9    1
    13    19    21    1
    14    21    16    1
    15    21    22    1
    16     9    12    1
    17     9    11    1
    18    28    26    2
    19    31    22    1
    20    31    25    1
    21    22    23    1
    22    12     5    1
    23    26    25    1
    24    26    27    1
    25    25    24    2
    26     3     1    2
    27    23    24    1
    28     5     6    2
    29     5     8    1
    30     5     7    1
    31     8     1    1
    32     1     2    1
    33     1     4    1
