@<TRIPOS>MOLECULE
2paa_3PG_B_1.pdb
 11 10 0 0 0
SMALL
GASTEIGER

@<TRIPOS>ATOM
      1  C1        17.6680   32.4240   44.2470 C.2   501  3PG501      0.3972
      2  O1        17.1300   33.0500   45.1910 O.co2 501  3PG501     -0.2427
      3  O2        18.4240   31.4420   44.3580 O.co2 501  3PG501     -0.2427
      4  C2        17.3670   32.9070   42.8240 C.3   501  3PG501      0.2838
      5  O3        17.3870   34.3370   42.7870 O.3   501  3PG501     -0.2081
      6  C3        16.0000   32.3850   42.3760 C.3   501  3PG501      0.1983
      7  O1P       14.9620   32.7290   43.3000 O.3   501  3PG501     -0.2669
      8  P         14.4230   31.6550   44.3750 P.3   501  3PG501      0.5327
      9  O2P       15.4060   30.5940   44.6910 O.3   501  3PG501     -0.1145
     10  O3P       13.0570   31.0710   43.7510 O.2   501  3PG501     -0.2224
     11  O4P       13.9900   32.4990   45.6770 O.3   501  3PG501     -0.1145
@<TRIPOS>BOND
     1     6     4    1
     2     6     7    1
     3     5     4    1
     4     4     1    1
     5     7     8    1
     6    10     8    2
     7     1     3   ar
     8     1     2   ar
     9     8     9    1
    10     8    11    1
