@<TRIPOS>MOLECULE
2pae_TYD_A_1.pdb
 25 26 0 0 0
SMALL
GASTEIGER

@<TRIPOS>ATOM
      1  PA        38.9730   15.5720   10.8670 P.3   140  TYD140      0.2231
      2  O1A       37.8040   15.8840   11.7320 O.3   140  TYD140     -0.4370
      3  O2A       39.5510   14.2790   11.2810 O.2   140  TYD140     -0.5169
      4  O3A       40.1440   16.7460   10.9100 O.3   140  TYD140     -0.2261
      5  PB        40.9740   17.4500   12.0430 P.3   140  TYD140      0.5373
      6  O1B       40.6550   18.8970   12.0460 O.3   140  TYD140     -0.1143
      7  O2B       42.4200   17.2930   11.7720 O.2   140  TYD140     -0.2221
      8  O3B       40.6530   16.8600   13.3720 O.3   140  TYD140     -0.1143
      9  O5'       38.7060   15.6920    9.2830 O.3   140  TYD140     -0.3111
     10  C5'       39.7110   16.2350    8.3850 C.3   140  TYD140      0.1812
     11  C4'       39.0870   16.9740    7.1980 C.3   140  TYD140      0.1773
     12  O4'       38.0870   16.1670    6.5210 O.3   140  TYD140     -0.3339
     13  C3'       38.4470   18.3530    7.4240 C.3   140  TYD140      0.1857
     14  O3'       38.7220   19.3230    6.3990 O.3   140  TYD140     -0.2203
     15  C2'       36.9500   18.0250    7.4090 C.3   140  TYD140      0.0874
     16  C1'       36.9260   16.9480    6.3440 C.3   140  TYD140      0.2090
     17  N1        35.7580   16.0820    6.4400 N.am  140  TYD140     -0.1794
     18  C2        34.8190   16.1140    5.4470 C.1   140  TYD140      0.2844
     19  O2        34.9110   16.8370    4.4700 O.2   140  TYD140     -0.1918
     20  N3        33.7660   15.2550    5.6320 N.2   140  TYD140     -0.2455
     21  C4        33.5730   14.3750    6.6950 C.1   140  TYD140      0.2134
     22  O4        32.5810   13.6620    6.7310 O.2   140  TYD140     -0.2088
     23  C5        34.6090   14.4300    7.6650 C.2   140  TYD140      0.0891
     24  C5M       34.5790   13.5640    8.9250 C.3   140  TYD140      0.0462
     25  C6        35.6260   15.2390    7.5220 C.2   140  TYD140      0.0877
@<TRIPOS>BOND
     1    19    18    2
     2    18    20    2
     3    18    17   am
     4    20    21    2
     5    16    17    1
     6    16    12    1
     7    16    15    1
     8    14    13    1
     9    17    25    1
    10    12    11    1
    11    21    22    2
    12    21    23    1
    13    11    13    1
    14    11    10    1
    15    15    13    1
    16    25    23    2
    17    23    24    1
    18    10     9    1
    19     9     1    1
    20     1     4    1
    21     1     3    2
    22     1     2    1
    23     4     5    1
    24     7     5    2
    25     5     6    1
    26     5     8    1
