@<TRIPOS>MOLECULE
2paf_NPF_A_1.pdb
 20 21 0 0 0
SMALL
GASTEIGER

@<TRIPOS>ATOM
      1  C1       -10.2450   16.1680   -0.8920 C.ar  902  NPF902      0.1637
      2  C2        -9.0070   15.8530   -0.2910 C.ar  902  NPF902      0.0387
      3  C3        -8.4950   14.5550   -0.0770 C.ar  902  NPF902      0.0032
      4  C4        -9.2130   13.4320   -0.4850 C.ar  902  NPF902      0.0019
      5  C5       -10.4590   13.6250   -1.1060 C.ar  902  NPF902      0.0272
      6  C6       -11.0150   14.9080   -1.3370 C.ar  902  NPF902      0.1766
      7  N6       -12.2190   15.0180   -1.9400 N.pl3 902  NPF902      0.0607
      8  O6A      -12.8580   16.2990   -2.2150 O.2   902  NPF902     -0.1260
      9  O6B      -12.8900   13.7950   -2.3240 O.2   902  NPF902     -0.1260
     10  O1'      -10.1830   17.1420   -1.9810 O.3   902  NPF902     -0.4488
     11  C1'      -10.5210   18.3650   -1.3340 C.3   902  NPF902      0.3218
     12  C2'       -9.7430   19.5310   -1.9380 C.3   902  NPF902      0.2541
     13  O2'       -8.3830   19.4120   -1.5160 O.3   902  NPF902     -0.2135
     14  C3'      -10.3300   20.9130   -1.5250 C.3   902  NPF902      0.2210
     15  O3'      -10.2210   21.8260   -2.6280 O.3   902  NPF902     -0.2173
     16  C4'      -11.8130   20.9220   -1.0160 C.3   902  NPF902      0.2119
     17  O4'      -12.7260   21.1840   -2.0710 O.3   902  NPF902     -0.2177
     18  C5'      -12.2700   19.6280   -0.3470 C.3   902  NPF902      0.1519
     19  C6'      -13.7460   19.7220    0.1280 C.3   902  NPF902      0.0350
     20  O5'      -11.9700   18.5750   -1.3020 O.3   902  NPF902     -0.3184
@<TRIPOS>BOND
     1    15    14    1
     2     9     7    2
     3     8     7    2
     4    17    16    1
     5    10    11    1
     6    10     1    1
     7     7     6    1
     8    12    14    1
     9    12    13    1
    10    12    11    1
    11    14    16    1
    12     6     5   ar
    13     6     1   ar
    14    11    20    1
    15    20    18    1
    16     5     4   ar
    17    16    18    1
    18     1     2   ar
    19     4     3   ar
    20    18    19    1
    21     2     3   ar
