@<TRIPOS>MOLECULE
2pak_TYD_A_1.pdb
 25 26 0 0 0
SMALL
GASTEIGER

@<TRIPOS>ATOM
      1  PA         8.0710   14.5700   38.7320 P.3   140  TYD140      0.2231
      2  O1A        6.6430   14.3870   38.3690 O.3   140  TYD140     -0.4370
      3  O2A        8.5730   15.7860   38.0490 O.2   140  TYD140     -0.5169
      4  O3A        8.8890   13.2350   38.1560 O.3   140  TYD140     -0.2261
      5  PB        10.3740   12.7820   37.9600 P.3   140  TYD140      0.5373
      6  O1B       10.3630   11.3670   37.5150 O.3   140  TYD140     -0.1143
      7  O2B       11.1920   12.8810   39.2050 O.3   140  TYD140     -0.1143
      8  O3B       10.9930   13.6400   36.9230 O.2   140  TYD140     -0.2221
      9  O5'        8.2350   14.6770   40.3290 O.3   140  TYD140     -0.3111
     10  C5'        9.3250   13.9850   40.9660 C.3   140  TYD140      0.1812
     11  C4'        8.9280   13.5310   42.3530 C.3   140  TYD140      0.1773
     12  O4'        7.9320   14.4380   42.8650 O.3   140  TYD140     -0.3339
     13  C3'        8.3860   12.1010   42.4960 C.3   140  TYD140      0.1857
     14  O3'        9.2000   11.1900   43.2680 O.3   140  TYD140     -0.2203
     15  C2'        6.9830   12.3050   43.1130 C.3   140  TYD140      0.0874
     16  C1'        7.0040   13.7310   43.6390 C.3   140  TYD140      0.2090
     17  N1         5.7180   14.4630   43.6170 N.am  140  TYD140     -0.1794
     18  C2         4.8360   14.3150   44.6570 C.1   140  TYD140      0.2844
     19  O2         5.0400   13.5750   45.6050 O.2   140  TYD140     -0.1918
     20  N3         3.6950   15.0690   44.5590 N.2   140  TYD140     -0.2455
     21  C4         3.3530   15.9350   43.5280 C.1   140  TYD140      0.2134
     22  O4         2.2970   16.5420   43.5890 O.2   140  TYD140     -0.2088
     23  C5         4.3270   16.0070   42.4960 C.2   140  TYD140      0.0891
     24  C5M        4.1270   16.9150   41.2820 C.3   140  TYD140      0.0462
     25  C6         5.4310   15.3070   42.5620 C.2   140  TYD140      0.0877
@<TRIPOS>BOND
     1     8     5    2
     2     6     5    1
     3     5     4    1
     4     5     7    1
     5     3     1    2
     6     4     1    1
     7     2     1    1
     8     1     9    1
     9     9    10    1
    10    10    11    1
    11    24    23    1
    12    11    13    1
    13    11    12    1
    14    13    15    1
    15    13    14    1
    16    23    25    2
    17    23    21    1
    18    25    17    1
    19    12    16    1
    20    15    16    1
    21    21    22    2
    22    21    20    2
    23    17    16    1
    24    17    18   am
    25    20    18    2
    26    18    19    2
