@<TRIPOS>MOLECULE
2pam_TYD_A_1.pdb
 25 26 0 0 0
SMALL
GASTEIGER

@<TRIPOS>ATOM
      1  PA        16.1560   22.0700   61.3960 P.3   140  TYD140      0.2231
      2  O1A       16.4490   23.2150   62.2920 O.3   140  TYD140     -0.4370
      3  O2A       14.9030   21.3910   61.7990 O.2   140  TYD140     -0.5169
      4  O3A       17.4300   21.0140   61.2690 O.3   140  TYD140     -0.2261
      5  PB        17.9760   19.8890   62.1980 P.3   140  TYD140      0.5373
      6  O1B       19.4490   20.0200   62.3710 O.3   140  TYD140     -0.1143
      7  O2B       17.6810   18.5720   61.5840 O.2   140  TYD140     -0.2221
      8  O3B       17.2790   20.0280   63.5120 O.3   140  TYD140     -0.1143
      9  O5'       16.2660   22.3890   59.8330 O.3   140  TYD140     -0.3111
     10  C5'       16.4520   21.2930   58.9190 C.3   140  TYD140      0.1812
     11  C4'       17.2810   21.7070   57.7210 C.3   140  TYD140      0.1773
     12  O4'       16.5880   22.7230   56.9740 O.3   140  TYD140     -0.3339
     13  C3'       18.7060   22.2150   57.9360 C.3   140  TYD140      0.1857
     14  O3'       19.6060   21.8940   56.8530 O.3   140  TYD140     -0.2203
     15  C2'       18.4500   23.7220   57.9730 C.3   140  TYD140      0.0874
     16  C1'       17.4140   23.8380   56.8890 C.3   140  TYD140      0.2090
     17  N1        16.5660   24.9900   57.0050 N.am  140  TYD140     -0.1794
     18  C2        16.7090   25.9070   56.0110 C.1   140  TYD140      0.2844
     19  O2        17.5220   25.7130   55.1240 O.2   140  TYD140     -0.1918
     20  N3        15.8810   26.9960   56.1150 N.2   140  TYD140     -0.2455
     21  C4        14.9410   27.2140   57.1190 C.1   140  TYD140      0.2134
     22  O4        14.2550   28.2220   57.0970 O.2   140  TYD140     -0.2088
     23  C5        14.8900   26.1940   58.1040 C.2   140  TYD140      0.0891
     24  C5M       13.9200   26.2790   59.2800 C.3   140  TYD140      0.0462
     25  C6        15.6670   25.1450   58.0360 C.2   140  TYD140      0.0877
@<TRIPOS>BOND
     1    19    18    2
     2    18    20    2
     3    18    17   am
     4    20    21    2
     5    14    13    1
     6    16    12    1
     7    16    17    1
     8    16    15    1
     9    12    11    1
    10    17    25    1
    11    22    21    2
    12    21    23    1
    13    11    13    1
    14    11    10    1
    15    13    15    1
    16    25    23    2
    17    23    24    1
    18    10     9    1
    19     9     1    1
    20     4     1    1
    21     4     5    1
    22     1     3    2
    23     1     2    1
    24     7     5    2
    25     5     6    1
    26     5     8    1
