@<TRIPOS>MOLECULE
2pan_TDP_A_1.pdb
 26 27 0 0 0
SMALL
GASTEIGER

@<TRIPOS>ATOM
      1  N1'      -37.5070   33.3580  -52.0560 N.2   801  TDP801     -0.1861
      2  C2'      -36.7890   34.4190  -52.5200 C.1   801  TDP801      0.0663
      3  C2A      -36.7680   34.7780  -53.9890 C.3   801  TDP801      0.1291
      4  N3'      -36.0660   35.1880  -51.6730 N.2   801  TDP801     -0.3368
      5  C4'      -36.0240   34.9280  -50.3490 C.2   801  TDP801      0.2292
      6  N4'      -35.2830   35.7490  -49.5690 N.pl3 801  TDP801     -0.0925
      7  C5'      -36.8080   33.7800  -49.8200 C.2   801  TDP801      0.0654
      8  C6'      -37.5250   33.0330  -50.7510 C.2   801  TDP801      0.1115
      9  C35      -36.8130   33.4340  -48.3410 C.3   801  TDP801      0.1237
     10  N3       -35.4060   33.1270  -48.0190 N.pl3 801  TDP801     -0.2970
     11  C2       -34.8850   33.6580  -46.8060 C.3   801  TDP801      0.1543
     12  S1       -33.3730   33.0470  -46.4030 S.3   801  TDP801     -0.0951
     13  C5       -33.9050   31.6620  -47.1850 C.2   801  TDP801      0.0164
     14  C4       -34.9930   31.7730  -47.9350 C.2   801  TDP801      0.0279
     15  C4A      -35.6510   30.6140  -48.6210 C.3   801  TDP801      0.0473
     16  C5A      -33.1470   30.3770  -47.0170 C.3   801  TDP801      0.0661
     17  C5B      -31.7880   30.4840  -47.6790 C.3   801  TDP801      0.1544
     18  O5G      -31.0290   29.3510  -47.3110 O.3   801  TDP801     -0.3134
     19  P1       -29.4620   29.3400  -47.6020 P.3   801  TDP801      0.2230
     20  O11      -28.8480   29.9280  -46.2200 O.3   801  TDP801     -0.2261
     21  O12      -29.0670   27.9020  -47.8410 O.3   801  TDP801     -0.4370
     22  O13      -29.1540   30.3320  -48.6740 O.2   801  TDP801     -0.5169
     23  P2       -29.0030   29.3280  -44.7210 P.3   801  TDP801      0.5373
     24  O21      -29.0720   27.8090  -44.7810 O.2   801  TDP801     -0.2221
     25  O22      -27.7370   29.8380  -44.0890 O.3   801  TDP801     -0.1143
     26  O23      -30.2410   29.9740  -44.1530 O.3   801  TDP801     -0.1143
@<TRIPOS>BOND
     1     3     2    1
     2     2     1    2
     3     2     4    2
     4     1     8    1
     5     4     5    2
     6     8     7    2
     7     5     7    1
     8     5     6    1
     9     7     9    1
    10    22    19    2
    11    15    14    1
    12     9    10    1
    13    10    14    1
    14    10    11    1
    15    14    13    2
    16    21    19    1
    17    17    18    1
    18    17    16    1
    19    19    18    1
    20    19    20    1
    21    13    16    1
    22    13    12    1
    23    11    12    1
    24    20    23    1
    25    24    23    2
    26    23    26    1
    27    23    25    1
