@<TRIPOS>MOLECULE
2par_TMP_A_1.pdb
 21 22 0 0 0
SMALL
GASTEIGER

@<TRIPOS>ATOM
      1  P        -21.5220   -8.3930    6.7390 P.3   301  TMP301      0.5327
      2  O1P      -22.9310   -8.2640    6.1470 O.3   301  TMP301     -0.1145
      3  O2P      -21.4390   -8.6770    8.2760 O.3   301  TMP301     -0.1145
      4  O3P      -20.6710   -9.3680    5.9670 O.2   301  TMP301     -0.2224
      5  O5'      -20.7740   -6.9410    6.6320 O.3   301  TMP301     -0.2675
      6  C5'      -21.1730   -5.8430    5.8040 C.3   301  TMP301      0.1858
      7  C4'      -20.3460   -4.5740    6.1100 C.3   301  TMP301      0.1774
      8  O4'      -20.7270   -4.1480    7.4100 O.3   301  TMP301     -0.3339
      9  C3'      -18.8330   -4.7440    6.1740 C.3   301  TMP301      0.1857
     10  O3'      -18.1240   -3.5970    5.7030 O.3   301  TMP301     -0.2203
     11  C2'      -18.4700   -4.8530    7.6530 C.3   301  TMP301      0.0874
     12  C1'      -19.5800   -4.0370    8.2900 C.3   301  TMP301      0.2090
     13  N1       -20.0170   -4.5000    9.6170 N.am  301  TMP301     -0.1794
     14  C2       -20.0810   -3.5440   10.6760 C.1   301  TMP301      0.2844
     15  O2       -19.6970   -2.3500   10.4970 O.2   301  TMP301     -0.1918
     16  N3       -20.5260   -3.9010   11.8890 N.2   301  TMP301     -0.2455
     17  C4       -20.9320   -5.1540   12.1210 C.1   301  TMP301      0.2134
     18  O4       -21.3020   -5.4850   13.2560 O.2   301  TMP301     -0.2088
     19  C5       -20.9060   -6.1690   11.0350 C.2   301  TMP301      0.0891
     20  C5M      -21.3770   -7.5930   11.3100 C.3   301  TMP301      0.0462
     21  C6       -20.4340   -5.7700    9.7980 C.2   301  TMP301      0.0877
@<TRIPOS>BOND
     1    10     9    1
     2     6     7    1
     3     6     5    1
     4     4     1    2
     5     7     9    1
     6     7     8    1
     7     2     1    1
     8     9    11    1
     9     5     1    1
    10     1     3    1
    11     8    12    1
    12    11    12    1
    13    12    13    1
    14    13    21    1
    15    13    14   am
    16    21    19    2
    17    15    14    2
    18    14    16    2
    19    19    20    1
    20    19    17    1
    21    16    17    2
    22    17    18    2
