@<TRIPOS>MOLECULE
2pau_D5M_A_1.pdb
 22 24 0 0 0
SMALL
GASTEIGER

@<TRIPOS>ATOM
      1  O5'      -20.6630    6.7550   30.2600 O.3   301  D5M301     -0.2675
      2  C5'      -21.2320    5.5010   30.5770 C.3   301  D5M301      0.1859
      3  C4'      -20.2530    4.3400   30.3840 C.3   301  D5M301      0.1796
      4  O4'      -20.6180    3.7400   29.1110 O.3   301  D5M301     -0.3155
      5  C3'      -18.7560    4.6200   30.2130 C.3   301  D5M301      0.1883
      6  O3'      -17.9960    3.5540   30.7570 O.3   301  D5M301     -0.2202
      7  C2'      -18.4980    4.5930   28.7120 C.3   301  D5M301      0.1151
      8  C1'      -19.4720    3.5270   28.2610 C.3   301  D5M301      0.2873
      9  N9       -19.8950    3.5520   26.7970 N.pl3 301  D5M301     -0.1460
     10  C8       -20.4390    4.5470   26.0640 C.3   301  D5M301      0.3377
     11  N7       -20.6860    4.0560   24.8140 N.2   301  D5M301     -0.2095
     12  C5       -20.3070    2.7480   24.7930 C.2   301  D5M301      0.2526
     13  C6       -20.3100    1.7450   23.8250 C.2   301  D5M301      0.4393
     14  N6       -20.7800    2.0230   22.5710 N.pl3 301  D5M301      0.2180
     15  N1       -19.8410    0.4940   24.1240 N.2   301  D5M301      0.0021
     16  C2       -19.3810    0.2110   25.3790 C.3   301  D5M301      0.5254
     17  N3       -19.3640    1.1720   26.3250 N.2   301  D5M301     -0.0055
     18  C4       -19.8250    2.4340   26.0510 C.2   301  D5M301      0.3518
     19  P        -21.4210    8.1490   29.8400 P.3   301  D5M301      0.5327
     20  O1P      -20.7850    9.2480   30.6820 O.3   301  D5M301     -0.1145
     21  O3P      -20.9570    8.2580   28.3980 O.2   301  D5M301     -0.2224
     22  O2P      -22.9100    7.9250   30.1060 O.3   301  D5M301     -0.1145
@<TRIPOS>BOND
     1    14    13    1
     2    13    15    2
     3    13    12    1
     4    15    16    1
     5    12    11    2
     6    12    18    1
     7    11    10    1
     8    16    17    1
     9    18    17    2
    10    18     9    1
    11    10     9    1
    12     9     8    1
    13     8     7    1
    14     8     4    1
    15    21    19    2
    16     7     5    1
    17     4     3    1
    18    19    22    1
    19    19     1    1
    20    19    20    1
    21     5     3    1
    22     5     6    1
    23     1     2    1
    24     3     2    1
