@<TRIPOS>MOLECULE
2pav_ATP_A_1.pdb
 31 33 0 0 0
SMALL
GASTEIGER

@<TRIPOS>ATOM
      1  PG         6.3050   17.6880   64.5340 P.3   602  ATP602      0.5373
      2  O1G        7.0990   16.7310   65.2320 O.3   602  ATP602     -0.1143
      3  O2G        5.6430   18.4720   65.3880 O.3   602  ATP602     -0.1143
      4  O3G        7.0420   18.3790   63.5640 O.2   602  ATP602     -0.2221
      5  PB         3.6780   17.0860   63.2410 P.3   602  ATP602      0.2277
      6  O1B        3.5110   16.5500   61.9750 O.2   602  ATP602     -0.5168
      7  O2B        3.2410   18.3320   63.5780 O.3   602  ATP602     -0.4368
      8  O3B        5.2080   16.8690   63.6460 O.3   602  ATP602     -0.2258
      9  PA         1.6240   15.9270   64.8200 P.3   602  ATP602      0.2189
     10  O1A        0.7390   16.4710   63.8800 O.2   602  ATP602     -0.5170
     11  O2A        1.4580   16.6140   66.0220 O.3   602  ATP602     -0.4371
     12  O3A        3.0850   15.9770   64.2730 O.3   602  ATP602     -0.2700
     13  O5'        1.3470   14.4200   65.1150 O.3   602  ATP602     -0.3112
     14  C5'        1.6780   13.4250   64.2030 C.3   602  ATP602      0.1813
     15  C4'        2.0810   12.1460   64.8970 C.3   602  ATP602      0.1821
     16  O4'        1.1790   11.7920   65.8790 O.3   602  ATP602     -0.3135
     17  C3'        2.2900   10.9270   64.0120 C.3   602  ATP602      0.2184
     18  O3'        3.5250   10.3660   64.2730 O.3   602  ATP602     -0.2174
     19  C2'        1.2070    9.9420   64.4100 C.3   602  ATP602      0.2570
     20  O2'        1.5760    8.5850   64.2480 O.3   602  ATP602     -0.2130
     21  C1'        1.0380   10.4050   65.8470 C.3   602  ATP602      0.3186
     22  N9        -0.2860   10.1010   66.3480 N.pl3 602  ATP602     -0.1439
     23  C8        -1.4260   10.5600   65.8960 C.3   602  ATP602      0.3377
     24  N7        -2.4240   10.0390   66.5980 N.2   602  ATP602     -0.2095
     25  C5        -1.8800    9.2660   67.5200 C.2   602  ATP602      0.2526
     26  C6        -2.3270    8.3950   68.5880 C.2   602  ATP602      0.4393
     27  N6        -3.6040    8.2990   68.7990 N.pl3 602  ATP602      0.2180
     28  N1        -1.4160    7.7520   69.3010 N.2   602  ATP602      0.0021
     29  C2        -0.1380    7.8820   69.0310 C.3   602  ATP602      0.5254
     30  N3         0.3370    8.6430   68.0980 N.2   602  ATP602     -0.0055
     31  C4        -0.4670    9.3250   67.3320 C.2   602  ATP602      0.3518
@<TRIPOS>BOND
     1     6     5    2
     2     5     7    1
     3     5     8    1
     4     5    12    1
     5     4     1    2
     6     8     1    1
     7    10     9    2
     8    17    18    1
     9    17    19    1
    10    17    15    1
    11    14    15    1
    12    14    13    1
    13    20    19    1
    14    12     9    1
    15    19    21    1
    16     1     2    1
    17     1     3    1
    18     9    13    1
    19     9    11    1
    20    15    16    1
    21    21    16    1
    22    21    22    1
    23    23    22    1
    24    23    24    1
    25    22    31    1
    26    24    25    2
    27    31    25    1
    28    31    30    2
    29    25    26    1
    30    30    29    1
    31    26    27    1
    32    26    28    2
    33    29    28    1
