@<TRIPOS>MOLECULE
2pax_4AN_A_1.pdb
 16 18 0 0 0
SMALL
GASTEIGER

@<TRIPOS>ATOM
      1  C1A       41.4240   23.8800   19.3220 C.1     1  4AN1        0.2150
      2  O1A       41.0650   24.2260   18.2080 O.2     1  4AN1       -0.2086
      3  C1        40.4280   23.1820   20.2560 C.ar    1  4AN1        0.0962
      4  C2        39.0960   22.9300   19.8540 C.ar    1  4AN1        0.0141
      5  C3        38.2050   22.2880   20.7320 C.ar    1  4AN1        0.0188
      6  C4        38.6180   21.8880   22.0130 C.ar    1  4AN1        0.0891
      7  N4        37.6600   21.2420   22.8470 N.pl3   1  4AN1       -0.1281
      8  C5        40.4240   21.7850   23.7120 C.ar    1  4AN1        0.0014
      9  C6        41.7510   22.0510   24.0930 C.ar    1  4AN1        0.0008
     10  C7        42.6340   22.6750   23.2100 C.ar    1  4AN1        0.0127
     11  C8        42.1910   23.0510   21.9350 C.ar    1  4AN1        0.0962
     12  C8A       43.1410   23.7250   20.9560 C.1     1  4AN1        0.2150
     13  O8A       44.3100   23.9230   21.2860 O.2     1  4AN1       -0.2086
     14  N9        42.6940   24.0920   19.7380 N.2     1  4AN1       -0.2576
     15  C9        40.8520   22.7910   21.5500 C.ar    1  4AN1        0.0252
     16  C10       39.9540   22.1470   22.4400 C.ar    1  4AN1        0.0182
@<TRIPOS>BOND
     1     2     1    2
     2     1    14    2
     3     1     3    1
     4    14    12    2
     5     4     3   ar
     6     4     5   ar
     7     3    15   ar
     8     5     6   ar
     9    12    13    2
    10    12    11    1
    11    15    11   ar
    12    15    16   ar
    13    11    10   ar
    14     6    16   ar
    15     6     7    1
    16    16     8   ar
    17    10     9   ar
    18     8     9   ar
