@<TRIPOS>MOLECULE
2pb0_PLP_A_1.pdb
 15 15 0 0 0
SMALL
GASTEIGER

@<TRIPOS>ATOM
      1  N1        64.3050   42.7230   41.9820 N.2   555  PLP555     -0.2458
      2  C2        65.1660   42.6950   43.0630 C.2   555  PLP555      0.0942
      3  C2A       64.6040   42.7360   44.4540 C.3   555  PLP555      0.0552
      4  C3        66.5470   42.6290   42.8570 C.2   555  PLP555      0.1899
      5  O3        67.3120   42.6030   43.8230 O.2   555  PLP555     -0.2898
      6  C4        67.0620   42.5880   41.5590 C.3   555  PLP555      0.0852
      7  C4A       68.5510   42.5140   41.3270 C.3   555  PLP555      0.0127
      8  C5        66.1780   42.6150   40.4750 C.2   555  PLP555      0.0118
      9  C6        64.8040   42.6840   40.6930 C.2   555  PLP555      0.0929
     10  C5A       66.6800   42.5880   39.0630 C.3   555  PLP555      0.1779
     11  O4P       66.9850   41.3380   38.4010 O.3   555  PLP555     -0.2656
     12  P         67.8330   41.3300   37.0310 P.3   555  PLP555      0.5329
     13  O1P       68.4210   39.9730   37.0170 O.3   555  PLP555     -0.1145
     14  O2P       66.8570   41.5630   35.9500 O.2   555  PLP555     -0.2224
     15  O3P       68.8060   42.4320   37.1950 O.3   555  PLP555     -0.1145
@<TRIPOS>BOND
     1    14    12    2
     2    13    12    1
     3    12    15    1
     4    12    11    1
     5    11    10    1
     6    10     8    1
     7     8     9    2
     8     8     6    1
     9     9     1    1
    10     7     6    1
    11     6     4    1
    12     1     2    2
    13     4     2    1
    14     4     5    2
    15     2     3    1
