@<TRIPOS>MOLECULE
2pb1_NFG_A_1.pdb
 24 25 0 0 0
SMALL
GASTEIGER

@<TRIPOS>ATOM
      1  C1        32.6310   43.6420   58.1870 C.3   402  NFG402      0.3242
      2  O1        32.7850   44.6650   59.1480 O.3   402  NFG402     -0.4486
      3  C2        33.2750   44.0430   56.8690 C.3   402  NFG402      0.2631
      4  F         32.5290   45.0290   56.2890 F     402  NFG402     -0.2276
      5  C3        33.3660   42.8460   55.9410 C.3   402  NFG402      0.2233
      6  O3        34.1450   43.1650   54.7730 O.3   402  NFG402     -0.2171
      7  C4        33.9990   41.6750   56.6800 C.3   402  NFG402      0.2147
      8  O4        33.8720   40.5250   55.8370 O.3   402  NFG402     -0.2176
      9  C5        33.3130   41.4240   58.0250 C.3   402  NFG402      0.1846
     10  C6        33.9900   40.3890   58.8980 C.3   402  NFG402      0.2142
     11  O6        33.1100   40.0930   60.0010 O.3   402  NFG402     -0.2176
     12  O5        33.3120   42.5850   58.8180 O.3   402  NFG402     -0.3155
     13  C11       31.7510   45.0070   59.9610 C.ar  402  NFG402      0.1638
     14  C12       31.6110   46.3470   60.2740 C.ar  402  NFG402      0.1783
     15  N1        32.5390   47.2770   59.7500 N.pl3 402  NFG402      0.0607
     16  O11       33.3420   47.8360   60.4950 O.2   402  NFG402     -0.1260
     17  O12       32.5550   47.5150   58.5440 O.2   402  NFG402     -0.1260
     18  C13       30.5610   46.7450   61.1010 C.ar  402  NFG402      0.0513
     19  C14       29.6620   45.7950   61.5990 C.ar  402  NFG402      0.1447
     20  N2        28.5950   46.1830   62.4260 N.pl3 402  NFG402      0.0577
     21  O21       28.0220   45.3570   63.1190 O.2   402  NFG402     -0.1261
     22  O22       28.2250   47.3510   62.4450 O.2   402  NFG402     -0.1261
     23  C15       29.8180   44.4520   61.2630 C.ar  402  NFG402      0.0273
     24  C16       30.8660   44.0520   60.4510 C.ar  402  NFG402      0.0404
@<TRIPOS>BOND
     1     6     5    1
     2     8     7    1
     3     5     7    1
     4     5     3    1
     5     4     3    1
     6     7     9    1
     7     3     1    1
     8     9    12    1
     9     9    10    1
    10     1    12    1
    11     1     2    1
    12    17    15    2
    13    10    11    1
    14     2    13    1
    15    15    14    1
    16    15    16    2
    17    13    14   ar
    18    13    24   ar
    19    14    18   ar
    20    24    23   ar
    21    18    19   ar
    22    23    19   ar
    23    19    20    1
    24    20    22    2
    25    20    21    2
