@<TRIPOS>MOLECULE
2pb1_G2F_A_1.pdb
 11 11 0 0 0
SMALL
GASTEIGER

@<TRIPOS>ATOM
      1  C1        34.1970   36.3380   57.7770 C.3   401  G2F401      0.1801
      2  C2        33.4160   35.8800   56.5590 C.3   401  G2F401      0.2230
      3  C3        34.3840   35.4570   55.4520 C.3   401  G2F401      0.2194
      4  C4        35.3700   36.6070   55.1570 C.3   401  G2F401      0.2144
      5  C5        36.0620   37.0680   56.4400 C.3   401  G2F401      0.1810
      6  C6        36.9080   38.3450   56.2710 C.3   401  G2F401      0.2141
      7  O3        33.6300   35.0160   54.3060 O.3   401  G2F401     -0.2173
      8  O4        36.3590   36.2420   54.1800 O.3   401  G2F401     -0.2176
      9  O5        35.0970   37.3620   57.4420 O.3   401  G2F401     -0.3479
     10  O6        36.1160   39.4740   55.8790 O.3   401  G2F401     -0.2176
     11  F2        32.6480   34.8080   56.8640 F     401  G2F401     -0.2317
@<TRIPOS>BOND
     1     8     4    1
     2     7     3    1
     3     4     3    1
     4     4     5    1
     5     3     2    1
     6    10     6    1
     7     6     5    1
     8     5     9    1
     9     2    11    1
    10     2     1    1
    11     9     1    1
