@<TRIPOS>MOLECULE
2pb2_PLP_A_1.pdb
 15 15 0 0 0
SMALL
GASTEIGER

@<TRIPOS>ATOM
      1  N1        64.3130   42.5420   41.8760 N.ar  1555  PLP1555    -0.2452
      2  C2        65.2990   42.6640   42.8370 C.ar  1555  PLP1555     0.0978
      3  C2A       64.9060   42.6590   44.2860 C.3   1555  PLP1555     0.0555
      4  C3        66.6380   42.7850   42.4530 C.ar  1555  PLP1555     0.2049
      5  O3        67.6090   43.0020   43.4000 O.3   1555  PLP1555    -0.2857
      6  C4        66.9740   42.7820   41.0960 C.ar  1555  PLP1555     0.0182
      7  C4A       68.3930   43.0600   40.6800 C.3   1555  PLP1555     0.0342
      8  C5        65.9660   42.6620   40.1330 C.ar  1555  PLP1555     0.0261
      9  C6        64.6390   42.5380   40.5330 C.ar  1555  PLP1555     0.0965
     10  C5A       66.2770   42.7030   38.6530 C.3   1555  PLP1555     0.1815
     11  O4P       66.8290   41.4630   38.2780 O.3   1555  PLP1555    -0.2653
     12  P         67.9240   41.3440   37.1030 P.3   1555  PLP1555     0.5329
     13  O1P       67.2410   41.5840   35.7780 O.2   1555  PLP1555    -0.2224
     14  O2P       68.5150   39.9530   37.1200 O.3   1555  PLP1555    -0.1145
     15  O3P       69.0130   42.3710   37.3160 O.3   1555  PLP1555    -0.1145
@<TRIPOS>BOND
     1    13    12    2
     2    12    14    1
     3    12    15    1
     4    12    11    1
     5    11    10    1
     6    10     8    1
     7     8     9   ar
     8     8     6   ar
     9     9     1   ar
    10     7     6    1
    11     6     4   ar
    12     1     2   ar
    13     4     2   ar
    14     4     5    1
    15     2     3    1
