@<TRIPOS>MOLECULE
2pb4_SAH_A_1.pdb
 26 28 0 0 0
SMALL
GASTEIGER

@<TRIPOS>ATOM
      1  N         33.7780   92.7140   67.4960 N.3   501  SAH501     -0.1208
      2  CA        32.3100   92.3100   67.4360 C.3   501  SAH501      0.1952
      3  CB        31.7150   91.6670   68.6520 C.3   501  SAH501      0.0422
      4  CG        32.3370   90.4030   69.2140 C.3   501  SAH501      0.0597
      5  SD        31.1050   89.6780   70.3720 S.3   501  SAH501     -0.1375
      6  C         31.4890   93.6140   67.0490 C.2   501  SAH501      0.3819
      7  O         32.1030   94.6900   66.8760 O.co2 501  SAH501     -0.2441
      8  OXT       30.2020   93.4640   66.9360 O.co2 501  SAH501     -0.2441
      9  C5'       30.2600   88.5090   69.3920 C.3   501  SAH501      0.0899
     10  C4'       28.7780   88.4050   69.9290 C.3   501  SAH501      0.1630
     11  O4'       28.1190   89.6670   69.6580 O.3   501  SAH501     -0.3153
     12  C3'       27.9530   87.3370   69.3090 C.3   501  SAH501      0.2168
     13  O3'       28.1180   86.1120   70.0030 O.3   501  SAH501     -0.2175
     14  C2'       26.5210   87.9400   69.3710 C.3   501  SAH501      0.2569
     15  O2'       25.8210   87.6660   70.5880 O.3   501  SAH501     -0.2130
     16  C1'       26.7400   89.4660   69.0800 C.3   501  SAH501      0.3185
     17  N9        26.6690   89.8480   67.7190 N.pl3 501  SAH501     -0.1439
     18  C8        27.6220   90.1310   66.7520 C.3   501  SAH501      0.3377
     19  N7        27.1470   90.4520   65.5860 N.2   501  SAH501     -0.2095
     20  C5        25.7310   90.3920   65.7460 C.2   501  SAH501      0.2526
     21  C6        24.6440   90.6340   64.8220 C.2   501  SAH501      0.4393
     22  N6        24.8080   90.9910   63.5380 N.pl3 501  SAH501      0.2180
     23  N1        23.3840   90.4720   65.3570 N.2   501  SAH501      0.0021
     24  C2        23.1550   90.1060   66.6460 C.3   501  SAH501      0.5254
     25  N3        24.1610   89.8650   67.5490 N.2   501  SAH501     -0.0055
     26  C4        25.4200   90.0210   67.0310 C.2   501  SAH501      0.3518
@<TRIPOS>BOND
     1    22    21    1
     2    21    23    2
     3    21    20    1
     4    23    24    1
     5    19    20    2
     6    19    18    1
     7    20    26    1
     8    24    25    1
     9    18    17    1
    10     7     6   ar
    11     8     6   ar
    12    26    25    2
    13    26    17    1
    14     6     2    1
    15     2     1    1
    16     2     3    1
    17    17    16    1
    18     3     4    1
    19    16    14    1
    20    16    11    1
    21     4     5    1
    22    12    14    1
    23    12    10    1
    24    12    13    1
    25    14    15    1
    26     9    10    1
    27     9     5    1
    28    11    10    1
