@<TRIPOS>MOLECULE
2pb5_SAH_A_1.pdb
 26 28 0 0 0
SMALL
GASTEIGER

@<TRIPOS>ATOM
      1  N         33.8900   93.0820   67.5060 N.3   501  SAH501     -0.1208
      2  CA        32.4380   92.6610   67.3780 C.3   501  SAH501      0.1952
      3  CB        31.7990   92.0150   68.5770 C.3   501  SAH501      0.0422
      4  CG        32.4360   90.7550   69.1600 C.3   501  SAH501      0.0597
      5  SD        31.2560   90.0590   70.3880 S.3   501  SAH501     -0.1375
      6  C         31.6270   93.9520   66.9400 C.2   501  SAH501      0.3819
      7  O         32.2410   95.0290   66.7950 O.co2 501  SAH501     -0.2441
      8  OXT       30.3520   93.7970   66.7550 O.co2 501  SAH501     -0.2441
      9  C5'       30.3740   88.8690   69.4620 C.3   501  SAH501      0.0899
     10  C4'       28.8790   88.8540   69.9730 C.3   501  SAH501      0.1630
     11  O4'       28.2960   90.1560   69.6960 O.3   501  SAH501     -0.3153
     12  C3'       27.9890   87.8470   69.3340 C.3   501  SAH501      0.2168
     13  O3'       28.0980   86.5830   69.9710 O.3   501  SAH501     -0.2175
     14  C2'       26.6000   88.5290   69.4600 C.3   501  SAH501      0.2569
     15  O2'       25.9620   88.3090   70.7220 O.3   501  SAH501     -0.2130
     16  C1'       26.8970   90.0340   69.1360 C.3   501  SAH501      0.3185
     17  N9        26.8320   90.3970   67.7670 N.pl3 501  SAH501     -0.1439
     18  C8        27.7970   90.6780   66.8100 C.3   501  SAH501      0.3377
     19  N7        27.3350   90.9740   65.6330 N.2   501  SAH501     -0.2095
     20  C5        25.9280   90.9000   65.7730 C.2   501  SAH501      0.2526
     21  C6        24.8680   91.1230   64.8260 C.2   501  SAH501      0.4393
     22  N6        25.0700   91.4630   63.5430 N.pl3 501  SAH501      0.2180
     23  N1        23.5990   90.9590   65.3310 N.2   501  SAH501      0.0021
     24  C2        23.3440   90.6080   66.6240 C.3   501  SAH501      0.5254
     25  N3        24.3320   90.3840   67.5530 N.2   501  SAH501     -0.0055
     26  C4        25.5970   90.5490   67.0590 C.2   501  SAH501      0.3518
@<TRIPOS>BOND
     1    22    21    1
     2    21    23    2
     3    21    20    1
     4    23    24    1
     5    19    20    2
     6    19    18    1
     7    20    26    1
     8    24    25    1
     9     8     6   ar
    10     7     6   ar
    11    18    17    1
    12     6     2    1
    13    26    25    2
    14    26    17    1
    15     2     1    1
    16     2     3    1
    17    17    16    1
    18     3     4    1
    19    16    14    1
    20    16    11    1
    21     4     5    1
    22    12    14    1
    23    12    13    1
    24    12    10    1
    25    14    15    1
    26     9    10    1
    27     9     5    1
    28    11    10    1
