@<TRIPOS>MOLECULE
2pb6_SAH_A_1.pdb
 26 28 0 0 0
SMALL
GASTEIGER

@<TRIPOS>ATOM
      1  N         33.8810   93.0550   67.5960 N.3   301  SAH301     -0.1208
      2  CA        32.4390   92.6010   67.4370 C.3   301  SAH301      0.1952
      3  CB        31.8050   91.9410   68.6280 C.3   301  SAH301      0.0422
      4  CG        32.4550   90.6910   69.2160 C.3   301  SAH301      0.0597
      5  SD        31.2610   89.9640   70.4160 S.3   301  SAH301     -0.1375
      6  C         31.6060   93.8790   67.0000 C.2   301  SAH301      0.3819
      7  O         32.1980   94.9660   66.8850 O.co2 301  SAH301     -0.2441
      8  OXT       30.3350   93.7010   66.7880 O.co2 301  SAH301     -0.2441
      9  C5'       30.3900   88.7850   69.4650 C.3   301  SAH301      0.0899
     10  C4'       28.9000   88.7240   69.9930 C.3   301  SAH301      0.1630
     11  O4'       28.2830   90.0140   69.7380 O.3   301  SAH301     -0.3153
     12  C3'       28.0350   87.6980   69.3510 C.3   301  SAH301      0.2168
     13  O3'       28.1630   86.4420   69.9980 O.3   301  SAH301     -0.2175
     14  C2'       26.6270   88.3480   69.4510 C.3   301  SAH301      0.2569
     15  O2'       25.9510   88.0930   70.6860 O.3   301  SAH301     -0.2130
     16  C1'       26.8960   89.8650   69.1580 C.3   301  SAH301      0.3185
     17  N9        26.8390   90.2460   67.7950 N.pl3 301  SAH301     -0.1439
     18  C8        27.8030   90.5270   66.8380 C.3   301  SAH301      0.3377
     19  N7        27.3400   90.8470   65.6680 N.2   301  SAH301     -0.2095
     20  C5        25.9250   90.7890   65.8120 C.2   301  SAH301      0.2526
     21  C6        24.8520   91.0330   64.8710 C.2   301  SAH301      0.4393
     22  N6        25.0400   91.3920   63.5900 N.pl3 301  SAH301      0.2180
     23  N1        23.5820   90.8720   65.3870 N.2   301  SAH301      0.0021
     24  C2        23.3390   90.5050   66.6730 C.3   301  SAH301      0.5254
     25  N3        24.3340   90.2650   67.5910 N.2   301  SAH301     -0.0055
     26  C4        25.5980   90.4160   67.0890 C.2   301  SAH301      0.3518
@<TRIPOS>BOND
     1    22    21    1
     2    21    23    2
     3    21    20    1
     4    23    24    1
     5    19    20    2
     6    19    18    1
     7    20    26    1
     8    24    25    1
     9     8     6   ar
    10    18    17    1
    11     7     6   ar
    12     6     2    1
    13    26    25    2
    14    26    17    1
    15     2     1    1
    16     2     3    1
    17    17    16    1
    18     3     4    1
    19    16    14    1
    20    16    11    1
    21     4     5    1
    22    12    14    1
    23    12    10    1
    24    12    13    1
    25    14    15    1
    26     9    10    1
    27     9     5    1
    28    11    10    1
