@<TRIPOS>MOLECULE
2pb8_III_P_1.pdb
 30 30 0 0 0
SMALL
GASTEIGER

@<TRIPOS>ATOM
      1  N          3.6670   14.2300   -9.4330 N.3     1  ALA1       -0.1231
      2  CA         3.9570   15.2570   -8.4860 C.3     1  ALA1        0.1694
      3  C          4.7420   16.4420   -9.0800 C.2     1  ALA1        0.2592
      4  O          5.8180   16.1960   -9.6440 O.2     1  ALA1       -0.2718
      5  CB         4.7300   14.6710   -7.3140 C.3     1  ALA1        0.0304
      6  N          4.3280   17.7080   -9.0120 N.am    2  VAL2       -0.1966
      7  CA         5.3420   18.7540   -9.3780 C.3     2  VAL2        0.1727
      8  C          4.9700   20.2330   -9.0090 C.2     2  VAL2        0.2616
      9  O          4.3790   20.9390   -9.8150 O.2     2  VAL2       -0.2715
     10  CB         5.8050   18.5710  -10.8660 C.3     2  VAL2        0.0290
     11  CG1        4.7730   19.1440  -11.8380 C.3     2  VAL2        0.0023
     12  CG2        7.1600   19.2280  -11.0830 C.3     2  VAL2        0.0023
     13  N          5.3690   20.6770   -7.7380 N.am    3  TYR3       -0.1960
     14  CA         5.1490   22.1170   -7.2750 C.3     3  TYR3        0.1771
     15  C          6.0350   22.9460   -8.1170 C.2     3  TYR3        0.2620
     16  O          6.1140   24.1590   -7.9260 O.2     3  TYR3       -0.2715
     17  CB         5.5390   22.4530   -5.7490 C.3     3  TYR3        0.0574
     18  CG         6.3950   23.7030   -5.2400 C.ar    3  TYR3       -0.0198
     19  CD1        5.9280   24.5040   -4.1880 C.ar    3  TYR3       -0.0009
     20  CD2        7.6500   24.0280   -5.7470 C.ar    3  TYR3       -0.0009
     21  CE1        6.6620   25.5580   -3.6380 C.ar    3  TYR3        0.0417
     22  CE2        8.4160   25.0880   -5.1800 C.ar    3  TYR3        0.0417
     23  CZ         7.9160   25.8510   -4.1130 C.ar    3  TYR3        0.1957
     24  OH         8.6550   26.8620   -3.5580 O.3     3  TYR3       -0.2866
     25  N          6.7150   22.3600   -9.0440 N.am    4  SER4       -0.1950
     26  CA         7.5950   23.1480   -9.9110 C.3     4  SER4        0.1924
     27  C          8.8860   23.5160   -9.1990 C.2     4  SER4        0.2314
     28  O          9.3390   24.6540   -9.2820 O.2     4  SER4       -0.2863
     29  CB         6.8690   24.3910  -10.3900 C.3     4  SER4        0.2116
     30  OG         5.7670   24.0650  -11.2170 O.3     4  SER4       -0.2180
@<TRIPOS>BOND
     1    11    10    1
     2    30    29    1
     3    12    10    1
     4    10     7    1
     5    29    26    1
     6    26    27    1
     7    26    25    1
     8     9     8    2
     9     4     3    2
    10     1     2    1
    11     7     6    1
    12     7     8    1
    13    28    27    2
    14     3     6   am
    15     3     2    1
    16    25    15   am
    17     8    13   am
    18     2     5    1
    19    15    16    2
    20    15    14    1
    21    13    14    1
    22    14    17    1
    23    17    18    1
    24    20    18   ar
    25    20    22   ar
    26    18    19   ar
    27    22    23   ar
    28    19    21   ar
    29    23    21   ar
    30    23    24    1
