@<TRIPOS>MOLECULE
2pbd_ATP_A_1.pdb
 31 33 0 0 0
SMALL
GASTEIGER

@<TRIPOS>ATOM
      1  PG         1.2480   25.7720   21.5720 P.3   1001  ATP1001     0.5373
      2  O1G        2.2810   26.8860   21.5760 O.3   1001  ATP1001    -0.1143
      3  O2G       -0.1890   26.2130   21.7670 O.3   1001  ATP1001    -0.1143
      4  O3G        1.3880   24.7600   20.4370 O.2   1001  ATP1001    -0.2221
      5  PB         0.7510   24.0840   23.9160 P.3   1001  ATP1001     0.2277
      6  O1B        1.4880   22.8840   24.3270 O.3   1001  ATP1001    -0.4368
      7  O2B       -0.6790   23.9080   23.3970 O.2   1001  ATP1001    -0.5168
      8  O3B        1.6050   24.8500   22.8290 O.3   1001  ATP1001    -0.2258
      9  PA        -0.2420   25.4110   26.3370 P.3   1001  ATP1001     0.2189
     10  O1A       -0.5810   24.0720   26.9130 O.3   1001  ATP1001    -0.4371
     11  O2A       -1.3430   26.3780   26.0480 O.2   1001  ATP1001    -0.5170
     12  O3A        0.7380   25.2270   25.0830 O.3   1001  ATP1001    -0.2700
     13  O5'        0.7020   26.2710   27.2920 O.3   1001  ATP1001    -0.3112
     14  C5'        1.8840   25.6740   27.8580 C.3   1001  ATP1001     0.1813
     15  C4'        2.7990   26.8700   28.2030 C.3   1001  ATP1001     0.1821
     16  O4'        2.1020   27.6370   29.2020 O.3   1001  ATP1001    -0.3135
     17  C3'        4.1750   26.4950   28.7920 C.3   1001  ATP1001     0.2184
     18  O3'        5.1810   27.3800   28.3350 O.3   1001  ATP1001    -0.2174
     19  C2'        3.9230   26.7280   30.2720 C.3   1001  ATP1001     0.2570
     20  O2'        5.1220   27.0220   31.0420 O.3   1001  ATP1001    -0.2130
     21  C1'        3.0210   27.9380   30.2630 C.3   1001  ATP1001     0.3186
     22  N9         2.2280   28.0610   31.4700 N.pl3 1001  ATP1001    -0.1439
     23  C8         1.4000   27.1370   32.0380 C.3   1001  ATP1001     0.3377
     24  N7         0.7830   27.6000   33.1600 N.2   1001  ATP1001    -0.2095
     25  C5         1.2380   28.8430   33.3410 C.2   1001  ATP1001     0.2526
     26  C6         1.0470   29.8810   34.3340 C.2   1001  ATP1001     0.4393
     27  N6         0.2020   29.6410   35.3620 N.pl3 1001  ATP1001     0.2180
     28  N1         1.7030   31.0110   34.1710 N.2   1001  ATP1001     0.0021
     29  C2         2.5100   31.2760   33.1190 C.3   1001  ATP1001     0.5254
     30  N3         2.7710   30.3720   32.1760 N.2   1001  ATP1001    -0.0055
     31  C4         2.1610   29.1710   32.2380 C.2   1001  ATP1001     0.3518
@<TRIPOS>BOND
     1     4     1    2
     2     1     2    1
     3     1     3    1
     4     1     8    1
     5     8     5    1
     6     7     5    2
     7     5     6    1
     8     5    12    1
     9    12     9    1
    10    11     9    2
    11     9    10    1
    12     9    13    1
    13    13    14    1
    14    14    15    1
    15    15    17    1
    16    15    16    1
    17    18    17    1
    18    17    19    1
    19    16    21    1
    20    21    19    1
    21    21    22    1
    22    19    20    1
    23    22    23    1
    24    22    31    1
    25    23    24    1
    26    30    31    2
    27    30    29    1
    28    31    25    1
    29    29    28    1
    30    24    25    2
    31    25    26    1
    32    28    26    2
    33    26    27    1
