@<TRIPOS>MOLECULE
2pbf_SAH_A_1.pdb
 26 28 0 0 0
SMALL
GASTEIGER

@<TRIPOS>ATOM
      1  N         27.6740   -0.3110   -4.5850 N.3   301  SAH301     -0.1208
      2  CA        28.7590    0.0010   -5.5500 C.3   301  SAH301      0.1952
      3  CB        28.6770   -0.9570   -6.7110 C.3   301  SAH301      0.0422
      4  CG        30.0160   -0.9630   -7.4360 C.3   301  SAH301      0.0597
      5  SD        30.0080   -2.0960   -8.8280 S.3   301  SAH301     -0.1375
      6  C         28.7410    1.4530   -6.0390 C.2   301  SAH301      0.3819
      7  O         27.6670    1.9540   -6.3790 O.co2 301  SAH301     -0.2441
      8  OXT       29.7950    2.1370   -6.0930 O.co2 301  SAH301     -0.2441
      9  C5'       30.2160   -3.6200   -7.8740 C.3   301  SAH301      0.0899
     10  C4'       31.5240   -3.7500   -7.0920 C.3   301  SAH301      0.1630
     11  O4'       31.6300   -5.0900   -6.7000 O.3   301  SAH301     -0.3153
     12  C3'       32.8120   -3.4260   -7.8360 C.3   301  SAH301      0.2168
     13  O3'       33.4870   -2.3800   -7.1560 O.3   301  SAH301     -0.2175
     14  C2'       33.6020   -4.7260   -7.8240 C.3   301  SAH301      0.2569
     15  O2'       34.9880   -4.5120   -7.6770 O.3   301  SAH301     -0.2130
     16  C1'       33.0060   -5.4260   -6.6200 C.3   301  SAH301      0.3185
     17  N9        33.0910   -6.9030   -6.6230 N.pl3 301  SAH301     -0.1439
     18  C8        32.9440   -7.7200   -7.7070 C.3   301  SAH301      0.3377
     19  N7        33.0370   -9.0010   -7.2820 N.2   301  SAH301     -0.2095
     20  C5        33.2670   -9.0210   -5.9500 C.2   301  SAH301      0.2526
     21  C6        33.4720  -10.0570   -5.0320 C.2   301  SAH301      0.4393
     22  N6        33.4700  -11.3360   -5.3840 N.pl3 301  SAH301      0.2180
     23  N1        33.6540   -9.7530   -3.7070 N.2   301  SAH301      0.0021
     24  C2        33.6680   -8.4330   -3.2980 C.3   301  SAH301      0.5254
     25  N3        33.4810   -7.4360   -4.2220 N.2   301  SAH301     -0.0055
     26  C4        33.2840   -7.7110   -5.5290 C.2   301  SAH301      0.3518
@<TRIPOS>BOND
     1     5     9    1
     2     5     4    1
     3     9    10    1
     4    12    14    1
     5    12    13    1
     6    12    10    1
     7    14    15    1
     8    14    16    1
     9    18    19    1
    10    18    17    1
    11     4     3    1
    12    19    20    2
    13    10    11    1
    14     3     2    1
    15    11    16    1
    16    17    16    1
    17    17    26    1
    18     7     6   ar
    19     8     6   ar
    20     6     2    1
    21    20    26    1
    22    20    21    1
    23     2     1    1
    24    26    25    2
    25    22    21    1
    26    21    23    2
    27    25    24    1
    28    23    24    1
