@<TRIPOS>MOLECULE
2pbj_GSH_A_1.pdb
 20 19 0 0 0
SMALL
GASTEIGER

@<TRIPOS>ATOM
      1  N1       -22.0850   45.3290   19.5940 N.3   477  GSH477     -0.1208
      2  CA1      -21.7020   46.6220   20.1540 C.3   477  GSH477      0.1948
      3  C1       -22.9100   47.4050   20.7130 C.2   477  GSH477      0.3819
      4  O11      -24.0430   47.0240   20.4160 O.co2 477  GSH477     -0.2441
      5  O12      -22.6540   48.4480   21.4890 O.co2 477  GSH477     -0.2441
      6  CB1      -21.0330   47.4180   19.0520 C.3   477  GSH477      0.0402
      7  CG1      -19.7710   48.1560   19.5500 C.3   477  GSH477      0.0889
      8  CD1      -19.1040   48.8140   18.3050 C.2   477  GSH477      0.2418
      9  OE1      -18.8870   48.1510   17.2860 O.2   477  GSH477     -0.2733
     10  N2       -18.7920   50.1250   18.4680 N.am  477  GSH477     -0.1968
     11  CA2      -17.8670   50.8070   17.5580 C.3   477  GSH477      0.1843
     12  C2       -16.6040   51.2170   18.3410 C.2   477  GSH477      0.2627
     13  O2       -16.6370   52.0180   19.2930 O.2   477  GSH477     -0.2714
     14  CB2      -18.4900   52.0840   16.9870 C.3   477  GSH477      0.0997
     15  SG2      -19.7550   51.7650   15.7070 S.3   477  GSH477     -0.0797
     16  N3       -15.4470   50.6510   17.9300 N.am  477  GSH477     -0.1917
     17  CA3      -14.4270   50.1620   18.8760 C.3   477  GSH477      0.2285
     18  C3       -13.7870   48.8850   18.3340 C.2   477  GSH477      0.3865
     19  O31      -12.5720   48.7280   18.5790 O.co2 477  GSH477     -0.2437
     20  O32      -14.5100   48.0650   17.6930 O.co2 477  GSH477     -0.2437
@<TRIPOS>BOND
     1    15    14    1
     2    14    11    1
     3     9     8    2
     4    11    12    1
     5    11    10    1
     6    20    18   ar
     7    16    12   am
     8    16    17    1
     9     8    10   am
    10     8     7    1
    11    18    19   ar
    12    18    17    1
    13    12    13    2
    14     6     7    1
    15     6     2    1
    16     1     2    1
    17     2     3    1
    18     4     3   ar
    19     3     5   ar
