@<TRIPOS>MOLECULE
2pbj_HEM_A_1.pdb
 43 50 0 0 0
SMALL
GASTEIGER

@<TRIPOS>ATOM
      1 FE        -18.5010   51.9110   13.3740 Fe    476  HEM476      0.0000
      2  CHA      -19.7890   48.9300   12.4460 C.2   476  HEM476      0.0000
      3  CHB      -20.9830   53.4520   11.6680 C.2   476  HEM476      0.0000
      4  CHC      -17.0940   54.9100   13.9680 C.2   476  HEM476      0.0000
      5  CHD      -15.7250   50.3620   14.5200 C.2   476  HEM476      0.0000
      6  NA       -20.0380   51.3260   12.3180 N.ar  476  HEM476      0.0000
      7  C1A      -20.4230   50.0300   12.0040 C.ar  476  HEM476      0.0000
      8  C2A      -21.5840   50.0240   11.1850 C.ar  476  HEM476      0.0000
      9  C3A      -21.9350   51.3130   10.9760 C.ar  476  HEM476      0.0000
     10  C4A      -20.9870   52.1120   11.6700 C.ar  476  HEM476      0.0000
     11  CMA      -23.1100   51.8200   10.1550 C.3   476  HEM476      0.0000
     12  CAA      -22.2950   48.7860   10.6430 C.3   476  HEM476      0.0000
     13  CBA      -21.8460   48.5130    9.1800 C.3   476  HEM476      0.0000
     14  CGA      -21.2210   47.1300    9.0190 C.2   476  HEM476      0.0000
     15  O1A      -20.8970   46.4600    9.9830 O.co2 476  HEM476      0.0000
     16  O2A      -21.0220   46.6430    7.7820 O.co2 476  HEM476      0.0000
     17  NB       -18.9920   53.7820   12.9980 N.2   476  HEM476      0.0000
     18  C1B      -20.0590   54.2300   12.3150 C.2   476  HEM476      0.0000
     19  C2B      -20.1870   55.6670   12.3800 C.2   476  HEM476      0.0000
     20  C3B      -19.1250   56.1320   13.0420 C.2   476  HEM476      0.0000
     21  C4B      -18.3180   54.8960   13.3830 C.2   476  HEM476      0.0000
     22  CMB      -21.3300   56.5030   11.8060 C.3   476  HEM476      0.0000
     23  CAB      -18.8720   57.5820   13.3340 C.2   476  HEM476      0.0000
     24  CBB      -17.8290   58.0490   13.9840 C.2   476  HEM476      0.0000
     25  NC       -16.7900   52.5060   14.1090 N.ar  476  HEM476      0.0000
     26  C1C      -16.3600   53.8070   14.2700 C.ar  476  HEM476      0.0000
     27  C2C      -15.0440   53.8480   14.8100 C.ar  476  HEM476      0.0000
     28  C3C      -14.6370   52.5490   14.9900 C.ar  476  HEM476      0.0000
     29  C4C      -15.7390   51.7190   14.5450 C.ar  476  HEM476      0.0000
     30  CMC      -14.2480   55.1100   15.1240 C.3   476  HEM476      0.0000
     31  CAC      -13.3180   52.0570   15.5270 C.2   476  HEM476      0.0000
     32  CBC      -12.8080   52.4790   16.6960 C.2   476  HEM476      0.0000
     33  ND       -17.9540   50.0510   13.5510 N.2   476  HEM476      0.0000
     34  C1D      -16.7910   49.5960   14.0700 C.2   476  HEM476      0.0000
     35  C2D      -16.8120   48.1020   14.1880 C.2   476  HEM476      0.0000
     36  C3D      -17.9620   47.7060   13.6550 C.2   476  HEM476      0.0000
     37  C4D      -18.6430   48.9460   13.1850 C.2   476  HEM476      0.0000
     38  CMD      -15.7380   47.2320   14.8080 C.3   476  HEM476      0.0000
     39  CAD      -18.4920   46.2840   13.5300 C.3   476  HEM476      0.0000
     40  CBD      -19.2440   45.8880   14.8200 C.3   476  HEM476      0.0000
     41  CGD      -19.9420   44.5540   14.6620 C.2   476  HEM476      0.0000
     42  O1D      -19.3260   43.5740   14.2820 O.co2 476  HEM476      0.0000
     43  O2D      -21.2520   44.4510   14.9560 O.co2 476  HEM476      0.0000
@<TRIPOS>BOND
     1    16    14   ar
     2    14    13    1
     3    14    15   ar
     4    13    12    1
     5    11     9    1
     6    12     8    1
     7     9     8   ar
     8     9    10   ar
     9     8     7   ar
    10     3    10    2
    11     3    18    1
    12    10     6   ar
    13    22    19    1
    14     7     6   ar
    15     7     2    2
    16    18    19    1
    17    18    17    2
    18     6     1    1
    19    19    20    2
    20     2    37    1
    21    17     1    1
    22    17    21    1
    23    20    23    1
    24    20    21    1
    25    37    33    2
    26    37    36    1
    27    23    24    2
    28     1    33    1
    29     1    25    1
    30    21     4    2
    31    39    36    1
    32    39    40    1
    33    33    34    1
    34    36    35    2
    35     4    26    1
    36    34    35    1
    37    34     5    2
    38    25    26   ar
    39    25    29   ar
    40    35    38    1
    41    26    27   ar
    42    42    41   ar
    43     5    29    1
    44    29    28   ar
    45    41    40    1
    46    41    43   ar
    47    27    28   ar
    48    27    30    1
    49    28    31    1
    50    31    32    2
