@<TRIPOS>MOLECULE
2pbw_DOQ_A_1.pdb
 22 22 0 0 0
SMALL
GASTEIGER

@<TRIPOS>ATOM
      1  OAD       -6.1740  -31.0290   81.8850 O.co2 401  DOQ401     -0.2453
      2  CAQ       -5.6640  -32.0940   82.2960 C.2   401  DOQ401      0.3683
      3  OAG       -5.0050  -32.2330   83.3500 O.co2 401  DOQ401     -0.2453
      4  CAS       -5.8400  -33.3360   81.4200 C.3   401  DOQ401      0.1253
      5  CAB       -6.9150  -34.2480   82.0140 C.3   401  DOQ401      0.0166
      6  CAK       -4.5030  -34.0760   81.3500 C.2   401  DOQ401     -0.0153
      7  CAI       -3.8360  -34.1580   80.1350 C.2   401  DOQ401     -0.0047
      8  CAJ       -2.6110  -34.8100   80.0470 C.2   401  DOQ401     -0.0088
      9  CAP       -1.9500  -34.8900   78.8260 C.2   401  DOQ401     -0.0428
     10  CAA       -0.5810  -35.5670   78.7530 C.3   401  DOQ401      0.0264
     11  CAT       -2.5670  -34.2740   77.5680 C.3   401  DOQ401      0.0382
     12  CAL       -1.5600  -34.1610   76.4250 C.3   401  DOQ401      0.0933
     13  N         -2.4070  -34.0110   75.2300 N.3   401  DOQ401     -0.2080
     14  CA        -3.7380  -34.5460   75.5630 C.3   401  DOQ401      0.1766
     15  C         -4.7620  -33.4080   75.5990 C.2   401  DOQ401      0.3803
     16  OXT       -4.4040  -32.3070   75.1300 O.co2 401  DOQ401     -0.2441
     17  O         -5.8850  -33.6650   76.0810 O.co2 401  DOQ401     -0.2441
     18  CB        -3.6030  -35.2050   76.9370 C.3   401  DOQ401      0.0434
     19  CG        -3.0160  -36.6140   76.8170 C.3   401  DOQ401      0.1164
     20  CD        -4.0540  -37.6130   76.3010 C.2   401  DOQ401      0.3649
     21  OE2       -5.2580  -37.3140   76.4550 O.co2 401  DOQ401     -0.2457
     22  OE1       -3.6200  -38.6610   75.7740 O.co2 401  DOQ401     -0.2457
@<TRIPOS>BOND
     1    16    15   ar
     2    13    14    1
     3    13    12    1
     4    14    15    1
     5    14    18    1
     6    15    17   ar
     7    22    20   ar
     8    20    21   ar
     9    20    19    1
    10    12    11    1
    11    19    18    1
    12    18    11    1
    13    11     9    1
    14    10     9    1
    15     9     8    2
    16     8     7    1
    17     7     6    2
    18     6     4    1
    19     4     5    1
    20     4     2    1
    21     1     2   ar
    22     2     3   ar
