@<TRIPOS>MOLECULE
2pbz_ATP_A_1.pdb
 31 33 0 0 0
SMALL
GASTEIGER

@<TRIPOS>ATOM
      1  PG        53.7870   47.4320   44.0390 P.3   400  ATP400      0.5373
      2  O1G       53.7350   46.1130   44.8000 O.3   400  ATP400     -0.1143
      3  O2G       54.5790   48.5470   44.9750 O.3   400  ATP400     -0.1143
      4  O3G       52.2690   47.9650   43.7190 O.2   400  ATP400     -0.2221
      5  PB        53.8330   46.1190   41.6730 P.3   400  ATP400      0.2277
      6  O1B       53.7820   44.8080   42.3640 O.3   400  ATP400     -0.4368
      7  O2B       52.3310   46.6270   41.3190 O.2   400  ATP400     -0.5168
      8  O3B       54.5880   47.2180   42.6250 O.3   400  ATP400     -0.2258
      9  PA        54.2620   45.0100   39.1280 P.3   400  ATP400      0.2189
     10  O1A       52.8990   45.2970   38.6250 O.2   400  ATP400     -0.5170
     11  O2A       54.3590   43.4900   39.6390 O.3   400  ATP400     -0.4371
     12  O3A       54.7350   46.0460   40.3330 O.3   400  ATP400     -0.2700
     13  O5'       55.3740   45.3160   38.0040 O.3   400  ATP400     -0.3112
     14  C5'       55.1320   44.6160   36.8220 C.3   400  ATP400      0.1813
     15  C4'       56.2460   45.0750   35.8900 C.3   400  ATP400      0.1821
     16  O4'       57.5740   44.7430   36.4150 O.3   400  ATP400     -0.3135
     17  C3'       56.1180   44.4730   34.4910 C.3   400  ATP400      0.2184
     18  O3'       55.9420   45.5080   33.5580 O.3   400  ATP400     -0.2174
     19  C2'       57.3920   43.6990   34.2370 C.3   400  ATP400      0.2570
     20  O2'       58.0950   44.2580   33.1110 O.3   400  ATP400     -0.2130
     21  C1'       58.2140   43.7850   35.5370 C.3   400  ATP400      0.3186
     22  N9        58.2440   42.4290   36.1310 N.pl3 400  ATP400     -0.1439
     23  C8        57.4860   41.9520   37.1820 C.3   400  ATP400      0.3377
     24  N7        57.7780   40.7190   37.4320 N.2   400  ATP400     -0.2095
     25  C5        58.7350   40.3060   36.5590 C.2   400  ATP400      0.2526
     26  C6        59.4540   39.0880   36.3440 C.2   400  ATP400      0.4393
     27  N6        59.1900   37.9770   37.1510 N.pl3 400  ATP400      0.2180
     28  N1        60.3860   39.0390   35.3290 N.2   400  ATP400      0.0021
     29  C2        60.6480   40.1040   34.5460 C.3   400  ATP400      0.5254
     30  N3        59.9950   41.2630   34.7290 N.2   400  ATP400     -0.0055
     31  C4        59.0570   41.4030   35.7130 C.2   400  ATP400      0.3518
@<TRIPOS>BOND
     1    20    19    1
     2    18    17    1
     3    19    17    1
     4    19    21    1
     5    17    15    1
     6    29    30    1
     7    29    28    1
     8    30    31    2
     9    28    26    2
    10    21    22    1
    11    21    16    1
    12    31    22    1
    13    31    25    1
    14    15    16    1
    15    15    14    1
    16    22    23    1
    17    26    25    1
    18    26    27    1
    19    25    24    2
    20    14    13    1
    21    23    24    1
    22    13     9    1
    23    10     9    2
    24     9    11    1
    25     9    12    1
    26    12     5    1
    27     7     5    2
    28     5     6    1
    29     5     8    1
    30     8     1    1
    31     4     1    2
    32     1     2    1
    33     1     3    1
