@<TRIPOS>MOLECULE
2pc2_PDC_A_1.pdb
 12 12 0 0 0
SMALL
GASTEIGER

@<TRIPOS>ATOM
      1  N1        15.7880   -5.1040    8.8430 N.2   302  PDC302     -0.3925
      2  C2        15.7390   -4.3460    7.7370 C.2   302  PDC302      0.1927
      3  C3        14.5190   -3.8890    7.2340 C.3   302  PDC302      0.0920
      4  C4        13.3360   -4.2320    7.8700 C.2   302  PDC302     -0.0156
      5  C5        13.4080   -5.0090    9.0150 C.2   302  PDC302      0.0347
      6  C6        14.6530   -5.4280    9.4790 C.2   302  PDC302      0.2102
      7  C7        17.0630   -4.0180    7.1290 C.2   302  PDC302      0.4130
      8  O1        18.0680   -4.4700    7.7120 O.co2 302  PDC302     -0.2380
      9  O2        17.1260   -3.3370    6.1020 O.co2 302  PDC302     -0.2380
     10  C8        14.8030   -6.2730   10.6920 C.2   302  PDC302      0.4168
     11  O3        13.7930   -6.6300   11.3220 O.co2 302  PDC302     -0.2377
     12  O4        15.9760   -6.5810   10.9860 O.co2 302  PDC302     -0.2377
@<TRIPOS>BOND
     1     9     7   ar
     2     7     8   ar
     3     7     2    1
     4     3     2    1
     5     3     4    1
     6     2     1    2
     7     4     5    2
     8     1     6    2
     9     5     6    1
    10     6    10    1
    11    10    12   ar
    12    10    11   ar
