@<TRIPOS>MOLECULE
2pc4_III_H_1.pdb
 31 32 0 0 0
SMALL
GASTEIGER

@<TRIPOS>ATOM
      1  N          9.2100  -22.4520   -7.0000 N.3   604  ASP604     -0.1225
      2  CA         8.2100  -23.3360   -7.6730 C.3   604  ASP604      0.1805
      3  C          7.0050  -23.6880   -6.7840 C.2   604  ASP604      0.2598
      4  O          6.0540  -24.3130   -7.2540 O.2   604  ASP604     -0.2718
      5  CB         8.8880  -24.6190   -8.1580 C.3   604  ASP604      0.1424
      6  CG         9.4180  -25.4680   -7.0160 C.2   604  ASP604      0.3668
      7  OD1       10.0080  -24.9010   -6.0710 O.co2 604  ASP604     -0.2456
      8  OD2        9.2460  -26.7030   -7.0660 O.co2 604  ASP604     -0.2456
      9  N          7.0590  -23.3040   -5.5070 N.am  605  TRP605     -0.1962
     10  CA         5.9290  -23.4500   -4.5810 C.3   605  TRP605      0.1768
     11  C          4.9690  -22.2900   -4.8600 C.2   605  TRP605      0.2620
     12  O          5.0240  -21.2490   -4.1970 O.2   605  TRP605     -0.2715
     13  CB         6.4380  -23.4300   -3.1290 C.3   605  TRP605      0.0553
     14  CG         5.4610  -23.9110   -2.0910 C.2   605  TRP605     -0.0136
     15  CD1        4.1130  -24.0600   -2.2320 C.2   605  TRP605      0.0907
     16  CD2        5.7610  -24.2680   -0.7340 C.3   605  TRP605      0.0819
     17  NE1        3.5590  -24.5050   -1.0570 N.2   605  TRP605     -0.2482
     18  CE2        4.5470  -24.6370   -0.1200 C.2   605  TRP605      0.0665
     19  CE3        6.9360  -24.3120    0.0190 C.2   605  TRP605     -0.0164
     20  CZ2        4.4750  -25.0500    1.2120 C.2   605  TRP605      0.0153
     21  CZ3        6.8620  -24.7230    1.3480 C.2   605  TRP605     -0.0038
     22  CH2        5.6400  -25.0870    1.9270 C.2   605  TRP605      0.0009
     23  N          4.0890  -22.4940   -5.8450 N.am  606  ASN606     -0.1936
     24  CA         3.4080  -21.4010   -6.5600 C.3   606  ASN606      0.2069
     25  C          4.4200  -20.3820   -7.0930 C.2   606  ASN606      0.3847
     26  O          5.0660  -20.6390   -8.1080 O.co2 606  ASN606     -0.2437
     27  CB         2.3290  -20.7220   -5.6980 C.3   606  ASN606      0.1217
     28  CG         0.9530  -21.3480   -5.8750 C.2   606  ASN606      0.2631
     29  OD1       -0.0580  -20.6430   -5.9440 O.2   606  ASN606     -0.2716
     30  ND2        0.9080  -22.6740   -5.9490 N.am  606  ASN606     -0.0877
     31  OXT        4.6380  -19.3030   -6.5340 O.co2 606  ASN606     -0.2437
@<TRIPOS>BOND
     1     5     2    1
     2     5     6    1
     3    26    25   ar
     4     2     1    1
     5     2     3    1
     6     4     3    2
     7    25    24    1
     8    25    31   ar
     9     8     6   ar
    10     6     7   ar
    11     3     9   am
    12    24    23    1
    13    24    27    1
    14    30    28   am
    15    29    28    2
    16    28    27    1
    17    23    11   am
    18     9    10    1
    19    11    10    1
    20    11    12    2
    21    10    13    1
    22    13    14    1
    23    15    14    2
    24    15    17    1
    25    14    16    1
    26    17    18    2
    27    16    18    1
    28    16    19    1
    29    18    20    1
    30    19    21    2
    31    20    22    2
    32    21    22    1
