@<TRIPOS>MOLECULE
2pc8_BGC_A_1.pdb
 12 12 0 0 0
SMALL
GASTEIGER

@<TRIPOS>ATOM
      1  C2        22.9880   23.0220   76.5390 C.3   401  BGC401      0.2434
      2  C3        23.6400   23.9390   75.4930 C.3   401  BGC401      0.2199
      3  C4        24.3550   25.1190   76.1580 C.3   401  BGC401      0.2144
      4  C5        25.3060   24.5980   77.2500 C.3   401  BGC401      0.1836
      5  C6        26.0130   25.7170   78.0140 C.3   401  BGC401      0.2142
      6  C1        24.0330   22.6130   77.5770 C.3   401  BGC401      0.3024
      7  O1        23.4180   21.8080   78.5660 O.3   401  BGC401     -0.1869
      8  O2        22.4640   21.8580   75.9280 O.3   401  BGC401     -0.2148
      9  O3        22.6950   24.3850   74.5520 O.3   401  BGC401     -0.2174
     10  O4        25.0530   25.9290   75.2040 O.3   401  BGC401     -0.2176
     11  O5        24.6210   23.7570   78.1780 O.3   401  BGC401     -0.3236
     12  O6        25.0900   26.4130   78.8160 O.3   401  BGC401     -0.2176
@<TRIPOS>BOND
     1     9     2    1
     2    10     3    1
     3     2     3    1
     4     2     1    1
     5     8     1    1
     6     3     4    1
     7     1     6    1
     8     4     5    1
     9     4    11    1
    10     6    11    1
    11     6     7    1
    12     5    12    1
