@<TRIPOS>MOLECULE
2pca_SAH_A_1.pdb
 26 28 0 0 0
SMALL
GASTEIGER

@<TRIPOS>ATOM
      1  N         33.9050   93.1070   67.8150 N.3   501  SAH501     -0.1208
      2  CA        32.4480   92.6770   67.7060 C.3   501  SAH501      0.1952
      3  CB        31.8170   92.0160   68.9080 C.3   501  SAH501      0.0422
      4  CG        32.4500   90.7450   69.4800 C.3   501  SAH501      0.0597
      5  SD        31.2820   90.0270   70.7240 S.3   501  SAH501     -0.1375
      6  C         31.6430   93.9740   67.2830 C.2   501  SAH501      0.3819
      7  O         32.2650   95.0480   67.1360 O.co2 501  SAH501     -0.2441
      8  OXT       30.3680   93.8280   67.1150 O.co2 501  SAH501     -0.2441
      9  C5'       30.3520   88.9390   69.7100 C.3   501  SAH501      0.0899
     10  C4'       28.8660   88.8860   70.2450 C.3   501  SAH501      0.1630
     11  O4'       28.2830   90.1820   69.9870 O.3   501  SAH501     -0.3153
     12  C3'       27.9740   87.8850   69.5970 C.3   501  SAH501      0.2168
     13  O3'       28.0690   86.6270   70.2530 O.3   501  SAH501     -0.2175
     14  C2'       26.5980   88.5730   69.7150 C.3   501  SAH501      0.2569
     15  O2'       25.9930   88.3460   71.0030 O.3   501  SAH501     -0.2130
     16  C1'       26.9060   90.0540   69.4210 C.3   501  SAH501      0.3185
     17  N9        26.8930   90.3920   68.1120 N.pl3 501  SAH501     -0.1439
     18  C8        27.8690   90.6580   67.1670 C.3   501  SAH501      0.3377
     19  N7        27.4250   90.9600   65.9860 N.2   501  SAH501     -0.2095
     20  C5        26.0120   90.9040   66.1140 C.2   501  SAH501      0.2526
     21  C6        24.9560   91.1420   65.1620 C.2   501  SAH501      0.4393
     22  N6        25.1630   91.4850   63.8780 N.pl3 501  SAH501      0.2180
     23  N1        23.6850   90.9890   65.6610 N.2   501  SAH501      0.0021
     24  C2        23.4190   90.6410   66.9520 C.3   501  SAH501      0.5254
     25  N3        24.4010   90.4080   67.8870 N.2   501  SAH501     -0.0055
     26  C4        25.6680   90.5580   67.3980 C.2   501  SAH501      0.3518
@<TRIPOS>BOND
     1    22    21    1
     2    21    23    2
     3    21    20    1
     4    23    24    1
     5    19    20    2
     6    19    18    1
     7    20    26    1
     8    24    25    1
     9     8     6   ar
    10     7     6   ar
    11    18    17    1
    12     6     2    1
    13    26    25    2
    14    26    17    1
    15     2     1    1
    16     2     3    1
    17    17    16    1
    18     3     4    1
    19    16    14    1
    20    16    11    1
    21     4     5    1
    22    12    14    1
    23    12    10    1
    24    12    13    1
    25     9    10    1
    26     9     5    1
    27    14    15    1
    28    11    10    1
