@<TRIPOS>MOLECULE
2pcb_HEM_A_1.pdb
 43 50 0 0 0
SMALL
GASTEIGER

@<TRIPOS>ATOM
      1 FE         37.4570   24.6320   43.3960 Fe    295  HEM295      0.0000
      2  CHA       35.0860   27.1120   43.1930 C.2   295  HEM295      0.0000
      3  CHB       35.1060   22.2600   42.9000 C.2   295  HEM295      0.0000
      4  CHC       39.9100   22.2270   43.0490 C.2   295  HEM295      0.0000
      5  CHD       39.9370   27.0500   43.3600 C.2   295  HEM295      0.0000
      6  NA        35.4980   24.6730   43.0920 N.ar  295  HEM295      0.0000
      7  C1A       34.6790   25.8010   43.0460 C.ar  295  HEM295      0.0000
      8  C2A       33.3080   25.3740   42.7920 C.ar  295  HEM295      0.0000
      9  C3A       33.2890   24.0440   42.6660 C.ar  295  HEM295      0.0000
     10  C4A       34.6590   23.5820   42.8690 C.ar  295  HEM295      0.0000
     11  CMA       32.0800   23.1510   42.3770 C.3   295  HEM295      0.0000
     12  CAA       32.1510   26.3770   42.6380 C.3   295  HEM295      0.0000
     13  CBA       31.6830   26.6450   41.1740 C.3   295  HEM295      0.0000
     14  CGA       30.7810   27.8820   41.1520 C.2   295  HEM295      0.0000
     15  O1A       29.7620   27.6950   41.8710 O.co2 295  HEM295      0.0000
     16  O2A       31.1820   28.8940   40.5390 O.co2 295  HEM295      0.0000
     17  NB        37.5070   22.6570   42.9810 N.2   295  HEM295      0.0000
     18  C1B       36.3970   21.8080   43.0510 C.2   295  HEM295      0.0000
     19  C2B       36.8450   20.4450   43.2150 C.2   295  HEM295      0.0000
     20  C3B       38.1920   20.4560   43.2490 C.2   295  HEM295      0.0000
     21  C4B       38.6130   21.8270   43.0960 C.2   295  HEM295      0.0000
     22  CMB       35.9250   19.2240   43.2710 C.3   295  HEM295      0.0000
     23  CAB       39.1660   19.2610   43.3570 C.2   295  HEM295      0.0000
     24  CBB       39.4510   18.6910   44.5450 C.2   295  HEM295      0.0000
     25  NC        39.4830   24.6270   43.2640 N.ar  295  HEM295      0.0000
     26  C1C       40.2990   23.5410   43.0270 C.ar  295  HEM295      0.0000
     27  C2C       41.6690   23.9840   42.8820 C.ar  295  HEM295      0.0000
     28  C3C       41.6900   25.3210   42.9820 C.ar  295  HEM295      0.0000
     29  C4C       40.3290   25.7290   43.2190 C.ar  295  HEM295      0.0000
     30  CMC       42.8380   22.9970   42.6420 C.3   295  HEM295      0.0000
     31  CAC       42.8280   26.3200   42.8710 C.2   295  HEM295      0.0000
     32  CBC       44.0210   26.1490   42.3620 C.2   295  HEM295      0.0000
     33  ND        37.5170   26.6470   43.1720 N.2   295  HEM295      0.0000
     34  C1D       38.6220   27.4640   43.4050 C.2   295  HEM295      0.0000
     35  C2D       38.2280   28.8300   43.6640 C.2   295  HEM295      0.0000
     36  C3D       36.9010   28.8240   43.6170 C.2   295  HEM295      0.0000
     37  C4D       36.4200   27.4870   43.2880 C.2   295  HEM295      0.0000
     38  CMD       39.1750   29.9720   43.9710 C.3   295  HEM295      0.0000
     39  CAD       35.9160   30.0210   43.7770 C.3   295  HEM295      0.0000
     40  CBD       35.2870   30.3980   42.4010 C.3   295  HEM295      0.0000
     41  CGD       34.4400   31.6290   42.3720 C.2   295  HEM295      0.0000
     42  O1D       33.9820   31.9700   41.2340 O.co2 295  HEM295      0.0000
     43  O2D       34.3150   32.1950   43.4720 O.co2 295  HEM295      0.0000
@<TRIPOS>BOND
     1    16    14   ar
     2    14    13    1
     3    14    15   ar
     4    13    12    1
     5    42    41   ar
     6    32    31    2
     7    41    40    1
     8    41    43   ar
     9    11     9    1
    10    40    39    1
    11    12     8    1
    12    30    27    1
    13     9     8   ar
    14     9    10   ar
    15     8     7   ar
    16    10     3    2
    17    10     6   ar
    18    31    28    1
    19    27    28   ar
    20    27    26   ar
    21     3    18    1
    22    17    18    2
    23    17    21    1
    24    17     1    1
    25    28    29   ar
    26    26     4    1
    27    26    25   ar
    28     7     6   ar
    29     7     2    2
    30     4    21    2
    31    18    19    1
    32     6     1    1
    33    21    20    1
    34    33    37    2
    35    33     1    1
    36    33    34    1
    37     2    37    1
    38    19    20    2
    39    19    22    1
    40    29    25   ar
    41    29     5    1
    42    20    23    1
    43    25     1    1
    44    37    36    1
    45    23    24    2
    46     5    34    2
    47    34    35    1
    48    36    35    2
    49    36    39    1
    50    35    38    1
