@<TRIPOS>MOLECULE
2pcc_HEM_A_1.pdb
 43 50 0 0 0
SMALL
GASTEIGER

@<TRIPOS>ATOM
      1 FE         -1.6790   33.0210   18.6400 Fe    296  HEM296      0.0000
      2  CHA       -0.5100   33.4310   21.8670 C.2   296  HEM296      0.0000
      3  CHB       -4.8350   33.7110   19.6800 C.2   296  HEM296      0.0000
      4  CHC       -2.8610   32.9550   15.3580 C.2   296  HEM296      0.0000
      5  CHD        1.5250   33.0750   17.5110 C.2   296  HEM296      0.0000
      6  NA        -2.5020   33.4140   20.3690 N.2   296  HEM296      0.0000
      7  C1A       -1.8440   33.5770   21.5960 C.2   296  HEM296      0.0000
      8  C2A       -2.8360   33.8720   22.6130 C.2   296  HEM296      0.0000
      9  C3A       -4.0130   33.9910   22.0430 C.2   296  HEM296      0.0000
     10  C4A       -3.8350   33.7000   20.6320 C.2   296  HEM296      0.0000
     11  CMA       -5.4170   34.3100   22.6600 C.3   296  HEM296      0.0000
     12  CAA       -2.3700   34.1140   24.0890 C.2   296  HEM296      0.0000
     13  CBA       -2.1920   35.5550   24.4950 C.2   296  HEM296      0.0000
     14  CGA       -1.6150   35.7890   25.8580 C.2   296  HEM296      0.0000
     15  O1A       -2.1740   35.4020   26.9140 O.co2 296  HEM296      0.0000
     16  O2A       -0.5270   36.4230   25.8760 O.co2 296  HEM296      0.0000
     17  NB        -3.5320   33.3080   17.6870 N.ar  296  HEM296      0.0000
     18  C1B       -4.7140   33.5710   18.3030 C.ar  296  HEM296      0.0000
     19  C2B       -5.8030   33.5180   17.3170 C.ar  296  HEM296      0.0000
     20  C3B       -5.2640   33.3120   16.1530 C.ar  296  HEM296      0.0000
     21  C4B       -3.8370   33.2020   16.3420 C.ar  296  HEM296      0.0000
     22  CMB       -7.2970   33.6940   17.7450 C.3   296  HEM296      0.0000
     23  CAB       -5.9450   33.1840   14.7630 C.2   296  HEM296      0.0000
     24  CBB       -7.0530   32.4980   14.5700 C.2   296  HEM296      0.0000
     25  NC        -0.8530   33.0520   16.8550 N.2   296  HEM296      0.0000
     26  C1C       -1.4660   32.9830   15.5900 C.2   296  HEM296      0.0000
     27  C2C       -0.4770   32.9920   14.5380 C.2   296  HEM296      0.0000
     28  C3C        0.7500   33.0240   15.0920 C.2   296  HEM296      0.0000
     29  C4C        0.5300   33.0860   16.5620 C.2   296  HEM296      0.0000
     30  CMC       -0.8520   32.9840   13.0500 C.3   296  HEM296      0.0000
     31  CAC        2.0950   33.0970   14.5190 C.2   296  HEM296      0.0000
     32  CBC        2.8320   32.9970   13.4940 C.2   296  HEM296      0.0000
     33  ND         0.1600   33.2800   19.5420 N.ar  296  HEM296      0.0000
     34  C1D        1.3600   33.0070   18.8840 C.ar  296  HEM296      0.0000
     35  C2D        2.3980   32.7450   19.9020 C.ar  296  HEM296      0.0000
     36  C3D        1.8210   32.8850   21.0730 C.ar  296  HEM296      0.0000
     37  C4D        0.4360   33.2600   20.8750 C.ar  296  HEM296      0.0000
     38  CMD        3.8610   32.4410   19.5020 C.3   296  HEM296      0.0000
     39  CAD        2.4720   32.7600   22.4830 C.3   296  HEM296      0.0000
     40  CBD        2.8810   34.1440   23.0790 C.3   296  HEM296      0.0000
     41  CGD        3.4690   34.1250   24.4640 C.2   296  HEM296      0.0000
     42  O1D        3.4830   35.2240   25.0670 O.co2 296  HEM296      0.0000
     43  O2D        3.9380   33.0370   24.8580 O.co2 296  HEM296      0.0000
@<TRIPOS>BOND
     1    30    27    1
     2    32    31    2
     3    31    28    1
     4    27    28    2
     5    27    26    1
     6    24    23    2
     7    23    20    1
     8    28    29    1
     9     4    26    2
    10     4    21    1
    11    26    25    1
    12    20    21   ar
    13    20    19   ar
    14    21    17   ar
    15    29    25    2
    16    29     5    1
    17    25     1    1
    18    19    22    1
    19    19    18   ar
    20     5    34    2
    21    17    18   ar
    22    17     1    1
    23    18     3    1
    24     1    33    1
    25     1     6    1
    26    34    33   ar
    27    34    35   ar
    28    38    35    1
    29    33    37   ar
    30     3    10    2
    31    35    36   ar
    32     6    10    1
    33     6     7    2
    34    10     9    1
    35    37    36   ar
    36    37     2    2
    37    36    39    1
    38     7     2    1
    39     7     8    1
    40     9     8    2
    41     9    11    1
    42    39    40    1
    43     8    12    1
    44    40    41    1
    45    12    13    2
    46    41    43   ar
    47    41    42   ar
    48    13    14    1
    49    14    16   ar
    50    14    15   ar
