@<TRIPOS>MOLECULE
2pcg_SAH_A_1.pdb
 26 28 0 0 0
SMALL
GASTEIGER

@<TRIPOS>ATOM
      1  N         33.7900   92.7890   66.9640 N.3   501  SAH501     -0.1208
      2  CA        32.3400   92.3700   66.8490 C.3   501  SAH501      0.1952
      3  CB        31.7060   91.7080   68.0380 C.3   501  SAH501      0.0422
      4  CG        32.3270   90.4410   68.6000 C.3   501  SAH501      0.0597
      5  SD        31.1450   89.7590   69.8400 S.3   501  SAH501     -0.1375
      6  C         31.5460   93.6700   66.4310 C.2   501  SAH501      0.3819
      7  O         32.1780   94.7320   66.2870 O.co2 501  SAH501     -0.2441
      8  OXT       30.2680   93.5380   66.2580 O.co2 501  SAH501     -0.2441
      9  C5'       30.2240   88.6780   68.8200 C.3   501  SAH501      0.0899
     10  C4'       28.7470   88.5800   69.3720 C.3   501  SAH501      0.1630
     11  O4'       28.1220   89.8630   69.1470 O.3   501  SAH501     -0.3153
     12  C3'       27.8790   87.5620   68.7100 C.3   501  SAH501      0.2168
     13  O3'       28.0000   86.3150   69.3620 O.3   501  SAH501     -0.2175
     14  C2'       26.4870   88.2170   68.8240 C.3   501  SAH501      0.2569
     15  O2'       25.8820   87.9730   70.1010 O.3   501  SAH501     -0.2130
     16  C1'       26.7610   89.6980   68.5510 C.3   501  SAH501      0.3185
     17  N9        26.7510   90.0530   67.2490 N.pl3 501  SAH501     -0.1439
     18  C8        27.7230   90.3270   66.2980 C.3   501  SAH501      0.3377
     19  N7        27.2700   90.6530   65.1250 N.2   501  SAH501     -0.2095
     20  C5        25.8580   90.6050   65.2710 C.2   501  SAH501      0.2526
     21  C6        24.8010   90.8680   64.3390 C.2   501  SAH501      0.4393
     22  N6        25.0050   91.2320   63.0640 N.pl3 501  SAH501      0.2180
     23  N1        23.5320   90.7210   64.8460 N.2   501  SAH501      0.0021
     24  C2        23.2740   90.3480   66.1320 C.3   501  SAH501      0.5254
     25  N3        24.2570   90.0880   67.0520 N.2   501  SAH501     -0.0055
     26  C4        25.5230   90.2390   66.5510 C.2   501  SAH501      0.3518
@<TRIPOS>BOND
     1    22    21    1
     2    21    23    2
     3    21    20    1
     4    23    24    1
     5    19    20    2
     6    19    18    1
     7    20    26    1
     8    24    25    1
     9     8     6   ar
    10     7     6   ar
    11    18    17    1
    12     6     2    1
    13    26    25    2
    14    26    17    1
    15     2     1    1
    16     2     3    1
    17    17    16    1
    18     3     4    1
    19    16    14    1
    20    16    11    1
    21     4     5    1
    22    12    14    1
    23    12    13    1
    24    12    10    1
    25     9    10    1
    26     9     5    1
    27    14    15    1
    28    11    10    1
