@<TRIPOS>MOLECULE
2pch_SAH_A_1.pdb
 26 28 0 0 0
SMALL
GASTEIGER

@<TRIPOS>ATOM
      1  N         33.9220   93.2550   66.9400 N.3   1301  SAH1301    -0.1208
      2  CA        32.4760   92.8120   66.7410 C.3   1301  SAH1301     0.1952
      3  CB        31.8080   92.0840   67.8660 C.3   1301  SAH1301     0.0422
      4  CG        32.4210   90.8060   68.4040 C.3   1301  SAH1301     0.0597
      5  SD        31.2250   90.1360   69.6310 S.3   1301  SAH1301    -0.1375
      6  C         31.6500   94.1150   66.3610 C.2   1301  SAH1301     0.3819
      7  O         32.2520   95.2070   66.3000 O.co2 1301  SAH1301    -0.2441
      8  OXT       30.3740   93.9460   66.1330 O.co2 1301  SAH1301    -0.2441
      9  C5'       30.3200   89.0230   68.6280 C.3   1301  SAH1301     0.0899
     10  C4'       28.8350   88.9390   69.1670 C.3   1301  SAH1301     0.1630
     11  O4'       28.2150   90.2250   68.9270 O.3   1301  SAH1301    -0.3153
     12  C3'       27.9720   87.9150   68.5120 C.3   1301  SAH1301     0.2168
     13  O3'       28.0870   86.6680   69.1840 O.3   1301  SAH1301    -0.2175
     14  C2'       26.5750   88.5700   68.6040 C.3   1301  SAH1301     0.2569
     15  O2'       25.9480   88.3120   69.8680 O.3   1301  SAH1301    -0.2130
     16  C1'       26.8500   90.0600   68.3380 C.3   1301  SAH1301     0.3185
     17  N9        26.8320   90.4170   67.0340 N.pl3 1301  SAH1301    -0.1439
     18  C8        27.7990   90.6990   66.0830 C.3   1301  SAH1301     0.3377
     19  N7        27.3440   91.0210   64.9100 N.2   1301  SAH1301    -0.2095
     20  C5        25.9270   90.9620   65.0520 C.2   1301  SAH1301     0.2526
     21  C6        24.8600   91.2140   64.1140 C.2   1301  SAH1301     0.4393
     22  N6        25.0550   91.5750   62.8380 N.pl3 1301  SAH1301     0.2180
     23  N1        23.5890   91.0540   64.6240 N.2   1301  SAH1301     0.0021
     24  C2        23.3380   90.6860   65.9120 C.3   1301  SAH1301     0.5254
     25  N3        24.3320   90.4370   66.8320 N.2   1301  SAH1301    -0.0055
     26  C4        25.5960   90.5960   66.3330 C.2   1301  SAH1301     0.3518
@<TRIPOS>BOND
     1    22    21    1
     2    21    23    2
     3    21    20    1
     4    23    24    1
     5    19    20    2
     6    19    18    1
     7    20    26    1
     8    24    25    1
     9    18    17    1
    10     8     6   ar
    11     7     6   ar
    12    26    25    2
    13    26    17    1
    14     6     2    1
    15     2     1    1
    16     2     3    1
    17    17    16    1
    18     3     4    1
    19    16    14    1
    20    16    11    1
    21     4     5    1
    22    12    14    1
    23    12    10    1
    24    12    13    1
    25    14    15    1
    26     9    10    1
    27     9     5    1
    28    11    10    1
