@<TRIPOS>MOLECULE
2pci_SAH_A_1.pdb
 26 28 0 0 0
SMALL
GASTEIGER

@<TRIPOS>ATOM
      1  N         34.6310   11.4080   34.7920 N.3   1301  SAH1301    -0.1208
      2  CA        33.2320   11.8490   35.2290 C.3   1301  SAH1301     0.1952
      3  CB        32.4150   12.6460   34.2450 C.3   1301  SAH1301     0.0422
      4  CG        33.1340   13.5120   33.2220 C.3   1301  SAH1301     0.0597
      5  SD        31.8550   14.3810   32.2080 S.3   1301  SAH1301    -0.1375
      6  C         32.4570   10.5350   35.6640 C.2   1301  SAH1301     0.3819
      7  O         33.0590    9.4450   35.6430 O.co2 1301  SAH1301    -0.2441
      8  OXT       31.2160   10.6900   36.0280 O.co2 1301  SAH1301    -0.2441
      9  C5'       31.0120   15.5060   33.2750 C.3   1301  SAH1301     0.0899
     10  C4'       29.5480   15.8030   32.7030 C.3   1301  SAH1301     0.1630
     11  O4'       28.7240   14.6030   32.8650 O.3   1301  SAH1301    -0.3153
     12  C3'       28.8340   16.9240   33.3820 C.3   1301  SAH1301     0.2168
     13  O3'       29.0450   18.1430   32.6860 O.3   1301  SAH1301    -0.2175
     14  C2'       27.3450   16.4380   33.4230 C.3   1301  SAH1301     0.2569
     15  O2'       26.6070   16.8250   32.2650 O.3   1301  SAH1301    -0.2130
     16  C1'       27.4370   14.8820   33.6300 C.3   1301  SAH1301     0.3185
     17  N9        27.5120   14.3870   34.9750 N.pl3 1301  SAH1301    -0.1439
     18  C8        28.5840   14.2370   35.8220 C.3   1301  SAH1301     0.3377
     19  N7        28.2960   13.6270   36.9260 N.2   1301  SAH1301    -0.2095
     20  C5        26.8690   13.6700   36.9700 C.2   1301  SAH1301     0.2526
     21  C6        25.9400   13.3940   38.0230 C.2   1301  SAH1301     0.4393
     22  N6        26.3050   13.0420   39.2560 N.pl3 1301  SAH1301     0.2180
     23  N1        24.6100   13.5300   37.6710 N.2   1301  SAH1301     0.0021
     24  C2        24.1930   13.8840   36.4240 C.3   1301  SAH1301     0.5254
     25  N3        25.0650   14.1790   35.4010 N.2   1301  SAH1301    -0.0055
     26  C4        26.3790   14.0890   35.7690 C.2   1301  SAH1301     0.3518
@<TRIPOS>BOND
     1     5     4    1
     2     5     9    1
     3    15    14    1
     4    13    12    1
     5    10    11    1
     6    10     9    1
     7    10    12    1
     8    11    16    1
     9     4     3    1
    10    12    14    1
    11    14    16    1
    12    16    17    1
    13     3     2    1
    14     1     2    1
    15    17    26    1
    16    17    18    1
    17     2     6    1
    18    25    26    2
    19    25    24    1
    20     7     6   ar
    21     6     8   ar
    22    26    20    1
    23    18    19    1
    24    24    23    1
    25    19    20    2
    26    20    21    1
    27    23    21    2
    28    21    22    1
