@<TRIPOS>MOLECULE
2pck_SAH_A_1.pdb
 26 28 0 0 0
SMALL
GASTEIGER

@<TRIPOS>ATOM
      1  N         33.7080   92.5530   66.6960 N.3   301  SAH301     -0.1208
      2  CA        32.2510   92.1110   66.6160 C.3   301  SAH301      0.1952
      3  CB        31.6430   91.5210   67.8590 C.3   301  SAH301      0.0422
      4  CG        32.2890   90.3020   68.4940 C.3   301  SAH301      0.0597
      5  SD        31.0570   89.5540   69.6340 S.3   301  SAH301     -0.1375
      6  C         31.4150   93.3750   66.1370 C.2   301  SAH301      0.3819
      7  O         32.0110   94.4500   65.9380 O.co2 301  SAH301     -0.2441
      8  OXT       30.1410   93.1950   65.9820 O.co2 301  SAH301     -0.2441
      9  C5'       30.1910   88.4020   68.6470 C.3   301  SAH301      0.0899
     10  C4'       28.7170   88.3100   69.2150 C.3   301  SAH301      0.1630
     11  O4'       28.0700   89.5980   69.0090 O.3   301  SAH301     -0.3153
     12  C3'       27.8440   87.2820   68.5850 C.3   301  SAH301      0.2168
     13  O3'       27.9950   86.0240   69.2270 O.3   301  SAH301     -0.2175
     14  C2'       26.4360   87.9280   68.7240 C.3   301  SAH301      0.2569
     15  O2'       25.8160   87.6830   69.9900 O.3   301  SAH301     -0.2130
     16  C1'       26.6920   89.4420   68.4090 C.3   301  SAH301      0.3185
     17  N9        26.6640   89.8080   67.0370 N.pl3 301  SAH301     -0.1439
     18  C8        27.6430   90.0460   66.0830 C.3   301  SAH301      0.3377
     19  N7        27.2050   90.3660   64.9000 N.2   301  SAH301     -0.2095
     20  C5        25.7930   90.3540   65.0330 C.2   301  SAH301      0.2526
     21  C6        24.7440   90.6240   64.0820 C.2   301  SAH301      0.4393
     22  N6        24.9650   90.9550   62.8030 N.pl3 301  SAH301      0.2180
     23  N1        23.4640   90.5150   64.5870 N.2   301  SAH301      0.0021
     24  C2        23.1950   90.1780   65.8730 C.3   301  SAH301      0.5254
     25  N3        24.1710   89.9100   66.8090 N.2   301  SAH301     -0.0055
     26  C4        25.4400   90.0180   66.3230 C.2   301  SAH301      0.3518
@<TRIPOS>BOND
     1    22    21    1
     2    21    23    2
     3    21    20    1
     4    23    24    1
     5    19    20    2
     6    19    18    1
     7    20    26    1
     8    24    25    1
     9     7     6   ar
    10     8     6   ar
    11    18    17    1
    12     6     2    1
    13    26    25    2
    14    26    17    1
    15     2     1    1
    16     2     3    1
    17    17    16    1
    18     3     4    1
    19    16    14    1
    20    16    11    1
    21     4     5    1
    22    12    14    1
    23    12    10    1
    24    12    13    1
    25     9    10    1
    26     9     5    1
    27    14    15    1
    28    11    10    1
