@<TRIPOS>MOLECULE
2pcm_SAH_A_1.pdb
 26 28 0 0 0
SMALL
GASTEIGER

@<TRIPOS>ATOM
      1  N         33.8920   93.1460   67.6940 N.3   301  SAH301     -0.1208
      2  CA        32.4330   92.7220   67.6300 C.3   301  SAH301      0.1952
      3  CB        31.8450   92.0400   68.8360 C.3   301  SAH301      0.0422
      4  CG        32.4810   90.7620   69.3630 C.3   301  SAH301      0.0597
      5  SD        31.3200   90.0300   70.5980 S.3   301  SAH301     -0.1375
      6  C         31.6140   94.0300   67.2680 C.2   301  SAH301      0.3819
      7  O         32.2310   95.1060   67.1190 O.co2 301  SAH301     -0.2441
      8  OXT       30.3300   93.8910   67.1440 O.co2 301  SAH301     -0.2441
      9  C5'       30.3640   88.9830   69.5660 C.3   301  SAH301      0.0899
     10  C4'       28.9040   88.8950   70.1600 C.3   301  SAH301      0.1630
     11  O4'       28.3020   90.1950   69.9720 O.3   301  SAH301     -0.3153
     12  C3'       27.9940   87.9070   69.5150 C.3   301  SAH301      0.2168
     13  O3'       28.0950   86.6400   70.1550 O.3   301  SAH301     -0.2175
     14  C2'       26.6220   88.6030   69.6750 C.3   301  SAH301      0.2569
     15  O2'       26.0570   88.3730   70.9740 O.3   301  SAH301     -0.2130
     16  C1'       26.9280   90.0800   69.3950 C.3   301  SAH301      0.3185
     17  N9        26.9010   90.4360   68.0880 N.pl3 301  SAH301     -0.1439
     18  C8        27.8590   90.7450   67.1360 C.3   301  SAH301      0.3377
     19  N7        27.3920   91.0600   65.9630 N.2   301  SAH301     -0.2095
     20  C5        25.9760   90.9660   66.1050 C.2   301  SAH301      0.2526
     21  C6        24.8960   91.2010   65.1710 C.2   301  SAH301      0.4393
     22  N6        25.0740   91.5700   63.8910 N.pl3 301  SAH301      0.2180
     23  N1        23.6300   91.0100   65.6870 N.2   301  SAH301      0.0021
     24  C2        23.3970   90.6340   66.9750 C.3   301  SAH301      0.5254
     25  N3        24.3990   90.4000   67.8910 N.2   301  SAH301     -0.0055
     26  C4        25.6590   90.5980   67.3900 C.2   301  SAH301      0.3518
@<TRIPOS>BOND
     1    22    21    1
     2    21    23    2
     3    21    20    1
     4    23    24    1
     5    19    20    2
     6    19    18    1
     7    20    26    1
     8    24    25    1
     9     7     6   ar
    10    18    17    1
    11     8     6   ar
    12     6     2    1
    13    26    25    2
    14    26    17    1
    15     2     1    1
    16     2     3    1
    17    17    16    1
    18     3     4    1
    19     4     5    1
    20    16    14    1
    21    16    11    1
    22    12    14    1
    23    12    13    1
    24    12    10    1
    25     9    10    1
    26     9     5    1
    27    14    15    1
    28    11    10    1
