@<TRIPOS>MOLECULE
2pcp_1PC_B_1.pdb
 18 20 0 0 0
SMALL
GASTEIGER

@<TRIPOS>ATOM
      1  CP        -7.3300  -31.7920  -15.3690 C.3   227  1PC227      0.0029
      2  CA        -9.1620  -27.2400  -14.5290 C.ar  227  1PC227     -0.0093
      3  CB        -9.4430  -27.0060  -15.9010 C.ar  227  1PC227     -0.0030
      4  CC       -10.7910  -26.7340  -16.3260 C.ar  227  1PC227     -0.0003
      5  CD       -11.8960  -26.6870  -15.3840 C.ar  227  1PC227     -0.0000
      6  CE       -11.6170  -26.9260  -14.0510 C.ar  227  1PC227     -0.0003
      7  CF       -10.2900  -27.1930  -13.6110 C.ar  227  1PC227     -0.0030
      8  CG        -7.6760  -27.5180  -13.9960 C.3   227  1PC227      0.0643
      9  CH        -6.5630  -26.5590  -14.6380 C.3   227  1PC227      0.0189
     10  CI        -6.9940  -25.1210  -14.3940 C.3   227  1PC227      0.0017
     11  CJ        -6.9050  -24.7740  -12.8920 C.3   227  1PC227      0.0001
     12  CK        -7.7300  -25.7770  -12.0620 C.3   227  1PC227      0.0017
     13  CL        -7.4210  -27.2270  -12.4630 C.3   227  1PC227      0.0189
     14  NM        -7.2300  -29.0100  -14.1940 N.3   227  1PC227     -0.2717
     15  CN        -8.2710  -30.0700  -13.7270 C.3   227  1PC227      0.0723
     16  CO        -7.7730  -31.5110  -13.9330 C.3   227  1PC227      0.0174
     17  CQ        -6.2590  -30.7550  -15.7650 C.3   227  1PC227      0.0174
     18  CR        -6.7380  -29.3290  -15.6150 C.3   227  1PC227      0.0723
@<TRIPOS>BOND
     1     4     3   ar
     2     4     5   ar
     3     3     2   ar
     4    17    18    1
     5    17     1    1
     6    18    14    1
     7     5     6   ar
     8     1    16    1
     9     9    10    1
    10     9     8    1
    11     2     8    1
    12     2     7   ar
    13    10    11    1
    14    14     8    1
    15    14    15    1
    16     6     7   ar
    17     8    13    1
    18    16    15    1
    19    11    12    1
    20    13    12    1
