@<TRIPOS>MOLECULE
2pcu_ASP_B_1.pdb
 10 9 0 0 0
SMALL
GASTEIGER

@<TRIPOS>ATOM
      1  N          2.2130   36.5440   21.8190 N.3     6  ASP6       -0.1026
      2  N          0.1030   35.8680   22.2060 N.3     6  ASP6       -0.1026
      3  CA         0.8580   36.4640   21.2240 C.3     6  ASP6        0.2552
      4  C          0.8920   35.4360   20.1150 C.2     6  ASP6        0.3970
      5  O          1.1890   34.2540   20.3370 O.co2   6  ASP6       -0.2425
      6  CB         0.4360   37.8240   20.6850 C.3     6  ASP6        0.1608
      7  CG        -1.0410   38.0610   20.7850 C.2     6  ASP6        0.3684
      8  OD1       -1.8140   37.2650   20.2080 O.co2   6  ASP6       -0.2455
      9  OD2       -1.3940   39.0570   21.4390 O.co2   6  ASP6       -0.2455
     10  OXT        0.6360   35.7340   18.9560 O.co2   6  ASP6       -0.2425
@<TRIPOS>BOND
     1    10     4   ar
     2     4     5   ar
     3     4     3    1
     4     8     7   ar
     5     6     7    1
     6     6     3    1
     7     7     9   ar
     8     3     1    1
     9     3     2    1
