@<TRIPOS>MOLECULE
2pcu_III_B_1.pdb
 45 46 0 0 0
SMALL
GASTEIGER

@<TRIPOS>ATOM
      1  N          5.4480   48.4730   24.2180 N.3     1  PHE1       -0.1227
      2  CA         4.3940   48.7120   23.1890 C.3     1  PHE1        0.1736
      3  C          3.0940   49.1270   23.8710 C.2     1  PHE1        0.2595
      4  O          2.9430   48.9280   25.0600 O.2     1  PHE1       -0.2718
      5  CB         4.1880   47.4530   22.3370 C.3     1  PHE1        0.0547
      6  CG         4.0990   46.1790   23.1460 C.ar    1  PHE1       -0.0202
      7  CD1        5.2080   45.3500   23.2720 C.ar    1  PHE1       -0.0042
      8  CD2        2.9360   45.8500   23.8050 C.ar    1  PHE1       -0.0042
      9  CE1        5.1470   44.1880   24.0290 C.ar    1  PHE1       -0.0003
     10  CE2        2.8590   44.6900   24.5690 C.ar    1  PHE1       -0.0003
     11  CZ         3.9730   43.8710   24.7020 C.ar    1  PHE1       -0.0000
     12  N          2.1560   49.6740   23.0910 N.am    2  ASN2       -0.1960
     13  CA         0.9010   50.1580   23.6450 C.3     2  ASN2        0.1819
     14  C         -0.3100   49.4230   23.1620 C.2     2  ASN2        0.2621
     15  O         -1.4200   49.6300   23.6930 O.2     2  ASN2       -0.2715
     16  CB         0.7760   51.6560   23.3140 C.3     2  ASN2        0.1195
     17  CG         1.8680   52.4640   24.0310 C.2     2  ASN2        0.2630
     18  OD1        1.9660   52.4210   25.2570 O.2     2  ASN2       -0.2716
     19  ND2        2.7120   53.1310   23.2900 N.am    2  ASN2       -0.0877
     20  N         -0.1330   48.5930   22.1380 N.am    3  ARG3       -0.1964
     21  CA        -1.2110   47.7250   21.6660 C.3     3  ARG3        0.1714
     22  C         -0.6970   46.3000   21.5240 C.2     3  ARG3        0.2458
     23  O          0.5110   46.0710   21.4110 O.2     3  ARG3       -0.2730
     24  CB        -1.7240   48.1830   20.3150 C.3     3  ARG3        0.0347
     25  CG        -2.0970   49.6760   20.2570 C.3     3  ARG3        0.0492
     26  CD        -3.0080   49.8930   19.0910 C.3     3  ARG3        0.2205
     27  NE        -3.1700   51.3200   18.7450 N.pl3   3  ARG3       -0.0865
     28  CZ        -4.1020   51.7330   17.8840 C.cat   3  ARG3        0.5346
     29  NH1       -5.0080   50.8580   17.4320 N.pl3   3  ARG3        0.1354
     30  NH2       -4.1890   53.0140   17.5080 N.pl3   3  ARG3        0.1354
     31  N         -1.6130   45.3210   21.6270 N.am    4  PRO4       -0.2716
     32  CA        -1.1390   43.9470   21.5560 C.3     4  PRO4        0.1536
     33  C         -0.5580   43.5540   20.1810 C.2     4  PRO4        0.2599
     34  O         -0.8370   44.1680   19.1010 O.2     4  PRO4       -0.2715
     35  CB        -2.3770   43.1100   21.9240 C.3     4  PRO4        0.0310
     36  CG        -3.5580   43.9910   21.5440 C.3     4  PRO4        0.0237
     37  CD        -3.0660   45.3890   21.9240 C.3     4  PRO4        0.0939
     38  N          0.2690   42.5350   20.2570 N.am    5  VAL5       -0.1942
     39  CA         1.1120   42.1370   19.0900 C.3     5  VAL5        0.1977
     40  C          0.7400   40.7300   18.5120 C.2     5  VAL5        0.3842
     41  O          1.5190   39.9760   17.8900 O.co2   5  VAL5       -0.2437
     42  CB         2.6050   42.2590   19.4680 C.3     5  VAL5        0.0311
     43  CG1        3.0020   43.7390   19.5760 C.3     5  VAL5        0.0023
     44  CG2        2.9660   41.4700   20.7540 C.3     5  VAL5        0.0023
     45  OXT       -0.4280   40.3160   18.5520 O.co2   5  VAL5       -0.2437
@<TRIPOS>BOND
     1    29    28    1
     2    30    28    1
     3    28    27    2
     4    41    40   ar
     5    40    45   ar
     6    40    39    1
     7    27    26    1
     8    39    42    1
     9    39    38    1
    10    26    25    1
    11    34    33    2
    12    42    43    1
    13    42    44    1
    14    33    38   am
    15    33    32    1
    16    25    24    1
    17    24    21    1
    18    23    22    2
    19    22    31   am
    20    22    21    1
    21    36    37    1
    22    36    35    1
    23    32    31    1
    24    32    35    1
    25    31    37    1
    26    21    20    1
    27    20    14   am
    28     5     6    1
    29     5     2    1
    30    12    13    1
    31    12     3   am
    32     6     7   ar
    33     6     8   ar
    34    14    13    1
    35    14    15    2
    36     2     3    1
    37     2     1    1
    38     7     9   ar
    39    19    17   am
    40    16    13    1
    41    16    17    1
    42     8    10   ar
    43     3     4    2
    44     9    11   ar
    45    17    18    2
    46    10    11   ar
