@<TRIPOS>MOLECULE
2pd3_TCL_A_1.pdb
 17 18 0 0 0
SMALL
GASTEIGER

@<TRIPOS>ATOM
      1  C1        15.5830   10.1370   22.0290 C.ar  2414  TCL2414     0.0566
      2  C2        15.7830    8.8620   22.5500 C.ar  2414  TCL2414     0.0611
      3  C6        14.3080   10.6890   22.0430 C.ar  2414  TCL2414     0.2307
      4  C5        13.1790    9.9050   22.6170 C.ar  2414  TCL2414     0.1840
      5  C4        13.4240    8.6330   23.1330 C.ar  2414  TCL2414     0.0417
      6  C3        14.7270    8.1210   23.0910 C.ar  2414  TCL2414     0.0147
      7  C11        9.0850   10.1420   19.5990 C.ar  2414  TCL2414     0.0587
      8  C10        8.7170   10.7520   20.7930 C.ar  2414  TCL2414     0.0259
      9  C9         9.6510   10.8580   21.8170 C.ar  2414  TCL2414     0.0929
     10  C8        11.0210   10.3200   21.6230 C.ar  2414  TCL2414     0.1559
     11  C12       10.3750    9.6390   19.4140 C.ar  2414  TCL2414     0.0146
     12  C13       11.3440    9.7200   20.4110 C.ar  2414  TCL2414     0.0392
     13  O7        11.9200   10.4380   22.6480 O.3   2414  TCL2414    -0.4494
     14 CL14       17.4290    8.1710   22.5330 Cl    2414  TCL2414    -0.0821
     15 CL15        7.8820   10.0100   18.2740 Cl    2414  TCL2414    -0.0822
     16 CL16        9.2190   11.6370   23.3690 Cl    2414  TCL2414    -0.0790
     17  O17       14.0880   11.9240   21.5270 O.3   2414  TCL2414    -0.2833
@<TRIPOS>BOND
     1    15     7    1
     2    11     7   ar
     3    11    12   ar
     4     7     8   ar
     5    12    10   ar
     6     8     9   ar
     7    17     3    1
     8    10     9   ar
     9    10    13    1
    10     9    16    1
    11     1     3   ar
    12     1     2   ar
    13     3     4   ar
    14    14     2    1
    15     2     6   ar
    16     4    13    1
    17     4     5   ar
    18     6     5   ar
