@<TRIPOS>MOLECULE
2pd3_NAD_A_1.pdb
 44 48 0 0 0
SMALL
GASTEIGER

@<TRIPOS>ATOM
      1  PA         7.9950   10.3080   27.5950 P.3   1780  NAD1780     0.2189
      2  O1A        8.2240   10.0580   29.0310 O.3   1780  NAD1780    -0.4371
      3  O2A        7.1050    9.2780   27.0120 O.2   1780  NAD1780    -0.5170
      4  O5B        7.4050   11.7910   27.3880 O.3   1780  NAD1780    -0.3112
      5  C5B        6.9170   12.2290   26.1400 C.3   1780  NAD1780     0.1813
      6  C4B        5.8620   13.2770   26.4500 C.3   1780  NAD1780     0.1821
      7  O4B        5.5410   14.0680   25.3210 O.3   1780  NAD1780    -0.3135
      8  C3B        4.5770   12.6070   26.9150 C.3   1780  NAD1780     0.2184
      9  O3B        4.3030   13.0490   28.2220 O.3   1780  NAD1780    -0.2174
     10  C2B        3.5270   13.0700   25.9270 C.3   1780  NAD1780     0.2570
     11  O2B        2.3100   13.4040   26.5380 O.3   1780  NAD1780    -0.2130
     12  C1B        4.1540   14.3320   25.3860 C.3   1780  NAD1780     0.3186
     13  N9A        3.5440   14.6990   24.1030 N.pl3 1780  NAD1780    -0.1439
     14  C8A        3.6830   14.0770   22.8880 C.3   1780  NAD1780     0.3377
     15  N7A        2.9320   14.7600   21.9920 N.2   1780  NAD1780    -0.2095
     16  C5A        2.3280   15.8040   22.6180 C.2   1780  NAD1780     0.2526
     17  C6A        1.4660   16.8100   22.1860 C.2   1780  NAD1780     0.4393
     18  N6A        0.8810   16.7270   20.9950 N.pl3 1780  NAD1780     0.2180
     19  N1A        1.0070   17.7430   23.0950 N.2   1780  NAD1780     0.0021
     20  C2A        1.3980   17.6940   24.4200 C.3   1780  NAD1780     0.5254
     21  N3A        2.2480   16.6940   24.8400 N.2   1780  NAD1780    -0.0055
     22  C4A        2.7040   15.7690   23.9550 C.2   1780  NAD1780     0.3518
     23  O3         9.4020   10.3910   26.8240 O.3   1780  NAD1780    -0.2703
     24  PN        10.7720   10.9030   27.4800 P.3   1780  NAD1780     0.2189
     25  O1N       10.8140   10.5600   28.9200 O.3   1780  NAD1780    -0.4371
     26  O2N       11.8410   10.4490   26.5780 O.2   1780  NAD1780    -0.5170
     27  O5D       10.7490   12.5160   27.4720 O.3   1780  NAD1780    -0.3112
     28  C5D       10.3640   13.3170   26.3860 C.3   1780  NAD1780     0.1813
     29  C4D       11.4980   14.2690   26.0280 C.3   1780  NAD1780     0.1799
     30  O4D       12.7980   13.7820   26.3700 O.3   1780  NAD1780    -0.3327
     31  C3D       11.4630   14.4390   24.5240 C.3   1780  NAD1780     0.2158
     32  O3D       11.7550   15.7820   24.2080 O.3   1780  NAD1780    -0.2175
     33  C2D       12.5670   13.5200   24.0710 C.3   1780  NAD1780     0.2309
     34  O2D       13.0310   13.8740   22.8020 O.3   1780  NAD1780    -0.2158
     35  C1D       13.5880   13.7210   25.1820 C.3   1780  NAD1780     0.2263
     36  N1N       14.6540   12.6920   25.1920 N.pl3 1780  NAD1780    -0.2787
     37  C2N       14.4090   11.4150   25.6130 C.3   1780  NAD1780     0.1244
     38  C3N       15.4140   10.4480   25.6270 C.2   1780  NAD1780     0.0544
     39  C7N       15.1000    9.0430   26.0720 C.2   1780  NAD1780     0.2818
     40  O7N       16.1260    8.0750   26.0930 O.2   1780  NAD1780    -0.2670
     41  N7N       13.8490    8.7300   26.4260 N.am  1780  NAD1780    -0.0839
     42  C4N       16.6950   10.7870   25.2040 C.2   1780  NAD1780     0.0033
     43  C5N       16.9350   12.0890   24.7720 C.2   1780  NAD1780     0.0157
     44  C6N       15.9100   13.0380   24.7730 C.2   1780  NAD1780     0.0633
@<TRIPOS>BOND
     1    18    17    1
     2    15    16    2
     3    15    14    1
     4    17    16    1
     5    17    19    2
     6    16    22    1
     7    34    33    1
     8    14    13    1
     9    19    20    1
    10    22    13    1
    11    22    21    2
    12    33    31    1
    13    33    35    1
    14    13    12    1
    15    32    31    1
    16    20    21    1
    17    31    29    1
    18    43    44    2
    19    43    42    1
    20    44    36    1
    21    35    36    1
    22    35    30    1
    23    36    37    1
    24    42    38    2
    25     7    12    1
    26     7     6    1
    27    12    10    1
    28    37    38    1
    29    38    39    1
    30    10    11    1
    31    10     8    1
    32    29    30    1
    33    29    28    1
    34    39    40    2
    35    39    41   am
    36     5     6    1
    37     5     4    1
    38    28    27    1
    39     6     8    1
    40    26    24    2
    41    23    24    1
    42    23     1    1
    43     8     9    1
    44     3     1    2
    45     4     1    1
    46    27    24    1
    47    24    25    1
    48     1     2    1
