@<TRIPOS>MOLECULE
2pd4_NAD_A_1.pdb
 44 48 0 0 0
SMALL
GASTEIGER

@<TRIPOS>ATOM
      1  PA         7.9300   10.5960   27.1490 P.3   1780  NAD1780     0.2189
      2  O1A        7.1850    9.5710   26.4820 O.2   1780  NAD1780    -0.5170
      3  O2A        7.8880   10.3050   28.6210 O.3   1780  NAD1780    -0.4371
      4  O5B        7.3130   12.0370   26.8970 O.3   1780  NAD1780    -0.3112
      5  C5B        6.8780   12.4920   25.6550 C.3   1780  NAD1780     0.1813
      6  C4B        5.7530   13.4580   25.9300 C.3   1780  NAD1780     0.1821
      7  O4B        5.4160   14.1800   24.7750 O.3   1780  NAD1780    -0.3135
      8  C3B        4.5170   12.7330   26.4300 C.3   1780  NAD1780     0.2184
      9  O3B        4.1670   13.2530   27.6890 O.3   1780  NAD1780    -0.2174
     10  C2B        3.4680   13.0620   25.3870 C.3   1780  NAD1780     0.2570
     11  O2B        2.2210   13.3070   25.9570 O.3   1780  NAD1780    -0.2130
     12  C1B        4.0300   14.3320   24.8230 C.3   1780  NAD1780     0.3186
     13  N9A        3.3780   14.7140   23.5830 N.pl3 1780  NAD1780    -0.1439
     14  C8A        3.4240   14.0910   22.3840 C.3   1780  NAD1780     0.3377
     15  N7A        2.6550   14.7880   21.5390 N.2   1780  NAD1780    -0.2095
     16  C5A        2.1140   15.8350   22.1800 C.2   1780  NAD1780     0.2526
     17  C6A        1.2680   16.8510   21.7840 C.2   1780  NAD1780     0.4393
     18  N6A        0.8140   16.9320   20.5510 N.pl3 1780  NAD1780     0.2180
     19  N1A        0.8870   17.7930   22.6990 N.2   1780  NAD1780     0.0021
     20  C2A        1.3490   17.7220   23.9800 C.3   1780  NAD1780     0.5254
     21  N3A        2.1850   16.7170   24.3690 N.2   1780  NAD1780    -0.0055
     22  C4A        2.5670   15.7930   23.4760 C.2   1780  NAD1780     0.3518
     23  O3         9.3690   10.6710   26.4730 O.3   1780  NAD1780    -0.2703
     24  PN        10.7550   10.8910   27.1870 P.3   1780  NAD1780     0.2189
     25  O1N       10.6330   10.5580   28.5940 O.3   1780  NAD1780    -0.4371
     26  O2N       11.7010   10.2150   26.3390 O.2   1780  NAD1780    -0.5170
     27  O5D       11.0820   12.4430   27.1120 O.3   1780  NAD1780    -0.3112
     28  C5D       10.5170   13.3410   26.2140 C.3   1780  NAD1780     0.1813
     29  C4D       11.6380   14.1380   25.5930 C.3   1780  NAD1780     0.1799
     30  O4D       12.8710   13.5350   25.8780 O.3   1780  NAD1780    -0.3327
     31  C3D       11.4480   14.1360   24.0870 C.3   1780  NAD1780     0.2158
     32  O3D       11.5400   15.4430   23.6050 O.3   1780  NAD1780    -0.2175
     33  C2D       12.5630   13.2510   23.6090 C.3   1780  NAD1780     0.2309
     34  O2D       12.9960   13.5330   22.3110 O.3   1780  NAD1780    -0.2158
     35  C1D       13.6020   13.4190   24.6930 C.3   1780  NAD1780     0.2263
     36  N1N       14.6700   12.4040   24.7450 N.pl3 1780  NAD1780    -0.2787
     37  C2N       14.4500   11.1340   25.1620 C.3   1780  NAD1780     0.1244
     38  C3N       15.4760   10.2080   25.2090 C.2   1780  NAD1780     0.0544
     39  C7N       15.2150    8.8150   25.6660 C.2   1780  NAD1780     0.2818
     40  O7N       16.2460    7.8800   25.7160 O.2   1780  NAD1780    -0.2670
     41  N7N       13.9930    8.4880   26.0100 N.am  1780  NAD1780    -0.0839
     42  C4N       16.7520   10.5700   24.8450 C.2   1780  NAD1780     0.0033
     43  C5N       16.9670   11.8670   24.4280 C.2   1780  NAD1780     0.0157
     44  C6N       15.9200   12.7640   24.3860 C.2   1780  NAD1780     0.0633
@<TRIPOS>BOND
     1    18    17    1
     2    15    16    2
     3    15    14    1
     4    17    16    1
     5    17    19    2
     6    16    22    1
     7    34    33    1
     8    14    13    1
     9    19    20    1
    10    22    13    1
    11    22    21    2
    12    13    12    1
    13    32    31    1
    14    33    31    1
    15    33    35    1
    16    20    21    1
    17    31    29    1
    18    44    43    2
    19    44    36    1
    20    43    42    1
    21    35    36    1
    22    35    30    1
    23    36    37    1
    24     7    12    1
    25     7     6    1
    26    12    10    1
    27    42    38    2
    28    37    38    1
    29    38    39    1
    30    10    11    1
    31    10     8    1
    32    29    30    1
    33    29    28    1
    34     5     6    1
    35     5     4    1
    36    39    40    2
    37    39    41   am
    38     6     8    1
    39    28    27    1
    40    26    24    2
    41     8     9    1
    42    23     1    1
    43    23    24    1
    44     2     1    2
    45     4     1    1
    46    27    24    1
    47     1     3    1
    48    24    25    1
