@<TRIPOS>MOLECULE
2pd4_DCN_A_1.pdb
 16 17 0 0 0
SMALL
GASTEIGER

@<TRIPOS>ATOM
      1  C1        15.8840    9.9380   21.5630 C.ar  2414  DCN2414     0.0566
      2  C2        16.0140    8.6200   22.0600 C.ar  2414  DCN2414     0.0611
      3  C6        14.6000   10.5510   21.5760 C.ar  2414  DCN2414     0.2307
      4  C5        13.4280    9.8050   22.1120 C.ar  2414  DCN2414     0.1840
      5  C4        13.6020    8.4600   22.6050 C.ar  2414  DCN2414     0.0417
      6  C3        14.8930    7.8520   22.5830 C.ar  2414  DCN2414     0.0147
      7  C11        9.0560    9.9640   19.1410 C.ar  2414  DCN2414     0.0579
      8  C10        8.8260   10.8320   20.2910 C.ar  2414  DCN2414     0.0145
      9  C9         9.8700   10.9820   21.2700 C.ar  2414  DCN2414     0.0384
     10  C8        11.1670   10.2590   21.1130 C.ar  2414  DCN2414     0.1455
     11  C12       10.2990    9.2740   18.9880 C.ar  2414  DCN2414     0.0145
     12  C13       11.3350    9.4260   19.9690 C.ar  2414  DCN2414     0.0384
     13  O7        12.1720   10.4330   22.1210 O.3   2414  DCN2414    -0.4503
     14 CL14       17.5800    7.8820   22.0570 Cl    2414  DCN2414    -0.0821
     15 CL15        7.8550    9.7370   17.9380 Cl    2414  DCN2414    -0.0822
     16  O17       14.4440   11.7720   21.1200 O.3   2414  DCN2414    -0.2833
@<TRIPOS>BOND
     1    15     7    1
     2    11     7   ar
     3    11    12   ar
     4     7     8   ar
     5    12    10   ar
     6     8     9   ar
     7    10     9   ar
     8    10    13    1
     9    16     3    1
    10     1     3   ar
    11     1     2   ar
    12     3     4   ar
    13    14     2    1
    14     2     6   ar
    15     4    13    1
    16     4     5   ar
    17     6     5   ar
