@<TRIPOS>MOLECULE
2pd5_ZST_A_1.pdb
 29 32 0 0 0
SMALL
GASTEIGER

@<TRIPOS>ATOM
      1  C1        20.3240    9.8490  -11.4100 C.ar  600  ZST600      0.2767
      2  O1        20.7410    8.7040  -11.4380 O.2   600  ZST600     -0.2655
      3  C2        20.6670   10.7690  -10.3740 C.ar  600  ZST600      0.0588
      4  C3        20.1790   12.0760  -10.3540 C.ar  600  ZST600      0.0204
      5  C4        19.3240   12.4010  -11.4380 C.ar  600  ZST600      0.0902
      6  C5        21.5300   10.3270   -9.3560 C.ar  600  ZST600      0.0048
      7  C6        21.8750   11.2090   -8.3480 C.ar  600  ZST600      0.0002
      8  C7        21.4030   12.5340   -8.2900 C.ar  600  ZST600      0.0000
      9  C8        20.5540   12.9570   -9.2990 C.ar  600  ZST600      0.0014
     10  N1        19.4740   10.3400  -12.3690 N.ar  600  ZST600     -0.2091
     11  N2        18.9580   11.6170  -12.4040 N.ar  600  ZST600     -0.1702
     12  C9        19.0580    9.4630  -13.4760 C.3   600  ZST600      0.1956
     13  C10       17.7120    8.8510  -12.8670 C.2   600  ZST600      0.1594
     14  C11       15.7410    8.0540  -11.4810 C.3   600  ZST600      0.1279
     15  C12       15.7050    7.7570  -12.8560 C.2   600  ZST600      0.1234
     16  C13       14.7340    7.6800  -10.5750 C.2   600  ZST600     -0.0083
     17  C14       13.6640    6.9960  -11.0860 C.2   600  ZST600      0.0006
     18  C15       13.5920    6.6920  -12.4390 C.2   600  ZST600      0.0734
     19  C16       14.5860    7.0470  -13.3420 C.2   600  ZST600      0.0326
     20  N3        16.8160    8.2200  -13.5810 N.2   600  ZST600     -0.4012
     21  S1        17.1940    8.9090  -11.1680 S.3   600  ZST600     -0.0740
     22  C17       18.7510   13.8130  -11.6330 C.3   600  ZST600      0.1613
     23  C18       17.6220   13.9930  -10.6820 C.2   600  ZST600      0.3709
     24  O2        16.9880   12.9800  -10.2790 O.co2 600  ZST600     -0.2452
     25  O3        17.1310   15.1060  -10.4190 O.co2 600  ZST600     -0.2452
     26  C19       12.3740    5.9410  -12.8970 C.3   600  ZST600      0.4186
     27  F1        11.2490    6.7260  -12.5740 F     600  ZST600     -0.1659
     28  F2        12.1340    4.7680  -12.5020 F     600  ZST600     -0.1659
     29  F3        12.1800    6.1090  -14.1960 F     600  ZST600     -0.1659
@<TRIPOS>BOND
     1    29    26    1
     2    20    13    2
     3    20    15    2
     4    12    13    1
     5    12    10    1
     6    19    15    1
     7    19    18    2
     8    26    27    1
     9    26    28    1
    10    26    18    1
    11    13    21    1
    12    15    14    1
    13    18    17    1
    14    11    10   ar
    15    11     5   ar
    16    10     1   ar
    17    22     5    1
    18    22    23    1
    19    14    21    1
    20    14    16    1
    21     5     4   ar
    22     2     1    2
    23     1     3   ar
    24    17    16    2
    25    23    25   ar
    26    23    24   ar
    27     3     4   ar
    28     3     6   ar
    29     4     9   ar
    30     6     7   ar
    31     9     8   ar
    32     7     8   ar
