@<TRIPOS>MOLECULE
2pd5_NAP_A_1.pdb
 48 52 0 0 0
SMALL
GASTEIGER

@<TRIPOS>ATOM
      1  PA        21.9770   21.5310  -17.8300 P.3   500  NAP500      0.2189
      2  O1A       21.4410   21.1450  -19.1220 O.2   500  NAP500     -0.5170
      3  O2A       21.5010   22.6820  -17.0590 O.3   500  NAP500     -0.4371
      4  O5B       23.5720   21.6190  -18.0840 O.3   500  NAP500     -0.3112
      5  C5B       24.4390   21.9250  -17.0040 C.3   500  NAP500      0.1813
      6  C4B       25.8720   21.7680  -17.6080 C.3   500  NAP500      0.1820
      7  O4B       26.0160   22.8830  -18.5350 O.3   500  NAP500     -0.3136
      8  C3B       27.0440   21.9620  -16.5980 C.3   500  NAP500      0.2157
      9  O3B       28.0870   21.0730  -17.0130 O.3   500  NAP500     -0.2175
     10  C2B       27.4000   23.4700  -16.8030 C.3   500  NAP500      0.2314
     11  O2B       28.7830   23.6810  -16.4750 O.3   500  NAP500     -0.2630
     12  C1B       27.1670   23.6460  -18.3100 C.3   500  NAP500      0.3158
     13  N9A       26.8240   24.9860  -18.6630 N.pl3 500  NAP500     -0.1439
     14  C8A       25.9560   25.8650  -18.0490 C.3   500  NAP500      0.3377
     15  N7A       25.8590   27.0540  -18.6010 N.2   500  NAP500     -0.2095
     16  C5A       26.7490   26.9220  -19.6640 C.2   500  NAP500      0.2526
     17  C6A       27.0320   27.9210  -20.5940 C.2   500  NAP500      0.4393
     18  N6A       26.5130   29.1490  -20.6310 N.pl3 500  NAP500      0.2180
     19  N1A       27.9590   27.5470  -21.5700 N.2   500  NAP500      0.0021
     20  C2A       28.5330   26.2950  -21.5960 C.3   500  NAP500      0.5254
     21  N3A       28.2390   25.3290  -20.6700 N.2   500  NAP500     -0.0055
     22  C4A       27.3220   25.6820  -19.6990 C.2   500  NAP500      0.3518
     23  O3        21.9770   20.2220  -16.8700 O.3   500  NAP500     -0.2703
     24  PN        21.2180   19.6550  -15.5880 P.3   500  NAP500      0.2189
     25  O1N       21.9600   20.0650  -14.3780 O.3   500  NAP500     -0.4371
     26  O2N       20.9980   18.2040  -15.8750 O.2   500  NAP500     -0.5170
     27  O5D       19.7620   20.3050  -15.6340 O.3   500  NAP500     -0.3112
     28  C5D       19.4890   21.5890  -15.0270 C.3   500  NAP500      0.1813
     29  C4D       18.8690   21.3880  -13.6610 C.3   500  NAP500      0.1799
     30  O4D       17.5740   20.6690  -13.7930 O.3   500  NAP500     -0.3327
     31  C3D       19.6020   20.4710  -12.6440 C.3   500  NAP500      0.2158
     32  O3D       20.7580   21.0940  -12.1000 O.3   500  NAP500     -0.2175
     33  C2D       18.4700   20.1520  -11.6730 C.3   500  NAP500      0.2309
     34  O2D       18.2510   21.3430  -10.8820 O.3   500  NAP500     -0.2158
     35  C1D       17.2760   19.9610  -12.5840 C.3   500  NAP500      0.2263
     36  N1N       17.0180   18.5370  -13.0380 N.pl3 500  NAP500     -0.2787
     37  C2N       15.8930   17.9580  -12.4980 C.3   500  NAP500      0.1244
     38  C3N       15.7380   16.5900  -12.7350 C.2   500  NAP500      0.0544
     39  C7N       14.5030   15.8990  -12.1650 C.2   500  NAP500      0.2818
     40  O7N       14.4640   14.6790  -12.2630 O.2   500  NAP500     -0.2670
     41  N7N       13.4620   16.6560  -11.8760 N.am  500  NAP500     -0.0839
     42  C4N       16.6910   15.8310  -13.4860 C.2   500  NAP500      0.0033
     43  C5N       17.8330   16.4820  -14.0210 C.2   500  NAP500      0.0157
     44  C6N       18.0050   17.8600  -13.8090 C.2   500  NAP500      0.0633
     45  P2B       29.2680   24.4100  -15.0740 P.3   500  NAP500      0.5328
     46  O1X       29.3990   25.9100  -15.4500 O.2   500  NAP500     -0.2224
     47  O2X       28.2320   24.1790  -14.0150 O.3   500  NAP500     -0.1145
     48  O3X       30.5840   23.6670  -14.8400 O.3   500  NAP500     -0.1145
@<TRIPOS>BOND
     1    20    19    1
     2    20    21    1
     3    19    17    2
     4    21    22    2
     5    18    17    1
     6    17    16    1
     7    22    16    1
     8    22    13    1
     9    16    15    2
    10     2     1    2
    11    13    12    1
    12    13    14    1
    13    15    14    1
    14     7    12    1
    15     7     6    1
    16    12    10    1
    17     4     1    1
    18     4     5    1
    19     1     3    1
    20     1    23    1
    21     6     5    1
    22     6     8    1
    23     9     8    1
    24    23    24    1
    25    10     8    1
    26    10    11    1
    27    11    45    1
    28    26    24    2
    29    27    24    1
    30    27    28    1
    31    24    25    1
    32    46    45    2
    33    45    48    1
    34    45    47    1
    35    28    29    1
    36    43    44    2
    37    43    42    1
    38    44    36    1
    39    30    29    1
    40    30    35    1
    41    29    31    1
    42    42    38    2
    43    36    35    1
    44    36    37    1
    45    38    37    1
    46    38    39    1
    47    31    32    1
    48    31    33    1
    49    35    33    1
    50    40    39    2
    51    39    41   am
    52    33    34    1
