@<TRIPOS>MOLECULE
2pd6_NAD_A_1.pdb
 44 48 0 0 0
SMALL
GASTEIGER

@<TRIPOS>ATOM
      1  PA        -0.7400   25.0780   41.9840 P.3     1  NAD1        0.2189
      2  O1A        0.1700   26.2490   42.1660 O.3     1  NAD1       -0.4371
      3  O2A       -2.1660   25.2840   41.6440 O.2     1  NAD1       -0.5170
      4  O5B       -0.5990   24.1320   43.3060 O.3     1  NAD1       -0.3112
      5  C5B        0.6730   23.9380   43.9380 C.3     1  NAD1        0.1813
      6  C4B        0.4890   23.8070   45.4290 C.3     1  NAD1        0.1821
      7  O4B        1.8160   23.5160   45.8440 O.3     1  NAD1       -0.3135
      8  C3B        0.1300   25.2050   46.0300 C.3     1  NAD1        0.2184
      9  O3B       -0.9950   25.0790   46.9120 O.3     1  NAD1       -0.2174
     10  C2B        1.3380   25.5940   46.8540 C.3     1  NAD1        0.2570
     11  O2B        0.9260   26.2960   48.0820 O.3     1  NAD1       -0.2130
     12  C1B        1.9130   24.1920   47.1230 C.3     1  NAD1        0.3186
     13  N9A        3.3290   24.2670   47.4890 N.pl3   1  NAD1       -0.1439
     14  C8A        4.2940   24.9540   46.8710 C.3     1  NAD1        0.3377
     15  N7A        5.4310   24.7780   47.5370 N.2     1  NAD1       -0.2095
     16  C5A        5.2050   23.9760   48.5860 C.2     1  NAD1        0.2526
     17  C6A        6.0010   23.4640   49.6190 C.2     1  NAD1        0.4393
     18  N6A        7.2950   23.7610   49.6800 N.pl3   1  NAD1        0.2180
     19  N1A        5.4400   22.6430   50.5380 N.2     1  NAD1        0.0021
     20  C2A        4.1320   22.3720   50.4570 C.3     1  NAD1        0.5254
     21  N3A        3.3120   22.8540   49.5000 N.2     1  NAD1       -0.0055
     22  C4A        3.8460   23.6540   48.5560 C.2     1  NAD1        0.3518
     23  O3        -0.0280   24.1850   40.8260 O.3     1  NAD1       -0.2703
     24  PN        -0.6610   22.9140   40.0760 P.3     1  NAD1        0.2189
     25  O1N       -0.8580   23.2650   38.6400 O.2     1  NAD1       -0.5170
     26  O2N       -1.7590   22.4020   40.8860 O.3     1  NAD1       -0.4371
     27  O5D        0.6020   21.8840   40.0820 O.3     1  NAD1       -0.3112
     28  C5D        0.6190   20.6840   40.9160 C.3     1  NAD1        0.1813
     29  C4D        1.8060   19.7680   40.5180 C.3     1  NAD1        0.1799
     30  O4D        1.6230   19.3820   39.1280 O.3     1  NAD1       -0.3327
     31  C3D        3.1690   20.4690   40.5650 C.3     1  NAD1        0.2158
     32  O3D        4.1180   19.4390   40.7510 O.3     1  NAD1       -0.2175
     33  C2D        3.3160   21.0570   39.1530 C.3     1  NAD1        0.2309
     34  O2D        4.6880   21.3530   38.7810 O.3     1  NAD1       -0.2158
     35  C1D        2.7470   19.8920   38.3270 C.3     1  NAD1        0.2263
     36  N1N        2.3310   20.2090   36.9060 N.pl3   1  NAD1       -0.2787
     37  C2N        1.3730   21.2020   36.5930 C.3     1  NAD1        0.1244
     38  C3N        1.0120   21.4440   35.2610 C.2     1  NAD1        0.0544
     39  C7N       -0.0290   22.5230   34.8630 C.2     1  NAD1        0.2818
     40  O7N       -0.1200   22.9720   33.5780 O.2     1  NAD1       -0.2670
     41  N7N       -0.8150   23.0250   35.8210 N.am    1  NAD1       -0.0839
     42  C4N        1.6140   20.7080   34.2440 C.2     1  NAD1        0.0033
     43  C5N        2.5620   19.7270   34.5360 C.2     1  NAD1        0.0157
     44  C6N        2.9210   19.4700   35.8550 C.2     1  NAD1        0.0633
@<TRIPOS>BOND
     1    40    39    2
     2    42    43    1
     3    42    38    2
     4    43    44    2
     5    39    38    1
     6    39    41   am
     7    38    37    1
     8    44    36    1
     9    37    36    1
    10    36    35    1
    11    35    30    1
    12    35    33    1
    13    25    24    2
    14    34    33    1
    15    30    29    1
    16    33    31    1
    17    24    27    1
    18    24    23    1
    19    24    26    1
    20    27    28    1
    21    29    31    1
    22    29    28    1
    23    31    32    1
    24    23     1    1
    25     3     1    2
    26     1     2    1
    27     1     4    1
    28     4     5    1
    29     5     6    1
    30     6     7    1
    31     6     8    1
    32     7    12    1
    33     8    10    1
    34     8     9    1
    35    10    12    1
    36    10    11    1
    37    14    13    1
    38    14    15    1
    39    12    13    1
    40    13    22    1
    41    15    16    2
    42    22    16    1
    43    22    21    2
    44    16    17    1
    45    21    20    1
    46    17    18    1
    47    17    19    2
    48    20    19    1
