@<TRIPOS>MOLECULE
2pd9_NAP_A_1.pdb
 48 52 0 0 0
SMALL
GASTEIGER

@<TRIPOS>ATOM
      1  PA        22.7800   -4.8540   26.9260 P.3   500  NAP500      0.2189
      2  O1A       23.6870   -3.8480   26.4400 O.2   500  NAP500     -0.5170
      3  O2A       21.6940   -4.5840   27.8800 O.3   500  NAP500     -0.4371
      4  O5B       23.7230   -6.0570   27.4280 O.3   500  NAP500     -0.3112
      5  C5B       23.0870   -7.2190   27.9700 C.3   500  NAP500      0.1813
      6  C4B       24.2940   -8.1720   28.3070 C.3   500  NAP500      0.1820
      7  O4B       25.0460   -7.5930   29.4310 O.3   500  NAP500     -0.3136
      8  C3B       23.8380   -9.5740   28.7870 C.3   500  NAP500      0.2157
      9  O3B       24.8420  -10.5050   28.3680 O.3   500  NAP500     -0.2175
     10  C2B       23.9250   -9.4030   30.3420 C.3   500  NAP500      0.2314
     11  O2B       24.2510  -10.6580   30.9370 O.3   500  NAP500     -0.2630
     12  C1B       25.1430   -8.4750   30.4960 C.3   500  NAP500      0.3158
     13  N9A       25.0690   -7.7510   31.7190 N.pl3 500  NAP500     -0.1439
     14  C8A       23.9800   -7.1180   32.2960 C.3   500  NAP500      0.3377
     15  N7A       24.2730   -6.5100   33.4120 N.2   500  NAP500     -0.2095
     16  C5A       25.6080   -6.7560   33.5750 C.2   500  NAP500      0.2526
     17  C6A       26.4390   -6.3240   34.6090 C.2   500  NAP500      0.4393
     18  N6A       26.0950   -5.5990   35.6660 N.pl3 500  NAP500      0.2180
     19  N1A       27.7660   -6.7330   34.5160 N.2   500  NAP500      0.0021
     20  C2A       28.2270   -7.4950   33.4660 C.3   500  NAP500      0.5254
     21  N3A       27.4130   -7.9060   32.4480 N.2   500  NAP500     -0.0055
     22  C4A       26.0950   -7.5000   32.5360 C.2   500  NAP500      0.3518
     23  O3        22.1410   -5.5940   25.6410 O.3   500  NAP500     -0.2703
     24  PN        20.7800   -5.6730   24.8150 P.3   500  NAP500      0.2189
     25  O1N       19.9670   -6.8140   25.3440 O.3   500  NAP500     -0.4371
     26  O2N       21.1930   -5.6950   23.3780 O.2   500  NAP500     -0.5170
     27  O5D       20.0470   -4.3000   25.0660 O.3   500  NAP500     -0.3112
     28  C5D       19.2130   -3.9740   26.2360 C.3   500  NAP500      0.1813
     29  C4D       17.7820   -4.1430   25.7580 C.3   500  NAP500      0.1799
     30  O4D       17.4270   -3.1510   24.7570 O.3   500  NAP500     -0.3327
     31  C3D       17.3160   -5.4610   25.1030 C.3   500  NAP500      0.2158
     32  O3D       17.2630   -6.5960   25.9140 O.3   500  NAP500     -0.2175
     33  C2D       15.9980   -5.0530   24.4420 C.3   500  NAP500      0.2309
     34  O2D       15.0250   -4.9840   25.5130 O.3   500  NAP500     -0.2158
     35  C1D       16.3010   -3.6210   23.9770 C.3   500  NAP500      0.2263
     36  N1N       16.7470   -3.5710   22.5400 N.pl3 500  NAP500     -0.2787
     37  C2N       15.8580   -3.0130   21.6170 C.3   500  NAP500      0.1244
     38  C3N       16.2760   -2.9880   20.3060 C.2   500  NAP500      0.0544
     39  C7N       15.3650   -2.3900   19.2570 C.2   500  NAP500      0.2818
     40  O7N       15.6290   -2.5430   18.0760 O.2   500  NAP500     -0.2670
     41  N7N       14.5100   -1.4960   19.7180 N.am  500  NAP500     -0.0839
     42  C4N       17.5450   -3.4970   19.9120 C.2   500  NAP500      0.0033
     43  C5N       18.4280   -4.0740   20.8400 C.2   500  NAP500      0.0157
     44  C6N       18.0200   -4.0840   22.2030 C.2   500  NAP500      0.0633
     45  P2B       23.1980  -11.6050   31.7540 P.3   500  NAP500      0.5328
     46  O1X       23.2890  -11.1760   33.2140 O.3   500  NAP500     -0.1145
     47  O2X       21.8920  -11.3940   31.0860 O.2   500  NAP500     -0.2224
     48  O3X       23.7770  -13.0390   31.5210 O.3   500  NAP500     -0.1145
@<TRIPOS>BOND
     1    40    39    2
     2    39    41   am
     3    39    38    1
     4    42    38    2
     5    42    43    1
     6    38    37    1
     7    43    44    2
     8    37    36    1
     9    44    36    1
    10    36    35    1
    11    26    24    2
    12    35    33    1
    13    35    30    1
    14    33    31    1
    15    33    34    1
    16    30    29    1
    17    24    27    1
    18    24    25    1
    19    24    23    1
    20    27    28    1
    21    31    29    1
    22    31    32    1
    23    23     1    1
    24    29    28    1
    25     2     1    2
    26     1     4    1
    27     1     3    1
    28     4     5    1
    29     5     6    1
    30     6     8    1
    31     6     7    1
    32     9     8    1
    33     8    10    1
    34     7    12    1
    35    10    12    1
    36    10    11    1
    37    12    13    1
    38    11    45    1
    39    47    45    2
    40    48    45    1
    41    13    14    1
    42    13    22    1
    43    45    46    1
    44    14    15    1
    45    21    22    2
    46    21    20    1
    47    22    16    1
    48    15    16    2
    49    20    19    1
    50    16    17    1
    51    19    17    2
    52    17    18    1
