@<TRIPOS>MOLECULE
2pd9_FID_A_1.pdb
 20 22 0 0 0
SMALL
GASTEIGER

@<TRIPOS>ATOM
      1  C2I       16.1220   -6.2810   19.3130 C.1   600  FID600      0.3075
      2  N4        15.2840   -5.8040   18.3310 N.2   600  FID600     -0.2446
      3  C5        15.7530   -6.2560   17.1470 C.1   600  FID600      0.2166
      4  C7I       17.0430   -7.0710   17.3380 C.3   600  FID600      0.2260
      5  C12       16.6080   -8.4930   17.0110 C.ar  600  FID600      0.0506
      6  C13       15.8620   -9.2830   17.8750 C.ar  600  FID600      0.0313
      7  C14       15.5100  -10.5550   17.5090 C.ar  600  FID600      0.1401
      8  F17       14.7760  -11.2860   18.3940 F     600  FID600     -0.2042
      9  C15       15.8490  -11.1110   16.3160 C.ar  600  FID600      0.0327
     10  C16       16.5890  -10.3330   15.4530 C.ar  600  FID600      0.0390
     11  C11       16.9950   -9.0510   15.7920 C.ar  600  FID600      0.1380
     12  O10       17.6930   -8.3530   14.8740 O.3   600  FID600     -0.4699
     13  C9        18.0620   -7.0130   15.0620 C.3   600  FID600      0.2477
     14  C19       19.2670   -6.6790   14.1860 C.2   600  FID600      0.3010
     15  N21       19.7400   -7.6700   13.3840 N.am  600  FID600     -0.0846
     16  O20       19.7410   -5.5420   14.2210 O.2   600  FID600     -0.2677
     17  C8I       18.2250   -6.5950   16.5020 C.3   600  FID600      0.0980
     18  N1I       17.1950   -6.9640   18.8020 N.2   600  FID600     -0.1582
     19  O6I       15.2350   -6.0450   16.0730 O.2   600  FID600     -0.2111
     20  O3I       16.0380   -6.0460   20.5280 O.2   600  FID600     -0.1881
@<TRIPOS>BOND
     1    15    14   am
     2    14    16    2
     3    14    13    1
     4    12    13    1
     5    12    11    1
     6    13    17    1
     7    10    11   ar
     8    10     9   ar
     9    11     5   ar
    10    19     3    2
    11     9     7   ar
    12    17     4    1
    13     5     4    1
    14     5     6   ar
    15     3     4    1
    16     3     2    2
    17     4    18    1
    18     7     6   ar
    19     7     8    1
    20     2     1    2
    21    18     1    2
    22     1    20    2
