@<TRIPOS>MOLECULE
2pda_TPP_A_1.pdb
 26 27 0 0 0
SMALL
GASTEIGER

@<TRIPOS>ATOM
      1  N1'      -26.9120  -63.8510   25.4070 N.2   1236  TPP1236    -0.1861
      2  C2'      -25.5880  -64.0780   25.7430 C.1   1236  TPP1236     0.0663
      3  CM2      -24.7860  -63.0420   26.4570 C.3   1236  TPP1236     0.1291
      4  N3'      -24.9970  -65.2150   25.4610 N.2   1236  TPP1236    -0.3368
      5  C4'      -25.7110  -66.2040   24.7990 C.2   1236  TPP1236     0.2289
      6  N4'      -25.0570  -67.3170   24.5380 N.pl3 1236  TPP1236    -0.0925
      7  C5'      -27.0690  -65.9990   24.4400 C.2   1236  TPP1236     0.0616
      8  C6'      -27.6030  -64.8180   24.7840 C.2   1236  TPP1236     0.1112
      9  C7'      -27.8920  -67.0470   23.7340 C.3   1236  TPP1236     0.1054
     10  N3       -27.2600  -67.3830   22.3790 N.3   1236  TPP1236    -0.2601
     11  C2       -26.2660  -68.1350   21.9530 C.3   1236  TPP1236     0.1316
     12  S1       -26.5190  -68.5970   20.3710 S.3   1236  TPP1236    -0.1220
     13  C5       -27.5020  -67.2030   20.1290 C.3   1236  TPP1236     0.0661
     14  C4       -27.6950  -66.5790   21.3400 C.3   1236  TPP1236     0.0686
     15  CM4      -28.4960  -65.3580   21.5240 C.3   1236  TPP1236     0.0183
     16  C6       -27.5940  -66.6640   18.7630 C.3   1236  TPP1236     0.0447
     17  C7       -26.5320  -67.1230   17.8090 C.3   1236  TPP1236     0.1501
     18  O7       -26.3190  -66.1800   16.7980 O.3   1236  TPP1236    -0.3138
     19  PA       -25.7030  -66.2830   15.3540 P.3   1236  TPP1236     0.2230
     20  O1A      -24.3960  -65.5850   15.4340 O.3   1236  TPP1236    -0.4370
     21  O2A      -26.6620  -65.9030   14.3180 O.2   1236  TPP1236    -0.5169
     22  O3A      -25.4100  -67.8220   15.3070 O.3   1236  TPP1236    -0.2261
     23  PB       -25.6350  -69.0240   14.2600 P.3   1236  TPP1236     0.5373
     24  O1B      -26.7180  -68.4980   13.3410 O.2   1236  TPP1236    -0.2221
     25  O2B      -24.3540  -69.1210   13.4400 O.3   1236  TPP1236    -0.1143
     26  O3B      -26.1240  -70.1340   15.0600 O.3   1236  TPP1236    -0.1143
@<TRIPOS>BOND
     1    24    23    2
     2    25    23    1
     3    23    26    1
     4    23    22    1
     5    21    19    2
     6    22    19    1
     7    19    20    1
     8    19    18    1
     9    18    17    1
    10    17    16    1
    11    16    13    1
    12    13    12    1
    13    13    14    1
    14    12    11    1
    15    14    15    1
    16    14    10    1
    17    11    10    1
    18    10     9    1
    19     9     7    1
    20     7     8    2
    21     7     5    1
    22     6     5    1
    23     8     1    1
    24     5     4    2
    25     1     2    2
    26     4     2    2
    27     2     3    1
