@<TRIPOS>MOLECULE
2pdb_ZST_A_1.pdb
 29 32 0 0 0
SMALL
GASTEIGER

@<TRIPOS>ATOM
      1  C1        20.5040    9.7830  -11.3450 C.ar  600  ZST600      0.2767
      2  O1        20.9760    8.6320  -11.3910 O.2   600  ZST600     -0.2655
      3  C2        20.8450   10.6950  -10.3060 C.ar  600  ZST600      0.0588
      4  C3        20.3060   11.9760  -10.2720 C.ar  600  ZST600      0.0204
      5  C4        19.4080   12.3050  -11.3370 C.ar  600  ZST600      0.0902
      6  C5        21.7350   10.2860   -9.2920 C.ar  600  ZST600      0.0048
      7  C6        22.0370   11.1880   -8.2810 C.ar  600  ZST600      0.0002
      8  C7        21.4970   12.4860   -8.2350 C.ar  600  ZST600      0.0000
      9  C8        20.6180   12.9010   -9.2270 C.ar  600  ZST600      0.0014
     10  N1        19.6280   10.2710  -12.2890 N.ar  600  ZST600     -0.2091
     11  N2        19.0630   11.5430  -12.3020 N.ar  600  ZST600     -0.1702
     12  C9        19.1960    9.4490  -13.4170 C.3   600  ZST600      0.1956
     13  C10       17.8680    8.8210  -12.8010 C.2   600  ZST600      0.1594
     14  C11       15.9330    7.9960  -11.3890 C.3   600  ZST600      0.1279
     15  C12       15.8850    7.7030  -12.7600 C.2   600  ZST600      0.1234
     16  C13       14.9380    7.6060  -10.4870 C.2   600  ZST600     -0.0083
     17  C14       13.8770    6.9090  -10.9800 C.2   600  ZST600      0.0006
     18  C15       13.7960    6.6060  -12.3230 C.2   600  ZST600      0.0734
     19  C16       14.7810    6.9910  -13.2230 C.2   600  ZST600      0.0326
     20  N3        16.9820    8.1820  -13.5060 N.2   600  ZST600     -0.4012
     21  S1        17.3600    8.8640  -11.0970 S.3   600  ZST600     -0.0740
     22  C17       18.8970   13.7500  -11.4550 C.3   600  ZST600      0.1613
     23  C18       17.6080   13.8970  -10.7420 C.2   600  ZST600      0.3709
     24  O2        17.0470   12.9230  -10.1550 O.co2 600  ZST600     -0.2452
     25  O3        17.1210   14.9970  -10.4640 O.co2 600  ZST600     -0.2452
     26  C19       12.6060    5.8440  -12.8210 C.3   600  ZST600      0.4186
     27  F1        11.4630    6.5860  -12.5180 F     600  ZST600     -0.1659
     28  F2        12.3720    4.6650  -12.4260 F     600  ZST600     -0.1659
     29  F3        12.5200    6.0100  -14.1270 F     600  ZST600     -0.1659
@<TRIPOS>BOND
     1    29    26    1
     2    20    13    2
     3    20    15    2
     4    12    13    1
     5    12    10    1
     6    19    15    1
     7    19    18    2
     8    26    27    1
     9    26    28    1
    10    26    18    1
    11    13    21    1
    12    15    14    1
    13    18    17    1
    14    11    10   ar
    15    11     5   ar
    16    10     1   ar
    17    22     5    1
    18    22    23    1
    19     2     1    2
    20    14    21    1
    21    14    16    1
    22     1     3   ar
    23     5     4   ar
    24    17    16    2
    25    23    25   ar
    26    23    24   ar
    27     3     4   ar
    28     3     6   ar
    29     4     9   ar
    30     6     7   ar
    31     9     8   ar
    32     7     8   ar
