@<TRIPOS>MOLECULE
2pdb_NAP_A_1.pdb
 48 52 0 0 0
SMALL
GASTEIGER

@<TRIPOS>ATOM
      1  PA        21.9800   21.3830  -17.8470 P.3   500  NAP500      0.2189
      2  O1A       21.3700   20.9890  -19.1350 O.2   500  NAP500     -0.5170
      3  O2A       21.4510   22.5660  -17.1570 O.3   500  NAP500     -0.4371
      4  O5B       23.5560   21.4800  -18.1680 O.3   500  NAP500     -0.3112
      5  C5B       24.4380   21.8200  -17.0940 C.3   500  NAP500      0.1813
      6  C4B       25.8680   21.6250  -17.6970 C.3   500  NAP500      0.1820
      7  O4B       26.0730   22.7270  -18.6690 O.3   500  NAP500     -0.3136
      8  C3B       27.0080   21.8080  -16.6560 C.3   500  NAP500      0.2157
      9  O3B       28.0790   20.9490  -17.1060 O.3   500  NAP500     -0.2175
     10  C2B       27.3610   23.3220  -16.8690 C.3   500  NAP500      0.2314
     11  O2B       28.7300   23.5390  -16.5060 O.3   500  NAP500     -0.2630
     12  C1B       27.1160   23.5700  -18.3470 C.3   500  NAP500      0.3158
     13  N9A       26.7980   24.9210  -18.6680 N.pl3 500  NAP500     -0.1439
     14  C8A       25.9390   25.8250  -18.0900 C.3   500  NAP500      0.3377
     15  N7A       25.8500   26.9940  -18.6720 N.2   500  NAP500     -0.2095
     16  C5A       26.7330   26.8540  -19.7410 C.2   500  NAP500      0.2526
     17  C6A       27.0270   27.8230  -20.7020 C.2   500  NAP500      0.4393
     18  N6A       26.5150   29.0500  -20.7580 N.pl3 500  NAP500      0.2180
     19  N1A       27.9640   27.4140  -21.6640 N.2   500  NAP500      0.0021
     20  C2A       28.4910   26.1380  -21.5990 C.3   500  NAP500      0.5254
     21  N3A       28.1950   25.2010  -20.6510 N.2   500  NAP500     -0.0055
     22  C4A       27.2910   25.6020  -19.7180 C.2   500  NAP500      0.3518
     23  O3        21.9740   20.1160  -16.8750 O.3   500  NAP500     -0.2703
     24  PN        21.2270   19.5330  -15.5940 P.3   500  NAP500      0.2189
     25  O1N       21.9890   19.9420  -14.3980 O.3   500  NAP500     -0.4371
     26  O2N       20.9890   18.0800  -15.8820 O.2   500  NAP500     -0.5170
     27  O5D       19.7320   20.1300  -15.6520 O.3   500  NAP500     -0.3112
     28  C5D       19.4460   21.4480  -15.0930 C.3   500  NAP500      0.1813
     29  C4D       18.8450   21.2580  -13.7200 C.3   500  NAP500      0.1799
     30  O4D       17.5330   20.5840  -13.8210 O.3   500  NAP500     -0.3327
     31  C3D       19.5730   20.3670  -12.6880 C.3   500  NAP500      0.2158
     32  O3D       20.7310   20.9490  -12.1550 O.3   500  NAP500     -0.2175
     33  C2D       18.4460   20.0640  -11.6880 C.3   500  NAP500      0.2309
     34  O2D       18.2420   21.2260  -10.8660 O.3   500  NAP500     -0.2158
     35  C1D       17.2740   19.8410  -12.6080 C.3   500  NAP500      0.2263
     36  N1N       17.0320   18.4090  -13.0390 N.pl3 500  NAP500     -0.2787
     37  C2N       15.9140   17.8140  -12.4760 C.3   500  NAP500      0.1244
     38  C3N       15.7740   16.4500  -12.7240 C.2   500  NAP500      0.0544
     39  C7N       14.5590   15.7170  -12.1390 C.2   500  NAP500      0.2818
     40  O7N       14.5340   14.4990  -12.2660 O.2   500  NAP500     -0.2670
     41  N7N       13.5410   16.4960  -11.8350 N.am  500  NAP500     -0.0839
     42  C4N       16.7120   15.6800  -13.5060 C.2   500  NAP500      0.0033
     43  C5N       17.8300   16.3350  -14.0510 C.2   500  NAP500      0.0157
     44  C6N       17.9850   17.7270  -13.8220 C.2   500  NAP500      0.0633
     45  P2B       29.2380   24.2570  -15.1280 P.3   500  NAP500      0.5328
     46  O1X       29.4210   25.7560  -15.5200 O.2   500  NAP500     -0.2224
     47  O2X       28.1970   24.0040  -14.0690 O.3   500  NAP500     -0.1145
     48  O3X       30.5700   23.5600  -14.8680 O.3   500  NAP500     -0.1145
@<TRIPOS>BOND
     1    19    20    1
     2    19    17    2
     3    20    21    1
     4    18    17    1
     5    17    16    1
     6    21    22    2
     7    16    22    1
     8    16    15    2
     9    22    13    1
    10     2     1    2
    11    15    14    1
    12     7    12    1
    13     7     6    1
    14    13    12    1
    15    13    14    1
    16    12    10    1
    17     4     1    1
    18     4     5    1
    19     1     3    1
    20     1    23    1
    21     6     5    1
    22     6     8    1
    23     9     8    1
    24    23    24    1
    25    10     8    1
    26    10    11    1
    27    11    45    1
    28    26    24    2
    29    27    24    1
    30    27    28    1
    31    24    25    1
    32    46    45    2
    33    45    48    1
    34    45    47    1
    35    28    29    1
    36    43    44    2
    37    43    42    1
    38    44    36    1
    39    30    29    1
    40    30    35    1
    41    29    31    1
    42    42    38    2
    43    36    35    1
    44    36    37    1
    45    38    37    1
    46    38    39    1
    47    31    32    1
    48    31    33    1
    49    35    33    1
    50    40    39    2
    51    39    41   am
    52    33    34    1
