@<TRIPOS>MOLECULE
2pdc_NAP_A_1.pdb
 48 52 0 0 0
SMALL
GASTEIGER

@<TRIPOS>ATOM
      1  PA       -22.0150   14.0530  -24.1420 P.3   500  NAP500      0.2189
      2  O1A      -21.3660   15.3610  -23.9420 O.3   500  NAP500     -0.4371
      3  O2A      -21.4730   13.1020  -25.1180 O.2   500  NAP500     -0.5170
      4  O5B      -23.5880   14.3490  -24.2750 O.3   500  NAP500     -0.3112
      5  C5B      -24.4460   13.2160  -24.4110 C.3   500  NAP500      0.1813
      6  C4B      -25.8880   13.8260  -24.3360 C.3   500  NAP500      0.1820
      7  O4B      -26.0160   14.5530  -25.6030 O.3   500  NAP500     -0.3136
      8  C3B      -26.9900   12.7100  -24.3990 C.3   500  NAP500      0.2157
      9  O3B      -28.0180   13.2340  -23.5630 O.3   500  NAP500     -0.2175
     10  C2B      -27.4240   12.7370  -25.8990 C.3   500  NAP500      0.2314
     11  O2B      -28.8020   12.3770  -26.0380 O.3   500  NAP500     -0.2630
     12  C1B      -27.1520   14.1710  -26.3220 C.3   500  NAP500      0.3158
     13  N9A      -26.8310   14.2660  -27.7090 N.pl3 500  NAP500     -0.1439
     14  C8A      -25.9770   13.5050  -28.4560 C.3   500  NAP500      0.3377
     15  N7A      -25.8990   13.8530  -29.7280 N.2   500  NAP500     -0.2095
     16  C5A      -26.7780   14.9150  -29.7790 C.2   500  NAP500      0.2526
     17  C6A      -27.0950   15.6870  -30.9070 C.2   500  NAP500      0.4393
     18  N6A      -26.5710   15.4800  -32.1070 N.pl3 500  NAP500      0.2180
     19  N1A      -28.0090   16.7070  -30.6930 N.2   500  NAP500      0.0021
     20  C2A      -28.5690   16.9370  -29.4310 C.3   500  NAP500      0.5254
     21  N3A      -28.2470   16.1700  -28.3390 N.2   500  NAP500     -0.0055
     22  C4A      -27.3340   15.1630  -28.5580 C.2   500  NAP500      0.3518
     23  O3       -22.0590   13.3590  -22.6730 O.3   500  NAP500     -0.2703
     24  PN       -21.2460   12.1920  -21.9210 P.3   500  NAP500      0.2189
     25  O1N      -22.0130   10.9170  -22.0300 O.2   500  NAP500     -0.5170
     26  O2N      -21.0240   12.6670  -20.5110 O.3   500  NAP500     -0.4371
     27  O5D      -19.7980   12.1460  -22.5720 O.3   500  NAP500     -0.3112
     28  C5D      -19.4580   11.3520  -23.7110 C.3   500  NAP500      0.1813
     29  C4D      -18.8240   10.0360  -23.3170 C.3   500  NAP500      0.1799
     30  O4D      -17.5880   10.2640  -22.5560 O.3   500  NAP500     -0.3327
     31  C3D      -19.5850    9.1300  -22.2930 C.3   500  NAP500      0.2158
     32  O3D      -20.7590    8.5360  -22.7800 O.3   500  NAP500     -0.2175
     33  C2D      -18.4600    8.2070  -21.8380 C.3   500  NAP500      0.2309
     34  O2D      -18.2210    7.2460  -22.8820 O.3   500  NAP500     -0.2158
     35  C1D      -17.2740    9.1290  -21.7280 C.3   500  NAP500      0.2263
     36  N1N      -17.0240    9.7810  -20.3700 N.pl3 500  NAP500     -0.2787
     37  C2N      -15.8700    9.3460  -19.7350 C.3   500  NAP500      0.1244
     38  C3N      -15.6810    9.8500  -18.4560 C.2   500  NAP500      0.0544
     39  C7N      -14.4390    9.4340  -17.6660 C.2   500  NAP500      0.2818
     40  O7N      -14.4550    9.7870  -16.4890 O.2   500  NAP500     -0.2670
     41  N7N      -13.4100    9.0320  -18.3610 N.am  500  NAP500     -0.0839
     42  C4N      -16.6180   10.7470  -17.8520 C.2   500  NAP500      0.0033
     43  C5N      -17.7740   11.1620  -18.5350 C.2   500  NAP500      0.0157
     44  C6N      -18.0000   10.6720  -19.8540 C.2   500  NAP500      0.0633
     45  P2B      -29.3070   10.8830  -26.5340 P.3   500  NAP500      0.5328
     46  O1X      -29.4730   10.9920  -28.0780 O.2   500  NAP500     -0.2224
     47  O2X      -28.2950    9.8550  -26.1350 O.3   500  NAP500     -0.1145
     48  O3X      -30.6320   10.7210  -25.7870 O.3   500  NAP500     -0.1145
@<TRIPOS>BOND
     1    18    17    1
     2    17    19    2
     3    17    16    1
     4    19    20    1
     5    16    15    2
     6    16    22    1
     7    15    14    1
     8    20    21    1
     9    22    21    2
    10    22    13    1
    11    14    13    1
    12    46    45    2
    13    13    12    1
    14    45    47    1
    15    45    11    1
    16    45    48    1
    17    12    10    1
    18    12     7    1
    19    11    10    1
    20    10     8    1
    21     7     6    1
    22     3     1    2
    23     5     6    1
    24     5     4    1
    25     8     6    1
    26     8     9    1
    27     4     1    1
    28     1     2    1
    29     1    23    1
    30    28    29    1
    31    28    27    1
    32    29    30    1
    33    29    31    1
    34    34    33    1
    35    32    31    1
    36    23    24    1
    37    27    24    1
    38    30    35    1
    39    31    33    1
    40    25    24    2
    41    24    26    1
    42    33    35    1
    43    35    36    1
    44    36    44    1
    45    36    37    1
    46    44    43    2
    47    37    38    1
    48    43    42    1
    49    38    42    2
    50    38    39    1
    51    41    39   am
    52    39    40    2
