@<TRIPOS>MOLECULE
2pdc_393_A_1.pdb
 25 26 0 0 0
SMALL
GASTEIGER

@<TRIPOS>ATOM
      1  C1       -14.5710   11.4640   -9.0290 C.ar  600  393600      0.1426
      2  N2       -13.8170   12.4730   -8.4460 N.pl3 600  393600      0.0577
      3  O3       -12.8570   12.2200   -7.7030 O.2   600  393600     -0.1261
      4  O4       -14.1810   13.6260   -8.7250 O.2   600  393600     -0.1261
      5  C5       -15.6540   11.7590   -9.8740 C.ar  600  393600      0.0215
      6  C6       -16.4090   10.6890  -10.4060 C.ar  600  393600      0.0011
      7  C7       -17.5440   11.0770  -11.3450 C.3   600  393600      0.1418
      8  N8       -18.2440    9.9800  -11.9480 N.am  600  393600     -0.1967
      9  C9       -19.4630    9.5920  -11.5170 C.2   600  393600      0.2680
     10  C10      -20.0940    8.4450  -12.2540 C.ar  600  393600      0.0890
     11  C11      -20.6850    7.3850  -11.5940 C.ar  600  393600      0.0085
     12  C12      -21.2910    6.2820  -12.1850 C.ar  600  393600      0.0117
     13  C13      -21.3020    6.2500  -13.5870 C.ar  600  393600      0.0607
     14 CL1       -21.9880    4.9770  -14.1450 Cl    600  393600     -0.0821
     15  C15      -20.7130    7.3050  -14.2780 C.ar  600  393600      0.0484
     16  C16      -20.1130    8.3940  -13.6710 C.ar  600  393600      0.1446
     17  O17      -19.5370    9.4270  -14.3640 O.3   600  393600     -0.4635
     18  C18      -19.0620    9.1010  -15.6850 C.3   600  393600      0.3186
     19  C19      -17.6690    8.5550  -15.5030 C.2   600  393600      0.4084
     20  O20      -17.1400    7.9920  -16.5740 O.co2 600  393600     -0.2415
     21  O21      -17.0380    8.6020  -14.4690 O.co2 600  393600     -0.2415
     22  O22      -19.9730   10.0410  -10.4940 O.2   600  393600     -0.2682
     23  C23      -16.0520    9.3740  -10.1720 C.ar  600  393600     -0.0025
     24  C24      -14.9760    9.0700   -9.3260 C.ar  600  393600      0.0014
     25  C25      -14.2440   10.1370   -8.7680 C.ar  600  393600      0.0241
@<TRIPOS>BOND
     1    20    19   ar
     2    18    19    1
     3    18    17    1
     4    19    21   ar
     5    17    16    1
     6    15    16   ar
     7    15    13   ar
     8    14    13    1
     9    16    10   ar
    10    13    12   ar
    11    10    11   ar
    12    10     9    1
    13    12    11   ar
    14     8     9   am
    15     8     7    1
    16     9    22    2
    17     7     6    1
    18     6    23   ar
    19     6     5   ar
    20    23    24   ar
    21     5     1   ar
    22    24    25   ar
    23     1    25   ar
    24     1     2    1
    25     4     2    2
    26     2     3    2
