@<TRIPOS>MOLECULE
2pdf_NAP_A_1.pdb
 48 52 0 0 0
SMALL
GASTEIGER

@<TRIPOS>ATOM
      1  PA         9.3350    0.2600   -5.6760 P.3   500  NAP500      0.2189
      2  O1A        8.7750   -0.1110   -6.9860 O.2   500  NAP500     -0.5170
      3  O2A        8.8340    1.4240   -4.9510 O.3   500  NAP500     -0.4371
      4  O5B       10.9170    0.3750   -5.9900 O.3   500  NAP500     -0.3112
      5  C5B       11.8100    0.7360   -4.9460 C.3   500  NAP500      0.1813
      6  C4B       13.2400    0.5450   -5.5530 C.3   500  NAP500      0.1820
      7  O4B       13.4340    1.5930   -6.4560 O.3   500  NAP500     -0.3136
      8  C3B       14.3660    0.7350   -4.4860 C.3   500  NAP500      0.2157
      9  O3B       15.4350   -0.1610   -4.8670 O.3   500  NAP500     -0.2175
     10  C2B       14.7450    2.2260   -4.6560 C.3   500  NAP500      0.2314
     11  O2B       16.1120    2.4200   -4.2840 O.3   500  NAP500     -0.2630
     12  C1B       14.5180    2.4230   -6.1260 C.3   500  NAP500      0.3158
     13  N9A       14.1790    3.7820   -6.4570 N.pl3 500  NAP500     -0.1439
     14  C8A       13.3080    4.6520   -5.8190 C.3   500  NAP500      0.3377
     15  N7A       13.2220    5.8400   -6.3790 N.2   500  NAP500     -0.2095
     16  C5A       14.0920    5.7390   -7.4500 C.2   500  NAP500      0.2526
     17  C6A       14.3940    6.7340   -8.4060 C.2   500  NAP500      0.4393
     18  N6A       13.8840    7.9620   -8.4390 N.pl3 500  NAP500      0.2180
     19  N1A       15.3280    6.3340   -9.3890 N.2   500  NAP500      0.0021
     20  C2A       15.8840    5.0730   -9.4020 C.3   500  NAP500      0.5254
     21  N3A       15.5840    4.1060   -8.4660 N.2   500  NAP500     -0.0055
     22  C4A       14.6610    4.4870   -7.4800 C.2   500  NAP500      0.3518
     23  O3         9.3580   -1.0530   -4.7440 O.3   500  NAP500     -0.2703
     24  PN         8.5890   -1.6290   -3.4670 P.3   500  NAP500      0.2189
     25  O1N        9.3050   -1.2620   -2.2210 O.3   500  NAP500     -0.4371
     26  O2N        8.3370   -3.0710   -3.7170 O.2   500  NAP500     -0.5170
     27  O5D        7.1050   -1.0020   -3.5030 O.3   500  NAP500     -0.3112
     28  C5D        6.8410    0.3140   -2.9370 C.3   500  NAP500      0.1813
     29  C4D        6.1730    0.1760   -1.5940 C.3   500  NAP500      0.1799
     30  O4D        4.8890   -0.5730   -1.6570 O.3   500  NAP500     -0.3327
     31  C3D        6.9030   -0.6900   -0.5190 C.3   500  NAP500      0.2158
     32  O3D        8.0770   -0.1430    0.0410 O.3   500  NAP500     -0.2175
     33  C2D        5.7740   -1.0020    0.4470 C.3   500  NAP500      0.2309
     34  O2D        5.5530    0.1330    1.3090 O.3   500  NAP500     -0.2158
     35  C1D        4.5730   -1.2470   -0.4240 C.3   500  NAP500      0.2263
     36  N1N        4.3370   -2.7110   -0.8000 N.pl3 500  NAP500     -0.2787
     37  C2N        3.2070   -3.3180   -0.2540 C.3   500  NAP500      0.1244
     38  C3N        3.0790   -4.6870   -0.5730 C.2   500  NAP500      0.0544
     39  C7N        1.8400   -5.4130    0.0030 C.2   500  NAP500      0.2818
     40  O7N        1.8040   -6.6340   -0.1270 O.2   500  NAP500     -0.2670
     41  N7N        0.8480   -4.6400    0.3650 N.am  500  NAP500     -0.0839
     42  C4N        4.0230   -5.3920   -1.3830 C.2   500  NAP500      0.0033
     43  C5N        5.1760   -4.7300   -1.9240 C.2   500  NAP500      0.0157
     44  C6N        5.3240   -3.3640   -1.6310 C.2   500  NAP500      0.0633
     45  P2B       16.6560    3.1510   -2.9570 P.3   500  NAP500      0.5328
     46  O1X       16.7990    4.6640   -3.3050 O.2   500  NAP500     -0.2224
     47  O2X       15.6310    2.9730   -1.8710 O.3   500  NAP500     -0.1145
     48  O3X       18.0120    2.5110   -2.6290 O.3   500  NAP500     -0.1145
@<TRIPOS>BOND
     1    20    19    1
     2    20    21    1
     3    19    17    2
     4    21    22    2
     5    18    17    1
     6    17    16    1
     7    22    16    1
     8    22    13    1
     9    16    15    2
    10     2     1    2
    11    13    12    1
    12    13    14    1
    13     7    12    1
    14     7     6    1
    15    15    14    1
    16    12    10    1
    17     4     1    1
    18     4     5    1
    19     1     3    1
    20     1    23    1
    21     6     5    1
    22     6     8    1
    23     9     8    1
    24    23    24    1
    25    10     8    1
    26    10    11    1
    27    11    45    1
    28    26    24    2
    29    27    24    1
    30    27    28    1
    31    24    25    1
    32    46    45    2
    33    45    48    1
    34    45    47    1
    35    28    29    1
    36    43    44    2
    37    43    42    1
    38    30    29    1
    39    30    35    1
    40    44    36    1
    41    29    31    1
    42    42    38    2
    43    36    35    1
    44    36    37    1
    45    38    37    1
    46    38    39    1
    47    31    32    1
    48    31    33    1
    49    35    33    1
    50    40    39    2
    51    39    41   am
    52    33    34    1
