@<TRIPOS>MOLECULE
2pdf_ZST_A_1.pdb
 29 32 0 0 0
SMALL
GASTEIGER

@<TRIPOS>ATOM
      1  C1         7.8200  -11.2960    0.9790 C.ar  600  ZST600      0.2767
      2  O1         8.2290  -12.4560    0.9670 O.2   600  ZST600     -0.2655
      3  C2         8.1200  -10.3690    2.0190 C.ar  600  ZST600      0.0588
      4  C3         7.6270   -9.0600    1.9850 C.ar  600  ZST600      0.0204
      5  C4         6.7980   -8.7210    0.8650 C.ar  600  ZST600      0.0902
      6  C5         8.9430  -10.7910    3.0810 C.ar  600  ZST600      0.0048
      7  C6         9.2390   -9.8760    4.0900 C.ar  600  ZST600      0.0002
      8  C7         8.7320   -8.5610    4.0610 C.ar  600  ZST600      0.0000
      9  C8         7.9370   -8.1470    3.0250 C.ar  600  ZST600      0.0014
     10  N1         7.0060  -10.8030   -0.0210 N.ar  600  ZST600     -0.2091
     11  N2         6.5040   -9.5330   -0.0800 N.ar  600  ZST600     -0.1702
     12  C9         6.5840  -11.6170   -1.1710 C.3   600  ZST600      0.1956
     13  C10        5.2220  -12.2350   -0.6000 C.2   600  ZST600      0.1594
     14  C11        3.2160  -13.0820    0.7890 C.3   600  ZST600      0.1279
     15  C12        3.1840  -13.2870   -0.6010 C.2   600  ZST600      0.1234
     16  C13        2.1850  -13.5040    1.6510 C.2   600  ZST600     -0.0083
     17  C14        1.1110  -14.1330    1.0790 C.2   600  ZST600      0.0006
     18  C15        1.0450  -14.3490   -0.2790 C.2   600  ZST600      0.0734
     19  C16        2.0580  -13.9430   -1.1430 C.2   600  ZST600      0.0326
     20  N3         4.2990  -12.8100   -1.3110 N.2   600  ZST600     -0.4012
     21  S1         4.7080  -12.2700    1.0970 S.3   600  ZST600     -0.0740
     22  C17        6.1910   -7.3300    0.6950 C.3   600  ZST600      0.1613
     23  C18        4.9380   -7.1650    1.4840 C.2   600  ZST600      0.3709
     24  O2         4.3000   -8.1570    1.9410 O.co2 600  ZST600     -0.2452
     25  O3         4.4880   -6.0170    1.7510 O.co2 600  ZST600     -0.2452
     26  C19       -0.1500  -15.0500   -0.8620 C.3   600  ZST600      0.4186
     27  F1        -1.3130  -14.4660   -0.4720 F     600  ZST600     -0.1659
     28  F2        -0.1970  -16.3040   -0.6300 F     600  ZST600     -0.1659
     29  F3        -0.2760  -14.8110   -2.1590 F     600  ZST600     -0.1659
@<TRIPOS>BOND
     1    29    26    1
     2    20    15    2
     3    20    13    2
     4    12    13    1
     5    12    10    1
     6    19    15    1
     7    19    18    2
     8    26    28    1
     9    26    27    1
    10    26    18    1
    11    15    14    1
    12    13    21    1
    13    18    17    1
    14    11    10   ar
    15    11     5   ar
    16    10     1   ar
    17    22     5    1
    18    22    23    1
    19    14    21    1
    20    14    16    1
    21     5     4   ar
    22     2     1    2
    23     1     3   ar
    24    17    16    2
    25    23    25   ar
    26    23    24   ar
    27     4     3   ar
    28     4     9   ar
    29     3     6   ar
    30     9     8   ar
    31     6     7   ar
    32     8     7   ar
