@<TRIPOS>MOLECULE
2pdg_47D_A_1.pdb
 23 25 0 0 0
SMALL
GASTEIGER

@<TRIPOS>ATOM
      1  C1        17.3440   -4.6440   11.6970 C.2   600  47D600      0.1243
      2  N         18.3780   -5.0510   12.4470 N.2   600  47D600     -0.4012
      3  C2        18.1310   -5.9540   13.3030 C.2   600  47D600      0.1577
      4  C3        19.1330   -6.4540   14.3310 C.3   600  47D600      0.1789
      5  N2        18.4570   -7.2980   15.2910 N.ar  600  47D600     -0.2412
      6  C4        17.9080   -6.7920   16.4300 C.ar  600  47D600      0.3346
      7  O1        18.0580   -5.5820   16.6520 O.2   600  47D600     -0.2462
      8  N3        17.2480   -7.5340   17.2700 N.ar  600  47D600     -0.2688
      9  C5        16.5870   -6.9570   18.4460 C.3   600  47D600      0.2246
     10  C6        15.3410   -6.1980   18.0120 C.2   600  47D600      0.3876
     11  O2        14.8070   -5.5400   19.0210 O.co2 600  47D600     -0.2435
     12  O3        14.9020   -6.1640   16.8640 O.co2 600  47D600     -0.2435
     13  C7        17.0790   -8.8390   17.0380 C.ar  600  47D600      0.0852
     14  C8        17.5800   -9.4270   15.9480 C.ar  600  47D600      0.0796
     15  C9        18.3450   -8.6210   14.9820 C.ar  600  47D600      0.2662
     16  O4        18.8330   -9.0840   13.9420 O.2   600  47D600     -0.2668
     17  S         16.4380   -6.5110   13.3470 S.3   600  47D600     -0.0740
     18  C10       16.1970   -5.3470   12.0450 C.3   600  47D600      0.1280
     19  C12       14.9620   -5.1350   11.4340 C.2   600  47D600     -0.0074
     20  C13       14.9010   -4.1850   10.4340 C.2   600  47D600      0.0082
     21  C14       16.0740   -3.4950   10.0950 C.2   600  47D600      0.0596
     22 CL         15.9440   -2.3090    8.8400 Cl    600  47D600     -0.0822
     23  C15       17.3220   -3.7710   10.6220 C.2   600  47D600      0.0401
@<TRIPOS>BOND
     1    22    21    1
     2    21    20    1
     3    21    23    2
     4    20    19    2
     5    23     1    1
     6    19    18    1
     7     1    18    1
     8     1     2    2
     9    18    17    1
    10     2     3    2
    11     3    17    1
    12     3     4    1
    13    16    15    2
    14     4     5    1
    15    15     5   ar
    16    15    14   ar
    17     5     6   ar
    18    14    13   ar
    19     6     7    2
    20     6     8   ar
    21    12    10   ar
    22    13     8   ar
    23     8     9    1
    24    10     9    1
    25    10    11   ar
