@<TRIPOS>MOLECULE
2pdg_NAP_A_1.pdb
 48 52 0 0 0
SMALL
GASTEIGER

@<TRIPOS>ATOM
      1  PA        22.4470   -4.8570   26.8800 P.3   500  NAP500      0.2189
      2  O1A       23.4130   -3.8320   26.4250 O.2   500  NAP500     -0.5170
      3  O2A       21.3890   -4.4730   27.8140 O.3   500  NAP500     -0.4371
      4  O5B       23.3980   -6.0540   27.3690 O.3   500  NAP500     -0.3112
      5  C5B       22.7590   -7.1920   27.9400 C.3   500  NAP500      0.1813
      6  C4B       23.9610   -8.1630   28.2280 C.3   500  NAP500      0.1820
      7  O4B       24.6820   -7.5920   29.2990 O.3   500  NAP500     -0.3136
      8  C3B       23.5030   -9.5650   28.7120 C.3   500  NAP500      0.2157
      9  O3B       24.4660  -10.4990   28.1890 O.3   500  NAP500     -0.2175
     10  C2B       23.6250   -9.4410   30.2480 C.3   500  NAP500      0.2314
     11  O2B       23.9110  -10.7310   30.7890 O.3   500  NAP500     -0.2630
     12  C1B       24.8190   -8.5080   30.3650 C.3   500  NAP500      0.3158
     13  N9A       24.7430   -7.7490   31.6000 N.pl3 500  NAP500     -0.1439
     14  C8A       23.6660   -7.0830   32.1560 C.3   500  NAP500      0.3377
     15  N7A       23.9360   -6.4810   33.2730 N.2   500  NAP500     -0.2095
     16  C5A       25.2710   -6.7530   33.4880 C.2   500  NAP500      0.2526
     17  C6A       26.0670   -6.3340   34.5750 C.2   500  NAP500      0.4393
     18  N6A       25.6700   -5.5780   35.6140 N.pl3 500  NAP500      0.2180
     19  N1A       27.3820   -6.7980   34.4540 N.2   500  NAP500      0.0021
     20  C2A       27.8960   -7.5800   33.4270 C.3   500  NAP500      0.5254
     21  N3A       27.0770   -7.9750   32.3830 N.2   500  NAP500     -0.0055
     22  C4A       25.7560   -7.5320   32.4470 C.2   500  NAP500      0.3518
     23  O3        21.8450   -5.5500   25.5740 O.3   500  NAP500     -0.2703
     24  PN        20.4590   -5.6460   24.7580 P.3   500  NAP500      0.2189
     25  O1N       19.6720   -6.7470   25.2800 O.3   500  NAP500     -0.4371
     26  O2N       20.8500   -5.6180   23.3070 O.2   500  NAP500     -0.5170
     27  O5D       19.7170   -4.2230   25.0030 O.3   500  NAP500     -0.3112
     28  C5D       18.8480   -3.9400   26.1650 C.3   500  NAP500      0.1813
     29  C4D       17.3870   -4.0730   25.7400 C.3   500  NAP500      0.1799
     30  O4D       17.0860   -3.0950   24.7180 O.3   500  NAP500     -0.3327
     31  C3D       16.9540   -5.3790   24.9820 C.3   500  NAP500      0.2158
     32  O3D       16.9260   -6.4910   25.8580 O.3   500  NAP500     -0.2175
     33  C2D       15.6180   -4.8830   24.3830 C.3   500  NAP500      0.2309
     34  O2D       14.6760   -4.8780   25.4850 O.3   500  NAP500     -0.2158
     35  C1D       15.9750   -3.4920   23.9050 C.3   500  NAP500      0.2263
     36  N1N       16.4550   -3.4640   22.4490 N.pl3 500  NAP500     -0.2787
     37  C2N       15.5340   -2.8950   21.5910 C.3   500  NAP500      0.1244
     38  C3N       15.8940   -2.9560   20.2250 C.2   500  NAP500      0.0544
     39  C7N       14.9490   -2.3450   19.1750 C.2   500  NAP500      0.2818
     40  O7N       15.1930   -2.5780   18.0040 O.2   500  NAP500     -0.2670
     41  N7N       14.1180   -1.4210   19.6130 N.am  500  NAP500     -0.0839
     42  C4N       17.1320   -3.5780   19.7750 C.2   500  NAP500      0.0033
     43  C5N       18.0320   -4.1370   20.7130 C.2   500  NAP500      0.0157
     44  C6N       17.6780   -4.0600   22.0810 C.2   500  NAP500      0.0633
     45  P2B       22.8140  -11.6560   31.6130 P.3   500  NAP500      0.5328
     46  O1X       22.9990  -11.1760   33.1040 O.3   500  NAP500     -0.1145
     47  O2X       21.4990  -11.3340   31.0090 O.2   500  NAP500     -0.2224
     48  O3X       23.3580  -13.0460   31.3630 O.3   500  NAP500     -0.1145
@<TRIPOS>BOND
     1    40    39    2
     2    39    41   am
     3    39    38    1
     4    42    38    2
     5    42    43    1
     6    38    37    1
     7    43    44    2
     8    37    36    1
     9    44    36    1
    10    36    35    1
    11    26    24    2
    12    35    33    1
    13    35    30    1
    14    33    31    1
    15    33    34    1
    16    30    29    1
    17    24    27    1
    18    24    25    1
    19    24    23    1
    20    31    29    1
    21    31    32    1
    22    27    28    1
    23    23     1    1
    24    29    28    1
    25     2     1    2
    26     1     4    1
    27     1     3    1
    28     4     5    1
    29     5     6    1
    30     9     8    1
    31     6     8    1
    32     6     7    1
    33     8    10    1
    34     7    12    1
    35    10    12    1
    36    10    11    1
    37    12    13    1
    38    11    45    1
    39    47    45    2
    40    48    45    1
    41    13    14    1
    42    13    22    1
    43    45    46    1
    44    14    15    1
    45    21    22    2
    46    21    20    1
    47    22    16    1
    48    15    16    2
    49    20    19    1
    50    16    17    1
    51    19    17    2
    52    17    18    1
