@<TRIPOS>MOLECULE
2pdh_NAP_A_1.pdb
 48 52 0 0 0
SMALL
GASTEIGER

@<TRIPOS>ATOM
      1  PA        -9.0890    5.4010   -1.3590 P.3   500  NAP500      0.2189
      2  O1A       -8.4960    6.7100   -1.1640 O.3   500  NAP500     -0.4371
      3  O2A       -8.5770    4.4650   -2.3920 O.2   500  NAP500     -0.5170
      4  O5B      -10.6650    5.6570   -1.5550 O.3   500  NAP500     -0.3112
      5  C5B      -11.5180    4.5370   -1.6970 C.3   500  NAP500      0.1813
      6  C4B      -12.9520    5.1450   -1.6390 C.3   500  NAP500      0.1820
      7  O4B      -13.1160    5.8770   -2.8270 O.3   500  NAP500     -0.3136
      8  C3B      -14.0570    4.0350   -1.6670 C.3   500  NAP500      0.2157
      9  O3B      -15.1350    4.6000   -0.8870 O.3   500  NAP500     -0.2175
     10  C2B      -14.3920    3.9690   -3.1570 C.3   500  NAP500      0.2314
     11  O2B      -15.7860    3.6190   -3.3160 O.3   500  NAP500     -0.2630
     12  C1B      -14.2200    5.4170   -3.5700 C.3   500  NAP500      0.3158
     13  N9A      -13.9010    5.4750   -4.9740 N.pl3 500  NAP500     -0.1439
     14  C8A      -13.0500    4.7330   -5.7600 C.3   500  NAP500      0.3377
     15  N7A      -12.9670    5.1170   -7.0130 N.2   500  NAP500     -0.2095
     16  C5A      -13.8260    6.1980   -7.0640 C.2   500  NAP500      0.2526
     17  C6A      -14.1280    6.9980   -8.1880 C.2   500  NAP500      0.4393
     18  N6A      -13.6100    6.8370   -9.4140 N.pl3 500  NAP500      0.2180
     19  N1A      -15.0480    8.0250   -7.9400 N.2   500  NAP500      0.0021
     20  C2A      -15.6020    8.2360   -6.6760 C.3   500  NAP500      0.5254
     21  N3A      -15.2950    7.4290   -5.5980 N.2   500  NAP500     -0.0055
     22  C4A      -14.3900    6.4050   -5.8220 C.2   500  NAP500      0.3518
     23  O3        -9.1120    4.6760    0.0890 O.3   500  NAP500     -0.2703
     24  PN        -8.2980    3.5210    0.8670 P.3   500  NAP500      0.2189
     25  O1N       -9.0560    2.2490    0.6730 O.2   500  NAP500     -0.5170
     26  O2N       -8.0930    4.0200    2.2360 O.3   500  NAP500     -0.4371
     27  O5D       -6.8190    3.4860    0.2350 O.3   500  NAP500     -0.3112
     28  C5D       -6.5080    2.6840   -0.9540 C.3   500  NAP500      0.1813
     29  C4D       -5.8710    1.3740   -0.5230 C.3   500  NAP500      0.1799
     30  O4D       -4.6080    1.6030    0.1920 O.3   500  NAP500     -0.3327
     31  C3D       -6.6400    0.5080    0.5110 C.3   500  NAP500      0.2158
     32  O3D       -7.7820   -0.1600    0.0550 O.3   500  NAP500     -0.2175
     33  C2D       -5.4940   -0.4350    1.0440 C.3   500  NAP500      0.2309
     34  O2D       -5.2590   -1.4260    0.0230 O.3   500  NAP500     -0.2158
     35  C1D       -4.3560    0.5270    1.1090 C.3   500  NAP500      0.2263
     36  N1N       -4.1260    1.1890    2.4610 N.pl3 500  NAP500     -0.2787
     37  C2N       -3.0120    0.7680    3.1830 C.3   500  NAP500      0.1244
     38  C3N       -2.9040    1.2660    4.4860 C.2   500  NAP500      0.0544
     39  C7N       -1.6520    0.7920    5.2740 C.2   500  NAP500      0.2818
     40  O7N       -1.5590    1.1680    6.4550 O.2   500  NAP500     -0.2670
     41  N7N       -0.6390    0.3720    4.5210 N.am  500  NAP500     -0.0839
     42  C4N       -3.8850    2.1520    5.0520 C.2   500  NAP500      0.0033
     43  C5N       -5.0140    2.5710    4.2870 C.2   500  NAP500      0.0157
     44  C6N       -5.1450    2.0940    2.9630 C.2   500  NAP500      0.0633
     45  P2B      -16.3210    2.1520   -3.7300 P.3   500  NAP500      0.5328
     46  O1X      -16.5350    2.2420   -5.2700 O.2   500  NAP500     -0.2224
     47  O2X      -15.2510    1.1610   -3.3630 O.3   500  NAP500     -0.1145
     48  O3X      -17.6760    2.0140   -3.0020 O.3   500  NAP500     -0.1145
@<TRIPOS>BOND
     1    18    17    1
     2    17    19    2
     3    17    16    1
     4    19    20    1
     5    16    15    2
     6    16    22    1
     7    15    14    1
     8    20    21    1
     9    22    21    2
    10    22    13    1
    11    14    13    1
    12    46    45    2
    13    13    12    1
    14    45    47    1
    15    45    11    1
    16    45    48    1
    17    12    10    1
    18    12     7    1
    19    11    10    1
    20    10     8    1
    21     7     6    1
    22     3     1    2
    23     5     6    1
    24     5     4    1
    25     8     6    1
    26     8     9    1
    27     4     1    1
    28     1     2    1
    29     1    23    1
    30    28    29    1
    31    28    27    1
    32    29    30    1
    33    29    31    1
    34    34    33    1
    35    32    31    1
    36    23    24    1
    37    30    35    1
    38    27    24    1
    39    31    33    1
    40    25    24    2
    41    24    26    1
    42    33    35    1
    43    35    36    1
    44    36    44    1
    45    36    37    1
    46    44    43    2
    47    37    38    1
    48    43    42    1
    49    38    42    2
    50    38    39    1
    51    41    39   am
    52    39    40    2
