@<TRIPOS>MOLECULE
2pdh_47D_A_1.pdb
 23 25 0 0 0
SMALL
GASTEIGER

@<TRIPOS>ATOM
      1  C1        -2.9460    2.8810   12.8940 C.2   600  47D600      0.1205
      2  N         -3.9990    3.4290   12.2440 N.2   600  47D600     -0.4012
      3  C2        -4.8520    2.5990   11.7750 C.2   600  47D600      0.1611
      4  C3        -6.1040    2.9750   11.0460 C.3   600  47D600      0.1792
      5  N2        -6.6630    1.8150   10.3600 N.ar  600  47D600     -0.2412
      6  C4        -6.2610    1.4830    9.1120 C.ar  600  47D600      0.3346
      7  O1        -5.4470    2.2190    8.5660 O.2   600  47D600     -0.2462
      8  N3        -6.7200    0.4170    8.5130 N.ar  600  47D600     -0.2688
      9  C5        -6.1830   -0.0130    7.2140 C.3   600  47D600      0.2246
     10  C6        -4.7710   -0.5300    7.3250 C.2   600  47D600      0.3876
     11  O2        -4.2310   -0.8130    6.1480 O.co2 600  47D600     -0.2435
     12  O3        -4.1780   -0.6790    8.3690 O.co2 600  47D600     -0.2435
     13  C7        -7.5930   -0.3720    9.0920 C.ar  600  47D600      0.0852
     14  C8        -8.0500   -0.1240   10.3310 C.ar  600  47D600      0.0796
     15  C9        -7.5630    1.0520   11.0230 C.ar  600  47D600      0.2662
     16  O4        -7.9210    1.3670   12.1730 O.2   600  47D600     -0.2668
     17  S         -4.4490    0.8980   12.0830 S.3   600  47D600     -0.0557
     18  C10       -3.0310    1.4980   12.9100 C.2   600  47D600      0.0573
     19  C12       -2.1090    0.6370   13.4950 C.2   600  47D600      0.0093
     20  C13       -1.0200    1.2650   14.1140 C.2   600  47D600      0.0081
     21  C14       -0.9480    2.6510   14.0920 C.2   600  47D600      0.0425
     22 CL          0.4400    3.3970   14.8820 Cl    600  47D600     -0.0865
     23  C15       -1.8890    3.5210   13.5320 C.3   600  47D600      0.0973
@<TRIPOS>BOND
     1    11    10   ar
     2     9    10    1
     3     9     8    1
     4    10    12   ar
     5     8    13   ar
     6     8     6   ar
     7     7     6    2
     8    13    14   ar
     9     6     5   ar
    10    14    15   ar
    11     5    15   ar
    12     5     4    1
    13    15    16    2
    14     4     3    1
    15     3    17    1
    16     3     2    2
    17    17    18    1
    18     2     1    2
    19     1    18    1
    20     1    23    1
    21    18    19    2
    22    19    20    1
    23    23    21    1
    24    21    20    2
    25    21    22    1
