@<TRIPOS>MOLECULE
2pdi_ZST_A_1.pdb
 29 32 0 0 0
SMALL
GASTEIGER

@<TRIPOS>ATOM
      1  C1        17.7470   -8.8000   14.9940 C.ar  600  ZST600      0.2767
      2  O1        18.1120   -9.4190   14.0230 O.2   600  ZST600     -0.2655
      3  C2        16.7960   -9.3950   15.8840 C.ar  600  ZST600      0.0588
      4  C3        16.3380   -8.7190   17.0090 C.ar  600  ZST600      0.0204
      5  C4        16.8720   -7.4060   17.2090 C.ar  600  ZST600      0.0902
      6  C5        16.3410  -10.6830   15.5710 C.ar  600  ZST600      0.0048
      7  C6        15.4320  -11.2780   16.4380 C.ar  600  ZST600      0.0002
      8  C7        14.9600  -10.6250   17.5880 C.ar  600  ZST600      0.0000
      9  C8        15.4060   -9.3560   17.8770 C.ar  600  ZST600      0.0014
     10  N1        18.1230   -7.5240   15.3100 N.ar  600  ZST600     -0.2091
     11  N2        17.7030   -6.8190   16.4190 N.ar  600  ZST600     -0.1702
     12  C9        19.0800   -6.8100   14.4510 C.3   600  ZST600      0.1956
     13  C10       18.0070   -6.0770   13.5140 C.2   600  ZST600      0.1594
     14  C11       15.9440   -5.2530   12.2960 C.3   600  ZST600      0.1279
     15  C12       17.1640   -4.6700   11.9440 C.2   600  ZST600      0.1234
     16  C13       14.7100   -4.9080   11.7160 C.2   600  ZST600     -0.0083
     17  C14       14.7060   -3.9300   10.7540 C.2   600  ZST600      0.0006
     18  C15       15.9040   -3.3380   10.3910 C.2   600  ZST600      0.0734
     19  C16       17.1230   -3.6730   10.9560 C.2   600  ZST600      0.0326
     20  N3        18.2830   -5.1490   12.6450 N.2   600  ZST600     -0.4012
     21  S1        16.2480   -6.4110   13.5110 S.3   600  ZST600     -0.0740
     22  C17       16.5600   -6.6100   18.4810 C.3   600  ZST600      0.1613
     23  C18       15.3230   -5.8060   18.2940 C.2   600  ZST600      0.3709
     24  O2        14.7580   -5.7960   17.1590 O.co2 600  ZST600     -0.2452
     25  O3        14.6100   -5.4100   19.2370 O.co2 600  ZST600     -0.2452
     26  C19       15.8590   -2.2640    9.3470 C.3   600  ZST600      0.4186
     27  F1        14.9840   -1.2910    9.7490 F     600  ZST600     -0.1659
     28  F2        15.5200   -2.5130    8.1410 F     600  ZST600     -0.1659
     29  F3        16.9680   -1.5290    9.4120 F     600  ZST600     -0.1659
@<TRIPOS>BOND
     1    28    26    1
     2    26    29    1
     3    26    27    1
     4    26    18    1
     5    18    17    1
     6    18    19    2
     7    17    16    2
     8    19    15    1
     9    16    14    1
    10    15    14    1
    11    15    20    2
    12    14    21    1
    13    20    13    2
    14    21    13    1
    15    13    12    1
    16     2     1    2
    17    12    10    1
    18     1    10   ar
    19     1     3   ar
    20    10    11   ar
    21     6     3   ar
    22     6     7   ar
    23     3     4   ar
    24    11     5   ar
    25     7     8   ar
    26     4     5   ar
    27     4     9   ar
    28    24    23   ar
    29     5    22    1
    30     8     9   ar
    31    23    22    1
    32    23    25   ar
