@<TRIPOS>MOLECULE
2pdi_NAP_A_1.pdb
 48 52 0 0 0
SMALL
GASTEIGER

@<TRIPOS>ATOM
      1  PA        22.3750   -4.7440   27.0300 P.3   500  NAP500      0.2189
      2  O1A       23.2810   -3.7330   26.4900 O.2   500  NAP500     -0.5170
      3  O2A       21.3280   -4.4620   27.9850 O.3   500  NAP500     -0.4371
      4  O5B       23.3020   -5.9530   27.5370 O.3   500  NAP500     -0.3112
      5  C5B       22.6730   -7.1500   27.9490 C.3   500  NAP500      0.1813
      6  C4B       23.8610   -8.0960   28.2940 C.3   500  NAP500      0.1820
      7  O4B       24.5660   -7.5440   29.4370 O.3   500  NAP500     -0.3136
      8  C3B       23.4500   -9.5400   28.7690 C.3   500  NAP500      0.2157
      9  O3B       24.4850  -10.3930   28.2890 O.3   500  NAP500     -0.2175
     10  C2B       23.5420   -9.3950   30.3320 C.3   500  NAP500      0.2314
     11  O2B       23.8340  -10.6470   30.9380 O.3   500  NAP500     -0.2630
     12  C1B       24.6860   -8.4160   30.5190 C.3   500  NAP500      0.3158
     13  N9A       24.6440   -7.6750   31.7290 N.pl3 500  NAP500     -0.1439
     14  C8A       23.5460   -7.0570   32.3570 C.3   500  NAP500      0.3377
     15  N7A       23.8390   -6.4390   33.4550 N.2   500  NAP500     -0.2095
     16  C5A       25.2050   -6.6310   33.6110 C.2   500  NAP500      0.2526
     17  C6A       26.0320   -6.1710   34.6380 C.2   500  NAP500      0.4393
     18  N6A       25.6420   -5.4180   35.6890 N.pl3 500  NAP500      0.2180
     19  N1A       27.3830   -6.5140   34.5530 N.2   500  NAP500      0.0021
     20  C2A       27.8110   -7.2580   33.4640 C.3   500  NAP500      0.5254
     21  N3A       26.9850   -7.7180   32.4410 N.2   500  NAP500     -0.0055
     22  C4A       25.6710   -7.3840   32.5440 C.2   500  NAP500      0.3518
     23  O3        21.7310   -5.4160   25.7210 O.3   500  NAP500     -0.2703
     24  PN        20.3600   -5.5560   24.9200 P.3   500  NAP500      0.2189
     25  O1N       19.6080   -6.7030   25.5090 O.3   500  NAP500     -0.4371
     26  O2N       20.6950   -5.5430   23.4670 O.2   500  NAP500     -0.5170
     27  O5D       19.6180   -4.1770   25.1420 O.3   500  NAP500     -0.3112
     28  C5D       18.7580   -3.8950   26.3450 C.3   500  NAP500      0.1813
     29  C4D       17.3050   -4.0170   25.9080 C.3   500  NAP500      0.1799
     30  O4D       16.9850   -3.0470   24.8640 O.3   500  NAP500     -0.3327
     31  C3D       16.8610   -5.3240   25.1980 C.3   500  NAP500      0.2158
     32  O3D       16.8810   -6.4630   26.0140 O.3   500  NAP500     -0.2175
     33  C2D       15.5580   -4.8560   24.5640 C.3   500  NAP500      0.2309
     34  O2D       14.6100   -4.8870   25.6530 O.3   500  NAP500     -0.2158
     35  C1D       15.8740   -3.4870   24.0670 C.3   500  NAP500      0.2263
     36  N1N       16.3420   -3.4290   22.6340 N.pl3 500  NAP500     -0.2787
     37  C2N       15.4400   -2.8420   21.7490 C.3   500  NAP500      0.1244
     38  C3N       15.8020   -2.8610   20.4160 C.2   500  NAP500      0.0544
     39  C7N       14.8430   -2.2240   19.4050 C.2   500  NAP500      0.2818
     40  O7N       15.1080   -2.4180   18.2340 O.2   500  NAP500     -0.2670
     41  N7N       13.9900   -1.3380   19.9130 N.am  500  NAP500     -0.0839
     42  C4N       17.0120   -3.4480   19.9660 C.2   500  NAP500      0.0033
     43  C5N       17.9110   -4.0300   20.9080 C.2   500  NAP500      0.0157
     44  C6N       17.5600   -4.0120   22.2810 C.2   500  NAP500      0.0633
     45  P2B       22.7500  -11.5260   31.7850 P.3   500  NAP500      0.5328
     46  O1X       22.9240  -10.9560   33.2240 O.3   500  NAP500     -0.1145
     47  O2X       21.4260  -11.3010   31.2020 O.2   500  NAP500     -0.2224
     48  O3X       23.3310  -12.9510   31.6130 O.3   500  NAP500     -0.1145
@<TRIPOS>BOND
     1    40    39    2
     2    39    41   am
     3    39    38    1
     4    42    38    2
     5    42    43    1
     6    38    37    1
     7    43    44    2
     8    37    36    1
     9    44    36    1
    10    36    35    1
    11    26    24    2
    12    35    33    1
    13    35    30    1
    14    33    31    1
    15    33    34    1
    16    30    29    1
    17    24    27    1
    18    24    25    1
    19    24    23    1
    20    27    28    1
    21    31    29    1
    22    31    32    1
    23    23     1    1
    24    29    28    1
    25     2     1    2
    26     1     4    1
    27     1     3    1
    28     4     5    1
    29     5     6    1
    30     9     8    1
    31     6     8    1
    32     6     7    1
    33     8    10    1
    34     7    12    1
    35    10    12    1
    36    10    11    1
    37    12    13    1
    38    11    45    1
    39    47    45    2
    40    48    45    1
    41    13    14    1
    42    13    22    1
    43    45    46    1
    44    14    15    1
    45    21    22    2
    46    21    20    1
    47    22    16    1
    48    15    16    2
    49    20    19    1
    50    16    17    1
    51    19    17    2
    52    17    18    1
