@<TRIPOS>MOLECULE
2pdj_NAP_A_1.pdb
 48 52 0 0 0
SMALL
GASTEIGER

@<TRIPOS>ATOM
      1  PA       -21.9470   14.1110  -24.0280 P.3   500  NAP500      0.2189
      2  O1A      -21.3480   15.4200  -23.8630 O.3   500  NAP500     -0.4371
      3  O2A      -21.4380   13.1190  -25.0040 O.2   500  NAP500     -0.5170
      4  O5B      -23.5600   14.3780  -24.1060 O.3   500  NAP500     -0.3112
      5  C5B      -24.3980   13.2350  -24.2930 C.3   500  NAP500      0.1813
      6  C4B      -25.8370   13.8550  -24.2210 C.3   500  NAP500      0.1820
      7  O4B      -25.9950   14.5990  -25.4610 O.3   500  NAP500     -0.3136
      8  C3B      -26.9670   12.7660  -24.2870 C.3   500  NAP500      0.2157
      9  O3B      -28.0700   13.3120  -23.5590 O.3   500  NAP500     -0.2175
     10  C2B      -27.3170   12.7250  -25.8010 C.3   500  NAP500      0.2314
     11  O2B      -28.7180   12.3770  -25.9380 O.3   500  NAP500     -0.2630
     12  C1B      -27.1290   14.1960  -26.1820 C.3   500  NAP500      0.3158
     13  N9A      -26.7910   14.2970  -27.5630 N.pl3 500  NAP500     -0.1439
     14  C8A      -25.9210   13.5310  -28.2950 C.3   500  NAP500      0.3377
     15  N7A      -25.8230   13.8870  -29.5340 N.2   500  NAP500     -0.2095
     16  C5A      -26.6950   14.9670  -29.6230 C.2   500  NAP500      0.2526
     17  C6A      -26.9730   15.7340  -30.7550 C.2   500  NAP500      0.4393
     18  N6A      -26.4750   15.6050  -31.9770 N.pl3 500  NAP500      0.2180
     19  N1A      -27.8950   16.7440  -30.5030 N.2   500  NAP500      0.0021
     20  C2A      -28.4680   16.9670  -29.2730 C.3   500  NAP500      0.5254
     21  N3A      -28.1970   16.2150  -28.1530 N.2   500  NAP500     -0.0055
     22  C4A      -27.2780   15.2050  -28.4060 C.2   500  NAP500      0.3518
     23  O3       -22.0040   13.3950  -22.5940 O.3   500  NAP500     -0.2703
     24  PN       -21.2000   12.1790  -21.8930 P.3   500  NAP500      0.2189
     25  O1N      -21.8860   10.8940  -22.0570 O.2   500  NAP500     -0.5170
     26  O2N      -20.9600   12.6650  -20.5000 O.3   500  NAP500     -0.4371
     27  O5D      -19.7380   12.1750  -22.5480 O.3   500  NAP500     -0.3112
     28  C5D      -19.4320   11.3760  -23.7070 C.3   500  NAP500      0.1813
     29  C4D      -18.7910   10.0590  -23.3210 C.3   500  NAP500      0.1799
     30  O4D      -17.5470   10.3430  -22.5860 O.3   500  NAP500     -0.3327
     31  C3D      -19.5100    9.1670  -22.2650 C.3   500  NAP500      0.2158
     32  O3D      -20.6820    8.5290  -22.7190 O.3   500  NAP500     -0.2175
     33  C2D      -18.3810    8.2630  -21.7910 C.3   500  NAP500      0.2309
     34  O2D      -18.1660    7.2740  -22.8030 O.3   500  NAP500     -0.2158
     35  C1D      -17.2090    9.2230  -21.7450 C.3   500  NAP500      0.2263
     36  N1N      -16.9370    9.8760  -20.4010 N.pl3 500  NAP500     -0.2787
     37  C2N      -15.7840    9.4150  -19.7840 C.3   500  NAP500      0.1244
     38  C3N      -15.6680    9.8610  -18.4780 C.2   500  NAP500      0.0544
     39  C7N      -14.4340    9.4170  -17.7000 C.2   500  NAP500      0.2818
     40  O7N      -14.4750    9.8940  -16.5760 O.2   500  NAP500     -0.2670
     41  N7N      -13.4080    9.0370  -18.4220 N.am  500  NAP500     -0.0839
     42  C4N      -16.5960   10.6910  -17.7940 C.2   500  NAP500      0.0033
     43  C5N      -17.7480   11.1240  -18.4920 C.2   500  NAP500      0.0157
     44  C6N      -17.9190   10.7080  -19.8350 C.2   500  NAP500      0.0633
     45  P2B      -29.1880   10.8790  -26.4090 P.3   500  NAP500      0.5328
     46  O1X      -29.3630   10.9410  -27.9650 O.2   500  NAP500     -0.2224
     47  O2X      -28.1720    9.9120  -25.9560 O.3   500  NAP500     -0.1145
     48  O3X      -30.5770   10.7300  -25.7580 O.3   500  NAP500     -0.1145
@<TRIPOS>BOND
     1    18    17    1
     2    17    19    2
     3    17    16    1
     4    19    20    1
     5    16    15    2
     6    16    22    1
     7    15    14    1
     8    20    21    1
     9    22    21    2
    10    22    13    1
    11    14    13    1
    12    46    45    2
    13    13    12    1
    14    45    47    1
    15    45    11    1
    16    45    48    1
    17    12    10    1
    18    12     7    1
    19    11    10    1
    20    10     8    1
    21     7     6    1
    22     3     1    2
    23     5     6    1
    24     5     4    1
    25     8     6    1
    26     8     9    1
    27     4     1    1
    28     1     2    1
    29     1    23    1
    30    28    29    1
    31    28    27    1
    32    29    30    1
    33    29    31    1
    34    34    33    1
    35    32    31    1
    36    23    24    1
    37    30    35    1
    38    27    24    1
    39    31    33    1
    40    25    24    2
    41    24    26    1
    42    33    35    1
    43    35    36    1
    44    36    44    1
    45    36    37    1
    46    44    43    2
    47    37    38    1
    48    43    42    1
    49    38    42    2
    50    38    39    1
    51    41    39   am
    52    39    40    2
