@<TRIPOS>MOLECULE
2pdj_393_A_1.pdb
 25 26 0 0 0
SMALL
GASTEIGER

@<TRIPOS>ATOM
      1  C1       -14.4490   11.4940   -9.2570 C.ar  600  393600      0.1426
      2  N2       -13.6390   12.5000   -8.7380 N.pl3 600  393600      0.0577
      3  O3       -12.6640   12.2410   -8.0380 O.2   600  393600     -0.1261
      4  O4       -13.9870   13.6490   -9.0430 O.2   600  393600     -0.1261
      5  C5       -15.5530   11.7950  -10.0580 C.ar  600  393600      0.0215
      6  C6       -16.2860   10.7370  -10.6030 C.ar  600  393600      0.0011
      7  C7       -17.5070   11.1840  -11.4150 C.3   600  393600      0.1418
      8  N8       -18.1380   10.0690  -12.0630 N.am  600  393600     -0.1967
      9  C9       -19.3490    9.6780  -11.5880 C.2   600  393600      0.2680
     10  C10      -19.9930    8.4780  -12.2200 C.ar  600  393600      0.0890
     11  C11      -20.5280    7.4640  -11.4210 C.ar  600  393600      0.0085
     12  C12      -21.1220    6.3560  -12.0350 C.ar  600  393600      0.0117
     13  C13      -21.1740    6.2750  -13.4230 C.ar  600  393600      0.0607
     14 CL1       -21.8650    4.9320  -14.2690 Cl    600  393600     -0.0821
     15  C15      -20.6430    7.2800  -14.2260 C.ar  600  393600      0.0484
     16  C16      -20.0480    8.3870  -13.6250 C.ar  600  393600      0.1446
     17  O17      -19.5080    9.4100  -14.3660 O.3   600  393600     -0.4635
     18  C18      -19.0370    9.0740  -15.6790 C.3   600  393600      0.3186
     19  C19      -17.6280    8.5350  -15.5280 C.2   600  393600      0.4084
     20  O20      -17.1390    8.0250  -16.6340 O.co2 600  393600     -0.2415
     21  O21      -17.0470    8.5880  -14.4780 O.co2 600  393600     -0.2415
     22  O22      -19.7470   10.0490  -10.4840 O.2   600  393600     -0.2682
     23  C23      -16.0000    9.4320  -10.2400 C.ar  600  393600     -0.0025
     24  C24      -14.8900    9.1180   -9.4270 C.ar  600  393600      0.0014
     25  C25      -14.1070   10.1800   -8.9410 C.ar  600  393600      0.0241
@<TRIPOS>BOND
     1    20    19   ar
     2    18    19    1
     3    18    17    1
     4    19    21   ar
     5    17    16    1
     6    14    13    1
     7    15    16   ar
     8    15    13   ar
     9    16    10   ar
    10    13    12   ar
    11    10     9    1
    12    10    11   ar
    13     8     9   am
    14     8     7    1
    15    12    11   ar
    16     9    22    2
    17     7     6    1
    18     6    23   ar
    19     6     5   ar
    20    23    24   ar
    21     5     1   ar
    22    24    25   ar
    23     1    25   ar
    24     1     2    1
    25     4     2    2
    26     2     3    2
