@<TRIPOS>MOLECULE
2pdk_NAP_A_1.pdb
 48 52 0 0 0
SMALL
GASTEIGER

@<TRIPOS>ATOM
      1  PA        22.8230   -4.8070   27.1360 P.3   500  NAP500      0.2189
      2  O1A       23.7470   -3.7590   26.6050 O.2   500  NAP500     -0.5170
      3  O2A       21.7990   -4.4460   28.0920 O.3   500  NAP500     -0.4371
      4  O5B       23.7690   -5.9830   27.6470 O.3   500  NAP500     -0.3112
      5  C5B       23.1670   -7.2350   28.0740 C.3   500  NAP500      0.1813
      6  C4B       24.3210   -8.1400   28.4490 C.3   500  NAP500      0.1820
      7  O4B       25.1180   -7.5410   29.4740 O.3   500  NAP500     -0.3136
      8  C3B       23.9430   -9.5340   28.9220 C.3   500  NAP500      0.2157
      9  O3B       24.9300  -10.4670   28.4340 O.3   500  NAP500     -0.2175
     10  C2B       23.9970   -9.3800   30.4260 C.3   500  NAP500      0.2314
     11  O2B       24.2750  -10.6240   31.0570 O.3   500  NAP500     -0.2630
     12  C1B       25.1670   -8.4280   30.6020 C.3   500  NAP500      0.3158
     13  N9A       25.1380   -7.7050   31.8630 N.pl3 500  NAP500     -0.1439
     14  C8A       24.0490   -7.0750   32.3970 C.3   500  NAP500      0.3377
     15  N7A       24.3600   -6.4530   33.5150 N.2   500  NAP500     -0.2095
     16  C5A       25.6680   -6.7090   33.6680 C.2   500  NAP500      0.2526
     17  C6A       26.4600   -6.2630   34.7070 C.2   500  NAP500      0.4393
     18  N6A       26.0710   -5.5230   35.7270 N.pl3 500  NAP500      0.2180
     19  N1A       27.7590   -6.6500   34.6460 N.2   500  NAP500      0.0021
     20  C2A       28.2340   -7.4050   33.6560 C.3   500  NAP500      0.5254
     21  N3A       27.4670   -7.8370   32.6450 N.2   500  NAP500     -0.0055
     22  C4A       26.1540   -7.4760   32.6640 C.2   500  NAP500      0.3518
     23  O3        22.2230   -5.4770   25.7900 O.3   500  NAP500     -0.2703
     24  PN        20.8660   -5.6010   24.9640 P.3   500  NAP500      0.2189
     25  O1N       20.0630   -6.7320   25.4780 O.3   500  NAP500     -0.4371
     26  O2N       21.2000   -5.5870   23.5030 O.2   500  NAP500     -0.5170
     27  O5D       20.1260   -4.1910   25.2000 O.3   500  NAP500     -0.3112
     28  C5D       19.2790   -3.9710   26.3540 C.3   500  NAP500      0.1813
     29  C4D       17.8290   -4.0400   25.9310 C.3   500  NAP500      0.1799
     30  O4D       17.5860   -3.0440   24.9080 O.3   500  NAP500     -0.3327
     31  C3D       17.3720   -5.3290   25.2600 C.3   500  NAP500      0.2158
     32  O3D       17.3150   -6.4760   26.0740 O.3   500  NAP500     -0.2175
     33  C2D       16.0730   -4.8850   24.6290 C.3   500  NAP500      0.2309
     34  O2D       15.0740   -4.8920   25.6680 O.3   500  NAP500     -0.2158
     35  C1D       16.4400   -3.4640   24.1410 C.3   500  NAP500      0.2263
     36  N1N       16.8540   -3.4500   22.7030 N.pl3 500  NAP500     -0.2787
     37  C2N       15.9810   -2.8910   21.7720 C.3   500  NAP500      0.1244
     38  C3N       16.3740   -2.9310   20.4420 C.2   500  NAP500      0.0544
     39  C7N       15.4660   -2.3370   19.3800 C.2   500  NAP500      0.2818
     40  O7N       15.6820   -2.6290   18.2070 O.2   500  NAP500     -0.2670
     41  N7N       14.6040   -1.4340   19.8430 N.am  500  NAP500     -0.0839
     42  C4N       17.5850   -3.4970   20.0690 C.2   500  NAP500      0.0033
     43  C5N       18.4600   -4.0730   20.9920 C.2   500  NAP500      0.0157
     44  C6N       18.0910   -4.0280   22.3270 C.2   500  NAP500      0.0633
     45  P2B       23.2210  -11.5530   31.8040 P.3   500  NAP500      0.5328
     46  O1X       23.3490  -11.1160   33.2230 O.3   500  NAP500     -0.1145
     47  O2X       21.8740  -11.3830   31.2700 O.2   500  NAP500     -0.2224
     48  O3X       23.7790  -12.9410   31.5860 O.3   500  NAP500     -0.1145
@<TRIPOS>BOND
     1    40    39    2
     2    39    41   am
     3    39    38    1
     4    42    38    2
     5    42    43    1
     6    38    37    1
     7    43    44    2
     8    37    36    1
     9    44    36    1
    10    36    35    1
    11    26    24    2
    12    35    33    1
    13    35    30    1
    14    33    31    1
    15    33    34    1
    16    30    29    1
    17    24    27    1
    18    24    25    1
    19    24    23    1
    20    27    28    1
    21    31    29    1
    22    31    32    1
    23    23     1    1
    24    29    28    1
    25     2     1    2
    26     1     4    1
    27     1     3    1
    28     4     5    1
    29     5     6    1
    30     9     8    1
    31     6     8    1
    32     6     7    1
    33     8    10    1
    34     7    12    1
    35    10    12    1
    36    10    11    1
    37    12    13    1
    38    11    45    1
    39    47    45    2
    40    48    45    1
    41    45    46    1
    42    13    14    1
    43    13    22    1
    44    14    15    1
    45    21    22    2
    46    21    20    1
    47    22    16    1
    48    15    16    2
    49    20    19    1
    50    16    17    1
    51    19    17    2
    52    17    18    1
