@<TRIPOS>MOLECULE
2pdk_SBI_A_1.pdb
 17 19 0 0 0
SMALL
GASTEIGER

@<TRIPOS>ATOM
      1  C1        15.1610  -10.5850   17.5610 C.ar  600  SBI600      0.1401
      2  F1        14.5280  -11.4220   18.3870 F     600  SBI600     -0.2042
      3  C2        15.3530  -10.9320   16.2130 C.ar  600  SBI600      0.0328
      4  C3        16.0170  -10.0580   15.3410 C.ar  600  SBI600      0.0396
      5  C4        16.4930   -8.8260   15.8250 C.ar  600  SBI600      0.1447
      6  O1        17.1460   -7.9920   14.9220 O.3   600  SBI600     -0.4509
      7  C5        18.1730   -7.0800   15.3630 C.2   600  SBI600      0.1783
      8  C6        18.1110   -6.6420   16.8370 C.2   600  SBI600      0.0581
      9  C7        16.8530   -7.1050   17.6260 C.3   600  SBI600      0.2435
     10  C9        15.6870   -6.1340   17.5640 C.1   600  SBI600      0.2206
     11  O3        15.2270   -5.8300   16.4920 O.2   600  SBI600     -0.2108
     12  N2        15.3250   -5.7440   18.7960 N.2   600  SBI600     -0.2443
     13  C8        16.1040   -6.3370   19.6710 C.1   600  SBI600      0.3078
     14  O2        15.9640   -6.1290   20.8640 O.2   600  SBI600     -0.1881
     15  N1        16.9900   -7.1190   19.0500 N.2   600  SBI600     -0.1539
     16  C10       16.3120   -8.4660   17.1550 C.ar  600  SBI600      0.0551
     17  C11       15.6370   -9.3500   18.0520 C.ar  600  SBI600      0.0316
@<TRIPOS>BOND
     1     6     7    1
     2     6     5    1
     3     4     5   ar
     4     4     3   ar
     5     7     8    2
     6     5    16   ar
     7     3     1   ar
     8    11    10    2
     9     8     9    1
    10    16     9    1
    11    16    17   ar
    12     1    17   ar
    13     1     2    1
    14    10     9    1
    15    10    12    2
    16     9    15    1
    17    12    13    2
    18    15    13    2
    19    13    14    2
