@<TRIPOS>MOLECULE
2pdl_TOL_A_1.pdb
 24 25 0 0 0
SMALL
GASTEIGER

@<TRIPOS>ATOM
      1  C1        17.3620   -8.3350   10.0910 C.3   600  TOL600      0.4214
      2  F1        18.6800   -8.3410   10.0060 F     600  TOL600     -0.1657
      3  F2        16.8730   -7.6220    9.0620 F     600  TOL600     -0.1657
      4  F3        16.8510   -9.5670    9.8730 F     600  TOL600     -0.1657
      5  C2        16.8070   -7.7930   11.4360 C.ar  600  TOL600      0.1053
      6  C3        16.0410   -6.6170   11.5290 C.ar  600  TOL600      0.1426
      7  O1        15.7760   -5.9060   10.4400 O.3   600  TOL600     -0.4715
      8  C4        14.9940   -4.7640   10.6590 C.3   600  TOL600      0.2525
      9  C5        15.5690   -6.2100   12.7850 C.ar  600  TOL600      0.0368
     10  C6        15.8590   -6.9680   13.9220 C.ar  600  TOL600      0.0032
     11  C7        16.6190   -8.1430   13.8220 C.ar  600  TOL600      0.0019
     12  C8        16.9160   -8.9110   14.9790 C.ar  600  TOL600      0.0200
     13  C9        17.6650  -10.0940   14.8820 C.ar  600  TOL600      0.0018
     14  C10       18.1500  -10.5180   13.6290 C.ar  600  TOL600      0.0001
     15  C11       17.8580   -9.7470   12.4930 C.ar  600  TOL600      0.0001
     16  C12       17.0970   -8.5630   12.5720 C.ar  600  TOL600      0.0069
     17  C13       16.4140   -8.5160   16.3370 C.2   600  TOL600      0.0848
     18  S1        14.9730   -9.2830   16.8600 S.2   600  TOL600     -0.0347
     19  N1        17.0260   -7.5760   17.0920 N.am  600  TOL600     -0.2910
     20  C14       18.2670   -6.9700   16.5840 C.3   600  TOL600      0.1132
     21  C15       16.5520   -7.1770   18.4080 C.3   600  TOL600      0.2069
     22  C16       15.5250   -6.0210   18.2230 C.2   600  TOL600      0.3847
     23  O2        14.9250   -5.5190   19.1490 O.co2 600  TOL600     -0.2437
     24  O3        15.3290   -5.7540   16.9410 O.co2 600  TOL600     -0.2437
@<TRIPOS>BOND
     1     3     1    1
     2     4     1    1
     3     2     1    1
     4     1     5    1
     5     7     8    1
     6     7     6    1
     7     5     6   ar
     8     5    16   ar
     9     6     9   ar
    10    15    16   ar
    11    15    14   ar
    12    16    11   ar
    13     9    10   ar
    14    14    13   ar
    15    11    10   ar
    16    11    12   ar
    17    13    12   ar
    18    12    17    1
    19    17    18    2
    20    17    19    1
    21    20    19    1
    22    24    22   ar
    23    19    21    1
    24    22    21    1
    25    22    23   ar
