@<TRIPOS>MOLECULE
2pdl_NAP_A_1.pdb
 48 52 0 0 0
SMALL
GASTEIGER

@<TRIPOS>ATOM
      1  PA        22.6400   -4.9330   26.7990 P.3   500  NAP500      0.2189
      2  O1A       23.6260   -3.9260   26.3180 O.2   500  NAP500     -0.5170
      3  O2A       21.5780   -4.5770   27.7610 O.3   500  NAP500     -0.4371
      4  O5B       23.5360   -6.1250   27.3750 O.3   500  NAP500     -0.3112
      5  C5B       22.9430   -7.3680   27.7540 C.3   500  NAP500      0.1813
      6  C4B       24.1060   -8.2630   28.1340 C.3   500  NAP500      0.1820
      7  O4B       24.8600   -7.7140   29.2180 O.3   500  NAP500     -0.3136
      8  C3B       23.7400   -9.6700   28.5950 C.3   500  NAP500      0.2157
      9  O3B       24.7740  -10.5580   28.1340 O.3   500  NAP500     -0.2175
     10  C2B       23.7900   -9.6170   30.1220 C.3   500  NAP500      0.2314
     11  O2B       24.1280  -10.9170   30.6480 O.3   500  NAP500     -0.2630
     12  C1B       24.9420   -8.6460   30.3080 C.3   500  NAP500      0.3158
     13  N9A       24.9100   -7.8750   31.5690 N.pl3 500  NAP500     -0.1439
     14  C8A       23.8300   -7.2980   32.1550 C.3   500  NAP500      0.3377
     15  N7A       24.1990   -6.6680   33.2910 N.2   500  NAP500     -0.2095
     16  C5A       25.5120   -6.8800   33.3660 C.2   500  NAP500      0.2526
     17  C6A       26.3440   -6.4140   34.3850 C.2   500  NAP500      0.4393
     18  N6A       25.9760   -5.6960   35.4390 N.pl3 500  NAP500      0.2180
     19  N1A       27.6370   -6.7800   34.2150 N.2   500  NAP500      0.0021
     20  C2A       28.0970   -7.5060   33.1830 C.3   500  NAP500      0.5254
     21  N3A       27.2850   -7.9480   32.2160 N.2   500  NAP500     -0.0055
     22  C4A       25.9580   -7.6290   32.3100 C.2   500  NAP500      0.3518
     23  O3        22.0270   -5.6210   25.5000 O.3   500  NAP500     -0.2703
     24  PN        20.6800   -5.7580   24.7110 P.3   500  NAP500      0.2189
     25  O1N       19.8020   -6.8150   25.2570 O.3   500  NAP500     -0.4371
     26  O2N       21.0010   -5.7330   23.2460 O.2   500  NAP500     -0.5170
     27  O5D       19.9530   -4.3140   24.9390 O.3   500  NAP500     -0.3112
     28  C5D       19.0950   -4.0950   26.0950 C.3   500  NAP500      0.1813
     29  C4D       17.6310   -4.1520   25.6780 C.3   500  NAP500      0.1799
     30  O4D       17.4290   -3.1510   24.6610 O.3   500  NAP500     -0.3327
     31  C3D       17.1700   -5.4330   24.9850 C.3   500  NAP500      0.2158
     32  O3D       17.1000   -6.5900   25.8220 O.3   500  NAP500     -0.2175
     33  C2D       15.8870   -4.9610   24.3500 C.3   500  NAP500      0.2309
     34  O2D       14.8980   -4.9860   25.4090 O.3   500  NAP500     -0.2158
     35  C1D       16.2630   -3.5240   23.9050 C.3   500  NAP500      0.2263
     36  N1N       16.6730   -3.4740   22.4610 N.pl3 500  NAP500     -0.2787
     37  C2N       15.8500   -2.8850   21.5240 C.3   500  NAP500      0.1244
     38  C3N       16.1550   -2.9970   20.1720 C.2   500  NAP500      0.0544
     39  C7N       15.2660   -2.3490   19.1210 C.2   500  NAP500      0.2818
     40  O7N       15.5120   -2.4590   17.9320 O.2   500  NAP500     -0.2670
     41  N7N       14.2110   -1.6870   19.5830 N.am  500  NAP500     -0.0839
     42  C4N       17.2810   -3.6930   19.7620 C.2   500  NAP500      0.0033
     43  C5N       18.1190   -4.2880   20.6890 C.2   500  NAP500      0.0157
     44  C6N       17.8110   -4.1760   22.0290 C.2   500  NAP500      0.0633
     45  P2B       23.0680  -11.7750   31.5430 P.3   500  NAP500      0.5328
     46  O1X       23.2700  -11.2820   32.9200 O.3   500  NAP500     -0.1145
     47  O2X       21.7300  -11.5430   30.9920 O.2   500  NAP500     -0.2224
     48  O3X       23.5340  -13.1700   31.2690 O.3   500  NAP500     -0.1145
@<TRIPOS>BOND
     1    40    39    2
     2    39    41   am
     3    39    38    1
     4    42    38    2
     5    42    43    1
     6    38    37    1
     7    43    44    2
     8    37    36    1
     9    44    36    1
    10    36    35    1
    11    26    24    2
    12    35    33    1
    13    35    30    1
    14    33    31    1
    15    33    34    1
    16    30    29    1
    17    24    27    1
    18    24    25    1
    19    24    23    1
    20    27    28    1
    21    31    29    1
    22    31    32    1
    23    23     1    1
    24    29    28    1
    25     2     1    2
    26     1     4    1
    27     1     3    1
    28     4     5    1
    29     5     6    1
    30     6     8    1
    31     6     7    1
    32     9     8    1
    33     8    10    1
    34     7    12    1
    35    10    12    1
    36    10    11    1
    37    12    13    1
    38    11    45    1
    39    47    45    2
    40    48    45    1
    41    45    46    1
    42    13    14    1
    43    13    22    1
    44    14    15    1
    45    21    22    2
    46    21    20    1
    47    22    16    1
    48    20    19    1
    49    15    16    2
    50    16    17    1
    51    19    17    2
    52    17    18    1
