@<TRIPOS>MOLECULE
2pdm_NAP_A_1.pdb
 48 52 0 0 0
SMALL
GASTEIGER

@<TRIPOS>ATOM
      1  PA        22.6680   -4.9860   27.0930 P.3   500  NAP500      0.2189
      2  O1A       23.5540   -3.9250   26.6250 O.2   500  NAP500     -0.5170
      3  O2A       21.5820   -4.7170   28.0670 O.3   500  NAP500     -0.4371
      4  O5B       23.6080   -6.1730   27.6350 O.3   500  NAP500     -0.3112
      5  C5B       22.9530   -7.3600   28.1060 C.3   500  NAP500      0.1813
      6  C4B       24.1370   -8.3410   28.3960 C.3   500  NAP500      0.1820
      7  O4B       24.8230   -7.7590   29.5440 O.3   500  NAP500     -0.3136
      8  C3B       23.6960   -9.7600   28.8820 C.3   500  NAP500      0.2157
      9  O3B       24.6560  -10.6970   28.3990 O.3   500  NAP500     -0.2175
     10  C2B       23.8010   -9.5930   30.4280 C.3   500  NAP500      0.2314
     11  O2B       24.1790  -10.8420   31.0590 O.3   500  NAP500     -0.2630
     12  C1B       24.9530   -8.6140   30.6180 C.3   500  NAP500      0.3158
     13  N9A       24.8750   -7.9020   31.8520 N.pl3 500  NAP500     -0.1439
     14  C8A       23.8150   -7.2470   32.4620 C.3   500  NAP500      0.3377
     15  N7A       24.1270   -6.6190   33.5550 N.2   500  NAP500     -0.2095
     16  C5A       25.4870   -6.8760   33.6810 C.2   500  NAP500      0.2526
     17  C6A       26.3430   -6.4290   34.6940 C.2   500  NAP500      0.4393
     18  N6A       25.9990   -5.6700   35.7380 N.pl3 500  NAP500      0.2180
     19  N1A       27.6670   -6.8350   34.5740 N.2   500  NAP500      0.0021
     20  C2A       28.1020   -7.6230   33.5210 C.3   500  NAP500      0.5254
     21  N3A       27.2500   -8.0480   32.5290 N.2   500  NAP500     -0.0055
     22  C4A       25.9310   -7.6480   32.6450 C.2   500  NAP500      0.3518
     23  O3        22.0560   -5.6850   25.7900 O.3   500  NAP500     -0.2703
     24  PN        20.6620   -5.7200   24.9870 P.3   500  NAP500      0.2189
     25  O1N       19.8830   -6.9290   25.4530 O.3   500  NAP500     -0.4371
     26  O2N       20.9720   -5.7050   23.5130 O.2   500  NAP500     -0.5170
     27  O5D       19.8970   -4.3690   25.2240 O.3   500  NAP500     -0.3112
     28  C5D       19.0870   -4.0540   26.3950 C.3   500  NAP500      0.1813
     29  C4D       17.6210   -4.1590   25.9880 C.3   500  NAP500      0.1799
     30  O4D       17.2480   -3.1660   24.9700 O.3   500  NAP500     -0.3327
     31  C3D       17.2210   -5.5030   25.2710 C.3   500  NAP500      0.2158
     32  O3D       17.2380   -6.6320   26.0790 O.3   500  NAP500     -0.2175
     33  C2D       15.8810   -5.0830   24.6620 C.3   500  NAP500      0.2309
     34  O2D       14.9420   -4.9800   25.7420 O.3   500  NAP500     -0.2158
     35  C1D       16.1970   -3.7020   24.1290 C.3   500  NAP500      0.2263
     36  N1N       16.6560   -3.6600   22.6880 N.pl3 500  NAP500     -0.2787
     37  C2N       15.7660   -3.1040   21.7740 C.3   500  NAP500      0.1244
     38  C3N       16.1670   -3.1210   20.4380 C.2   500  NAP500      0.0544
     39  C7N       15.2340   -2.5200   19.3870 C.2   500  NAP500      0.2818
     40  O7N       15.5650   -2.6680   18.2200 O.2   500  NAP500     -0.2670
     41  N7N       14.4690   -1.5570   19.8640 N.am  500  NAP500     -0.0839
     42  C4N       17.4180   -3.6810   20.0130 C.2   500  NAP500      0.0033
     43  C5N       18.2870   -4.2300   20.9710 C.2   500  NAP500      0.0157
     44  C6N       17.9130   -4.2190   22.3320 C.2   500  NAP500      0.0633
     45  P2B       23.0890  -11.7750   31.8480 P.3   500  NAP500      0.5328
     46  O1X       23.1830  -11.2360   33.3090 O.3   500  NAP500     -0.1145
     47  O2X       21.7460  -11.5870   31.2320 O.2   500  NAP500     -0.2224
     48  O3X       23.7300  -13.1510   31.6830 O.3   500  NAP500     -0.1145
@<TRIPOS>BOND
     1    40    39    2
     2    39    41   am
     3    39    38    1
     4    42    38    2
     5    42    43    1
     6    38    37    1
     7    43    44    2
     8    37    36    1
     9    44    36    1
    10    36    35    1
    11    26    24    2
    12    35    33    1
    13    35    30    1
    14    33    31    1
    15    33    34    1
    16    30    29    1
    17    24    27    1
    18    24    25    1
    19    24    23    1
    20    27    28    1
    21    31    29    1
    22    31    32    1
    23    23     1    1
    24    29    28    1
    25     2     1    2
    26     1     4    1
    27     1     3    1
    28     4     5    1
    29     5     6    1
    30     6     8    1
    31     6     7    1
    32     9     8    1
    33     8    10    1
    34     7    12    1
    35    10    12    1
    36    10    11    1
    37    12    13    1
    38    11    45    1
    39    47    45    2
    40    48    45    1
    41    45    46    1
    42    13    14    1
    43    13    22    1
    44    14    15    1
    45    21    22    2
    46    21    20    1
    47    22    16    1
    48    20    19    1
    49    15    16    2
    50    16    17    1
    51    19    17    2
    52    17    18    1
