@<TRIPOS>MOLECULE
2pdm_ZST_A_1.pdb
 29 32 0 0 0
SMALL
GASTEIGER

@<TRIPOS>ATOM
      1  C1        18.0320   -8.8960   14.9710 C.ar  600  ZST600      0.2767
      2  O1        18.3880   -9.4680   13.9660 O.2   600  ZST600     -0.2655
      3  C2        17.1130   -9.5250   15.8660 C.ar  600  ZST600      0.0588
      4  C3        16.6900   -8.8670   17.0110 C.ar  600  ZST600      0.0204
      5  C4        17.2270   -7.5520   17.2080 C.ar  600  ZST600      0.0902
      6  C5        16.6700  -10.8140   15.5490 C.ar  600  ZST600      0.0048
      7  C6        15.7790  -11.4250   16.4290 C.ar  600  ZST600      0.0002
      8  C7        15.3440  -10.7760   17.5940 C.ar  600  ZST600      0.0000
      9  C8        15.7810   -9.5110   17.9010 C.ar  600  ZST600      0.0014
     10  N1        18.4370   -7.6250   15.3080 N.ar  600  ZST600     -0.2091
     11  N2        18.0430   -6.9330   16.4360 N.ar  600  ZST600     -0.1702
     12  C9        19.3740   -6.8730   14.4600 C.3   600  ZST600      0.1956
     13  C10       18.3080   -6.1670   13.4910 C.2   600  ZST600      0.1594
     14  C11       16.3160   -5.3240   12.1460 C.3   600  ZST600      0.1279
     15  C12       17.5540   -4.7360   11.8900 C.2   600  ZST600      0.1234
     16  C13       15.1030   -5.0030   11.5190 C.2   600  ZST600     -0.0083
     17  C14       15.1570   -4.0150   10.5660 C.2   600  ZST600      0.0006
     18  C15       16.3720   -3.4180   10.2900 C.2   600  ZST600      0.0734
     19  C16       17.5700   -3.7330   10.9110 C.2   600  ZST600      0.0326
     20  N3        18.6270   -5.2230   12.6480 N.2   600  ZST600     -0.4012
     21  S1        16.5500   -6.4950   13.3580 S.3   600  ZST600     -0.0740
     22  C17       16.9430   -6.8140   18.5270 C.3   600  ZST600      0.1613
     23  C18       15.6130   -6.1650   18.3670 C.2   600  ZST600      0.3709
     24  O2        15.2550   -5.8600   17.1790 O.co2 600  ZST600     -0.2452
     25  O3        15.0830   -5.5430   19.3110 O.co2 600  ZST600     -0.2452
     26  C19       16.3590   -2.3440    9.2410 C.3   600  ZST600      0.4186
     27  F1        15.5250   -1.3470    9.7150 F     600  ZST600     -0.1659
     28  F2        15.9560   -2.5790    8.0610 F     600  ZST600     -0.1659
     29  F3        17.4770   -1.6170    9.2790 F     600  ZST600     -0.1659
@<TRIPOS>BOND
     1    28    26    1
     2    26    29    1
     3    26    27    1
     4    26    18    1
     5    18    17    1
     6    18    19    2
     7    17    16    2
     8    19    15    1
     9    16    14    1
    10    15    14    1
    11    15    20    2
    12    14    21    1
    13    20    13    2
    14    21    13    1
    15    13    12    1
    16     2     1    2
    17    12    10    1
    18     1    10   ar
    19     1     3   ar
    20    10    11   ar
    21     6     3   ar
    22     6     7   ar
    23     3     4   ar
    24     7     8   ar
    25    11     5   ar
    26     4     5   ar
    27     4     9   ar
    28    24    23   ar
    29     5    22    1
    30     8     9   ar
    31    23    22    1
    32    23    25   ar
