@<TRIPOS>MOLECULE
2pdn_47D_A_1.pdb
 23 25 0 0 0
SMALL
GASTEIGER

@<TRIPOS>ATOM
      1  C1        15.5290    7.6470  -13.0810 C.2   600  47D600      0.1379
      2  N         16.5640    8.1220  -13.8180 N.2   600  47D600     -0.3973
      3  C2        17.4370    8.7730  -13.1640 C.2   600  47D600      0.1615
      4  C3        18.6200    9.4670  -13.7720 C.3   600  47D600      0.1793
      5  N2        19.2910   10.2790  -12.7650 N.ar  600  47D600     -0.2412
      6  C4        18.9250   11.5720  -12.5690 C.ar  600  47D600      0.3346
      7  O1        18.0490   12.0520  -13.2780 O.2   600  47D600     -0.2462
      8  N3        19.4880   12.2980  -11.6450 N.ar  600  47D600     -0.2688
      9  C5        19.0620   13.6670  -11.4130 C.3   600  47D600      0.2246
     10  C6        17.7920   13.7580  -10.6280 C.2   600  47D600      0.3876
     11  O2        17.1920   14.9400  -10.5940 O.co2 600  47D600     -0.2435
     12  O3        17.1790   12.7380  -10.3690 O.co2 600  47D600     -0.2435
     13  C7        20.4430   11.8220  -10.8590 C.ar  600  47D600      0.0852
     14  C8        20.8600   10.5560  -10.9860 C.ar  600  47D600      0.0796
     15  C9        20.2600    9.7070  -12.0060 C.ar  600  47D600      0.2662
     16  O4        20.6020    8.5350  -12.1690 O.2   600  47D600     -0.2668
     17  S         17.1190    8.9330  -11.4060 S.3   600  47D600     -0.0556
     18  C10       15.6720    7.9890  -11.7440 C.2   600  47D600      0.0572
     19  C12       14.7660    7.6480  -10.7410 C.2   600  47D600     -0.0114
     20  C13       13.6660    6.9030  -11.1940 C.3   600  47D600      0.0646
     21  C14       13.5270    6.5550  -12.5420 C.2   600  47D600      0.0424
     22 CL         12.1270    5.6200  -13.0420 Cl    600  47D600     -0.0865
     23  C15       14.4770    6.8550  -13.5240 C.2   600  47D600      0.0399
@<TRIPOS>BOND
     1     2     3    2
     2     2     1    2
     3     4     3    1
     4     4     5    1
     5    23     1    1
     6    23    21    2
     7     7     6    2
     8     3    17    1
     9     1    18    1
    10    22    21    1
    11     5     6   ar
    12     5    15   ar
    13     6     8   ar
    14    21    20    1
    15    16    15    2
    16    15    14   ar
    17    18    17    1
    18    18    19    2
    19     8     9    1
    20     8    13   ar
    21     9    10    1
    22    20    19    1
    23    14    13   ar
    24    10    11   ar
    25    10    12   ar
