@<TRIPOS>MOLECULE
2pdn_NAP_A_1.pdb
 48 52 0 0 0
SMALL
GASTEIGER

@<TRIPOS>ATOM
      1  PA        22.0220   21.4460  -17.8750 P.3   500  NAP500      0.2189
      2  O1A       21.4610   20.9850  -19.1360 O.2   500  NAP500     -0.5170
      3  O2A       21.6000   22.6090  -17.0870 O.3   500  NAP500     -0.4371
      4  O5B       23.6170   21.4930  -18.1570 O.3   500  NAP500     -0.3112
      5  C5B       24.5180   21.8010  -17.0980 C.3   500  NAP500      0.1813
      6  C4B       25.9610   21.6610  -17.6900 C.3   500  NAP500      0.1820
      7  O4B       26.1370   22.7410  -18.6640 O.3   500  NAP500     -0.3136
      8  C3B       27.1080   21.8650  -16.6390 C.3   500  NAP500      0.2157
      9  O3B       28.1930   20.9990  -17.0050 O.3   500  NAP500     -0.2175
     10  C2B       27.4770   23.3670  -16.8720 C.3   500  NAP500      0.2314
     11  O2B       28.8440   23.6220  -16.5010 O.3   500  NAP500     -0.2630
     12  C1B       27.2570   23.5450  -18.3780 C.3   500  NAP500      0.3158
     13  N9A       26.9490   24.9120  -18.6840 N.pl3 500  NAP500     -0.1439
     14  C8A       26.0780   25.7880  -18.0690 C.3   500  NAP500      0.3377
     15  N7A       25.9660   26.9820  -18.6240 N.2   500  NAP500     -0.2095
     16  C5A       26.8410   26.8710  -19.6930 C.2   500  NAP500      0.2526
     17  C6A       27.1230   27.8610  -20.6420 C.2   500  NAP500      0.4393
     18  N6A       26.6520   29.0970  -20.7470 N.pl3 500  NAP500      0.2180
     19  N1A       28.0510   27.4680  -21.6030 N.2   500  NAP500      0.0021
     20  C2A       28.6070   26.2140  -21.6010 C.3   500  NAP500      0.5254
     21  N3A       28.3320   25.2520  -20.6740 N.2   500  NAP500     -0.0055
     22  C4A       27.4210   25.6290  -19.7100 C.2   500  NAP500      0.3518
     23  O3        22.0570   20.1630  -16.8930 O.3   500  NAP500     -0.2703
     24  PN        21.2520   19.5610  -15.6460 P.3   500  NAP500      0.2189
     25  O1N       21.9620   19.8780  -14.3900 O.3   500  NAP500     -0.4371
     26  O2N       21.0380   18.0920  -15.9500 O.2   500  NAP500     -0.5170
     27  O5D       19.7840   20.1750  -15.7160 O.3   500  NAP500     -0.3112
     28  C5D       19.4610   21.4490  -15.1020 C.3   500  NAP500      0.1813
     29  C4D       18.8070   21.2710  -13.7450 C.3   500  NAP500      0.1799
     30  O4D       17.5470   20.5320  -13.8710 O.3   500  NAP500     -0.3327
     31  C3D       19.5340   20.4150  -12.6690 C.3   500  NAP500      0.2158
     32  O3D       20.7270   20.9280  -12.1690 O.3   500  NAP500     -0.2175
     33  C2D       18.3970   20.0900  -11.6980 C.3   500  NAP500      0.2309
     34  O2D       18.1970   21.2620  -10.8830 O.3   500  NAP500     -0.2158
     35  C1D       17.2480   19.8610  -12.6410 C.3   500  NAP500      0.2263
     36  N1N       17.0260   18.4120  -13.0720 N.pl3 500  NAP500     -0.2787
     37  C2N       15.9290   17.7790  -12.5170 C.3   500  NAP500      0.1244
     38  C3N       15.7770   16.4210  -12.7520 C.2   500  NAP500      0.0544
     39  C7N       14.5710   15.6800  -12.1580 C.2   500  NAP500      0.2818
     40  O7N       14.5250   14.4630  -12.3380 O.2   500  NAP500     -0.2670
     41  N7N       13.4790   16.3810  -11.9280 N.am  500  NAP500     -0.0839
     42  C4N       16.7210   15.6870  -13.5400 C.2   500  NAP500      0.0033
     43  C5N       17.8310   16.3800  -14.0830 C.2   500  NAP500      0.0157
     44  C6N       17.9970   17.7710  -13.8730 C.2   500  NAP500      0.0633
     45  P2B       29.2880   24.3060  -15.0540 P.3   500  NAP500      0.5328
     46  O1X       29.4780   25.8130  -15.4430 O.2   500  NAP500     -0.2224
     47  O2X       28.2690   24.1010  -14.0260 O.3   500  NAP500     -0.1145
     48  O3X       30.6550   23.6190  -14.8220 O.3   500  NAP500     -0.1145
@<TRIPOS>BOND
     1    19    20    1
     2    19    17    2
     3    20    21    1
     4    18    17    1
     5    21    22    2
     6    17    16    1
     7    22    16    1
     8    22    13    1
     9    16    15    2
    10     2     1    2
    11    13    12    1
    12    13    14    1
    13     7    12    1
    14     7     6    1
    15    15    14    1
    16    12    10    1
    17     4     1    1
    18     4     5    1
    19     1     3    1
    20     1    23    1
    21     6     5    1
    22     6     8    1
    23     9     8    1
    24    23    24    1
    25    10     8    1
    26    10    11    1
    27    11    45    1
    28    26    24    2
    29    27    24    1
    30    27    28    1
    31    24    25    1
    32    46    45    2
    33    28    29    1
    34    45    48    1
    35    45    47    1
    36    43    44    2
    37    43    42    1
    38    44    36    1
    39    30    29    1
    40    30    35    1
    41    29    31    1
    42    42    38    2
    43    36    35    1
    44    36    37    1
    45    38    37    1
    46    38    39    1
    47    31    32    1
    48    31    33    1
    49    35    33    1
    50    40    39    2
    51    39    41   am
    52    33    34    1
