@<TRIPOS>MOLECULE
2pdp_393_A_1.pdb
 25 26 0 0 0
SMALL
GASTEIGER

@<TRIPOS>ATOM
      1  C1        14.6220    6.9050  -12.8940 C.ar  600  393600      0.1426
      2  N2        13.7970    6.1780  -13.7350 N.pl3 600  393600      0.0577
      3  O3        12.8740    5.4810  -13.2880 O.2   600  393600     -0.1261
      4  O4        14.0930    6.3080  -14.9340 O.2   600  393600     -0.1261
      5  C5        15.6510    7.6830  -13.4200 C.ar  600  393600      0.0215
      6  C6        16.5230    8.3650  -12.5390 C.ar  600  393600      0.0011
      7  C7        17.5970    9.2640  -13.1410 C.3   600  393600      0.1418
      8  N8        18.3090   10.0320  -12.1510 N.am  600  393600     -0.1967
      9  C9        19.6130    9.7170  -11.8560 C.2   600  393600      0.2680
     10  C10       20.2470   10.5320  -10.7420 C.ar  600  393600      0.0890
     11  C11       20.9390    9.9160   -9.7020 C.ar  600  393600      0.0085
     12  C12       21.5170   10.6820   -8.6820 C.ar  600  393600      0.0117
     13  C13       21.4000   12.0750   -8.7070 C.ar  600  393600      0.0607
     14 CL1        21.9900   13.0420   -7.4440 Cl    600  393600     -0.0821
     15  C15       20.7030   12.7050   -9.7490 C.ar  600  393600      0.0484
     16  C16       20.1330   11.9370  -10.7590 C.ar  600  393600      0.1446
     17  O17       19.4300   12.4610  -11.8280 O.3   600  393600     -0.4635
     18  C18       18.9590   13.8190  -11.7200 C.3   600  393600      0.3186
     19  C19       17.6230   13.7300  -11.0120 C.2   600  393600      0.4084
     20  O20       17.1300   14.8680  -10.5890 O.co2 600  393600     -0.2415
     21  O21       17.0420   12.6700  -10.8430 O.co2 600  393600     -0.2415
     22  O22       20.0050    8.5490  -11.9690 O.2   600  393600     -0.2682
     23  C23       16.2280    8.3200  -11.1850 C.ar  600  393600     -0.0025
     24  C24       15.1950    7.5460  -10.6560 C.ar  600  393600      0.0014
     25  C25       14.3690    6.8150  -11.5270 C.ar  600  393600      0.0241
@<TRIPOS>BOND
     1     4     2    2
     2     2     3    2
     3     2     1    1
     4     5     1   ar
     5     5     6   ar
     6     7     6    1
     7     7     8    1
     8     1    25   ar
     9     6    23   ar
    10     8     9   am
    11    22     9    2
    12     9    10    1
    13    17    18    1
    14    17    16    1
    15    18    19    1
    16    25    24   ar
    17    23    24   ar
    18    19    21   ar
    19    19    20   ar
    20    16    10   ar
    21    16    15   ar
    22    10    11   ar
    23    15    13   ar
    24    11    12   ar
    25    13    12   ar
    26    13    14    1
