@<TRIPOS>MOLECULE
2pdp_NAP_A_1.pdb
 48 52 0 0 0
SMALL
GASTEIGER

@<TRIPOS>ATOM
      1  PA        21.9580   21.3810  -17.8950 P.3   500  NAP500      0.2189
      2  O1A       21.3930   20.9190  -19.1640 O.2   500  NAP500     -0.5170
      3  O2A       21.4590   22.5400  -17.1300 O.3   500  NAP500     -0.4371
      4  O5B       23.5430   21.4940  -18.1690 O.3   500  NAP500     -0.3112
      5  C5B       24.4310   21.6970  -17.0840 C.3   500  NAP500      0.1813
      6  C4B       25.8600   21.5950  -17.7180 C.3   500  NAP500      0.1820
      7  O4B       26.0350   22.7110  -18.6510 O.3   500  NAP500     -0.3136
      8  C3B       26.9540   21.8100  -16.6220 C.3   500  NAP500      0.2157
      9  O3B       28.0160   20.9270  -17.0050 O.3   500  NAP500     -0.2175
     10  C2B       27.3080   23.3150  -16.8620 C.3   500  NAP500      0.2314
     11  O2B       28.6900   23.5770  -16.5600 O.3   500  NAP500     -0.2630
     12  C1B       27.1280   23.5190  -18.3730 C.3   500  NAP500      0.3158
     13  N9A       26.8650   24.8950  -18.6330 N.pl3 500  NAP500     -0.1439
     14  C8A       25.9740   25.7540  -18.0540 C.3   500  NAP500      0.3377
     15  N7A       25.8380   26.9200  -18.6200 N.2   500  NAP500     -0.2095
     16  C5A       26.7210   26.8290  -19.6780 C.2   500  NAP500      0.2526
     17  C6A       26.9650   27.8410  -20.6210 C.2   500  NAP500      0.4393
     18  N6A       26.3890   29.0470  -20.6540 N.pl3 500  NAP500      0.2180
     19  N1A       27.9130   27.4820  -21.5730 N.2   500  NAP500      0.0021
     20  C2A       28.5140   26.2340  -21.5540 C.3   500  NAP500      0.5254
     21  N3A       28.2810   25.2530  -20.6350 N.2   500  NAP500     -0.0055
     22  C4A       27.3390   25.6110  -19.6800 C.2   500  NAP500      0.3518
     23  O3        22.0000   20.0870  -16.9160 O.3   500  NAP500     -0.2703
     24  PN        21.1910   19.5080  -15.6640 P.3   500  NAP500      0.2189
     25  O1N       21.8800   19.8630  -14.4090 O.3   500  NAP500     -0.4371
     26  O2N       20.9510   18.0590  -15.9700 O.2   500  NAP500     -0.5170
     27  O5D       19.7330   20.1810  -15.6990 O.3   500  NAP500     -0.3112
     28  C5D       19.4970   21.4940  -15.0880 C.3   500  NAP500      0.1813
     29  C4D       18.7900   21.2990  -13.7450 C.3   500  NAP500      0.1799
     30  O4D       17.5760   20.5120  -13.9310 O.3   500  NAP500     -0.3327
     31  C3D       19.5310   20.3420  -12.7330 C.3   500  NAP500      0.2158
     32  O3D       20.6700   20.9480  -12.1800 O.3   500  NAP500     -0.2175
     33  C2D       18.3930   19.9880  -11.7840 C.3   500  NAP500      0.2309
     34  O2D       18.1920   21.1180  -10.9320 O.3   500  NAP500     -0.2158
     35  C1D       17.2360   19.7960  -12.7230 C.3   500  NAP500      0.2263
     36  N1N       16.9610   18.3660  -13.1610 N.pl3 500  NAP500     -0.2787
     37  C2N       15.8380   17.7810  -12.5890 C.3   500  NAP500      0.1244
     38  C3N       15.7010   16.4200  -12.8180 C.2   500  NAP500      0.0544
     39  C7N       14.4940   15.6670  -12.2350 C.2   500  NAP500      0.2818
     40  O7N       14.4270   14.4770  -12.4980 O.2   500  NAP500     -0.2670
     41  N7N       13.4820   16.4300  -11.9170 N.am  500  NAP500     -0.0839
     42  C4N       16.6640   15.6880  -13.5890 C.2   500  NAP500      0.0033
     43  C5N       17.7770   16.3350  -14.1390 C.2   500  NAP500      0.0157
     44  C6N       17.9590   17.7310  -13.9490 C.2   500  NAP500      0.0633
     45  P2B       29.2000   24.2910  -15.1660 P.3   500  NAP500      0.5328
     46  O1X       29.4000   25.7760  -15.5470 O.2   500  NAP500     -0.2224
     47  O2X       28.1550   24.0650  -14.1240 O.3   500  NAP500     -0.1145
     48  O3X       30.5240   23.5600  -14.9350 O.3   500  NAP500     -0.1145
@<TRIPOS>BOND
     1    19    20    1
     2    19    17    2
     3    20    21    1
     4    18    17    1
     5    21    22    2
     6    17    16    1
     7    22    16    1
     8    22    13    1
     9    16    15    2
    10     2     1    2
    11     7    12    1
    12     7     6    1
    13    13    12    1
    14    13    14    1
    15    15    14    1
    16    12    10    1
    17     4     1    1
    18     4     5    1
    19     1     3    1
    20     1    23    1
    21     6     5    1
    22     6     8    1
    23     9     8    1
    24    23    24    1
    25    10     8    1
    26    10    11    1
    27    11    45    1
    28    26    24    2
    29    27    24    1
    30    27    28    1
    31    24    25    1
    32    46    45    2
    33    45    48    1
    34    45    47    1
    35    28    29    1
    36    43    44    2
    37    43    42    1
    38    44    36    1
    39    30    29    1
    40    30    35    1
    41    29    31    1
    42    42    38    2
    43    36    35    1
    44    36    37    1
    45    38    37    1
    46    38    39    1
    47    31    32    1
    48    31    33    1
    49    35    33    1
    50    40    39    2
    51    39    41   am
    52    33    34    1
