@<TRIPOS>MOLECULE
2pdq_47D_A_1.pdb
 23 25 0 0 0
SMALL
GASTEIGER

@<TRIPOS>ATOM
      1  C1        15.5490    7.8380  -13.0370 C.2   600  47D600      0.1243
      2  N         16.5290    8.3770  -13.7870 N.2   600  47D600     -0.4012
      3  C2        17.4710    8.9450  -13.1370 C.2   600  47D600      0.1577
      4  C3        18.6770    9.5740  -13.7660 C.3   600  47D600      0.1789
      5  N2        19.4210   10.3960  -12.8260 N.ar  600  47D600     -0.2412
      6  C4        18.9870   11.6680  -12.6020 C.ar  600  47D600      0.3346
      7  O1        18.1800   12.1610  -13.3790 O.2   600  47D600     -0.2462
      8  N3        19.4260   12.3490  -11.5740 N.ar  600  47D600     -0.2688
      9  C5        19.0600   13.7510  -11.4010 C.3   600  47D600      0.2246
     10  C6        17.7720   13.8740  -10.6310 C.2   600  47D600      0.3876
     11  O2        17.2490   15.0820  -10.5390 O.co2 600  47D600     -0.2435
     12  O3        17.2430   12.8950  -10.1160 O.co2 600  47D600     -0.2435
     13  C7        20.2890   11.8480  -10.7250 C.ar  600  47D600      0.0852
     14  C8        20.7680   10.6020  -10.8560 C.ar  600  47D600      0.0796
     15  C9        20.3310    9.8120  -11.9990 C.ar  600  47D600      0.2662
     16  O4        20.7270    8.6620  -12.1550 O.2   600  47D600     -0.2668
     17  S         17.2780    8.9030  -11.3480 S.3   600  47D600     -0.0740
     18  C10       15.7850    8.0250  -11.6790 C.3   600  47D600      0.1280
     19  C12       14.9370    7.5700  -10.6760 C.2   600  47D600     -0.0074
     20  C13       13.7870    6.8900  -11.0750 C.2   600  47D600      0.0082
     21  C14       13.5670    6.7090  -12.4550 C.2   600  47D600      0.0596
     22 CL         12.1270    5.8610  -12.9550 Cl    600  47D600     -0.0822
     23  C15       14.4930    7.0480  -13.4490 C.2   600  47D600      0.0401
@<TRIPOS>BOND
     1     2     3    2
     2     2     1    2
     3     4     3    1
     4     4     5    1
     5    23     1    1
     6    23    21    2
     7     7     6    2
     8     3    17    1
     9     1    18    1
    10    22    21    1
    11     5     6   ar
    12     5    15   ar
    13     6     8   ar
    14    21    20    1
    15    16    15    2
    16    15    14   ar
    17    18    17    1
    18    18    19    1
    19     8     9    1
    20     8    13   ar
    21     9    10    1
    22    20    19    2
    23    14    13   ar
    24    10    11   ar
    25    10    12   ar
