@<TRIPOS>MOLECULE
2pdq_NAP_A_1.pdb
 48 52 0 0 0
SMALL
GASTEIGER

@<TRIPOS>ATOM
      1  PA        22.0140   21.5300  -17.8760 P.3   500  NAP500      0.2189
      2  O1A       21.4140   21.0710  -19.1520 O.2   500  NAP500     -0.5170
      3  O2A       21.4690   22.6990  -17.1860 O.3   500  NAP500     -0.4371
      4  O5B       23.5960   21.6230  -18.1250 O.3   500  NAP500     -0.3112
      5  C5B       24.4820   21.8050  -17.0470 C.3   500  NAP500      0.1813
      6  C4B       25.9180   21.6150  -17.6510 C.3   500  NAP500      0.1820
      7  O4B       26.1170   22.7050  -18.6200 O.3   500  NAP500     -0.3136
      8  C3B       27.0090   21.8490  -16.5540 C.3   500  NAP500      0.2157
      9  O3B       28.1170   21.0010  -16.8540 O.3   500  NAP500     -0.2175
     10  C2B       27.3730   23.3380  -16.8100 C.3   500  NAP500      0.2314
     11  O2B       28.7400   23.5960  -16.4760 O.3   500  NAP500     -0.2630
     12  C1B       27.1490   23.5500  -18.2880 C.3   500  NAP500      0.3158
     13  N9A       26.9160   24.9220  -18.6220 N.pl3 500  NAP500     -0.1439
     14  C8A       26.0580   25.8020  -17.9920 C.3   500  NAP500      0.3377
     15  N7A       25.9550   26.9720  -18.5860 N.2   500  NAP500     -0.2095
     16  C5A       26.8060   26.8430  -19.6800 C.2   500  NAP500      0.2526
     17  C6A       27.0530   27.8290  -20.6410 C.2   500  NAP500      0.4393
     18  N6A       26.5120   29.0500  -20.6620 N.pl3 500  NAP500      0.2180
     19  N1A       27.9500   27.4630  -21.6430 N.2   500  NAP500      0.0021
     20  C2A       28.5230   26.2050  -21.6480 C.3   500  NAP500      0.5254
     21  N3A       28.2660   25.2500  -20.6940 N.2   500  NAP500     -0.0055
     22  C4A       27.3760   25.6020  -19.6900 C.2   500  NAP500      0.3518
     23  O3        21.9840   20.2130  -16.9420 O.3   500  NAP500     -0.2703
     24  PN        21.2010   19.6530  -15.6680 P.3   500  NAP500      0.2189
     25  O1N       21.9290   20.0900  -14.4390 O.3   500  NAP500     -0.4371
     26  O2N       20.9480   18.1850  -15.8310 O.2   500  NAP500     -0.5170
     27  O5D       19.7390   20.2970  -15.7280 O.3   500  NAP500     -0.3112
     28  C5D       19.5060   21.6180  -15.1360 C.3   500  NAP500      0.1813
     29  C4D       18.8520   21.4040  -13.7700 C.3   500  NAP500      0.1799
     30  O4D       17.5770   20.7050  -13.9250 O.3   500  NAP500     -0.3327
     31  C3D       19.5720   20.4930  -12.7300 C.3   500  NAP500      0.2158
     32  O3D       20.6860   21.0440  -12.0870 O.3   500  NAP500     -0.2175
     33  C2D       18.4130   20.1390  -11.7900 C.3   500  NAP500      0.2309
     34  O2D       18.2050   21.2770  -10.9450 O.3   500  NAP500     -0.2158
     35  C1D       17.2710   19.9360  -12.7440 C.3   500  NAP500      0.2263
     36  N1N       17.0190   18.5030  -13.1960 N.pl3 500  NAP500     -0.2787
     37  C2N       15.8980   17.8930  -12.6410 C.3   500  NAP500      0.1244
     38  C3N       15.7640   16.5190  -12.8180 C.2   500  NAP500      0.0544
     39  C7N       14.5450   15.8010  -12.2260 C.2   500  NAP500      0.2818
     40  O7N       14.5120   14.5800  -12.2670 O.2   500  NAP500     -0.2670
     41  N7N       13.5240   16.5630  -11.8750 N.am  500  NAP500     -0.0839
     42  C4N       16.7490   15.7740  -13.5480 C.2   500  NAP500      0.0033
     43  C5N       17.8760   16.4370  -14.0940 C.2   500  NAP500      0.0157
     44  C6N       18.0400   17.8420  -13.9380 C.2   500  NAP500      0.0633
     45  P2B       29.2270   24.2870  -15.0590 P.3   500  NAP500      0.5328
     46  O1X       29.4370   25.7600  -15.5190 O.2   500  NAP500     -0.2224
     47  O2X       28.1350   24.1230  -14.0760 O.3   500  NAP500     -0.1145
     48  O3X       30.5370   23.5680  -14.7610 O.3   500  NAP500     -0.1145
@<TRIPOS>BOND
     1    20    19    1
     2    20    21    1
     3    19    17    2
     4    21    22    2
     5    18    17    1
     6    17    16    1
     7    22    16    1
     8    22    13    1
     9    16    15    2
    10     2     1    2
    11    13    12    1
    12    13    14    1
    13     7    12    1
    14     7     6    1
    15    15    14    1
    16    12    10    1
    17     4     1    1
    18     4     5    1
    19     1     3    1
    20     1    23    1
    21     6     5    1
    22     6     8    1
    23    23    24    1
    24     9     8    1
    25    10     8    1
    26    10    11    1
    27    11    45    1
    28    26    24    2
    29    27    24    1
    30    27    28    1
    31    24    25    1
    32    46    45    2
    33    28    29    1
    34    45    48    1
    35    45    47    1
    36    43    44    2
    37    43    42    1
    38    44    36    1
    39    30    29    1
    40    30    35    1
    41    29    31    1
    42    42    38    2
    43    36    35    1
    44    36    37    1
    45    38    37    1
    46    38    39    1
    47    35    33    1
    48    31    32    1
    49    31    33    1
    50    40    39    2
    51    39    41   am
    52    33    34    1
