@<TRIPOS>MOLECULE
2pdt_FAD_A_1.pdb
 31 33 0 0 0
SMALL
GASTEIGER

@<TRIPOS>ATOM
      1  N1        64.3390   44.4700    1.5290 N.2   201  FAD201     -0.2887
      2  C2        63.5460   45.5210    1.8860 C.1   201  FAD201      0.3669
      3  O2        64.0130   46.5470    2.4130 O.2   201  FAD201     -0.1744
      4  N3        62.1550   45.4590    1.6450 N.2   201  FAD201     -0.2300
      5  C4        61.5040   44.3590    1.0350 C.1   201  FAD201      0.2513
      6  O4        60.2530   44.3710    0.8510 O.2   201  FAD201     -0.2057
      7  C4X       62.3540   43.2660    0.6850 C.2   201  FAD201      0.2706
      8  N5        61.7790   42.1100    0.0890 N.2   201  FAD201     -0.3841
      9  C5X       62.6390   41.0540   -0.2710 C.2   201  FAD201      0.1452
     10  C6        62.0940   39.8690   -0.8600 C.2   201  FAD201      0.0252
     11  C7        62.8930   38.8050   -1.2510 C.2   201  FAD201     -0.0375
     12  C7M       62.2050   37.5860   -1.8860 C.3   201  FAD201      0.0268
     13  C8        64.2890   38.8470   -1.0400 C.3   201  FAD201      0.0417
     14  C8M       65.2090   37.7070   -1.4190 C.3   201  FAD201      0.0091
     15  C9        64.8610   40.0110   -0.4060 C.2   201  FAD201     -0.0049
     16  C9A       64.0790   41.1170   -0.0320 C.2   201  FAD201      0.0795
     17  N10       64.6200   42.3050    0.6140 N.pl3 201  FAD201     -0.2545
     18  C10       63.7640   43.3580    0.9600 C.2   201  FAD201      0.2449
     19  C1'       66.0610   42.4430    0.9250 C.3   201  FAD201      0.1336
     20  C2'       66.9820   43.0870   -0.0970 C.3   201  FAD201      0.2048
     21  O2'       66.5900   42.6660   -1.3980 O.3   201  FAD201     -0.2185
     22  C3'       68.4330   42.6790    0.2520 C.3   201  FAD201      0.2165
     23  O3'       68.4880   41.2600    0.2710 O.3   201  FAD201     -0.2175
     24  C4'       68.8940   43.2090    1.6410 C.3   201  FAD201      0.2147
     25  O4'       69.0610   44.6090    1.5690 O.3   201  FAD201     -0.2176
     26  C5'       70.1860   42.5560    2.1030 C.3   201  FAD201      0.1892
     27  O5'       71.0530   42.3150    0.9890 O.3   201  FAD201     -0.2674
     28  P         72.1600   43.3700    0.5700 P.3   201  FAD201      0.5327
     29  O1P       72.9150   42.7760   -0.5320 O.2   201  FAD201     -0.2224
     30  O2P       71.5000   44.6740    0.2950 O.3   201  FAD201     -0.1145
     31  O3P       73.0440   43.5420    1.9000 O.3   201  FAD201     -0.1145
@<TRIPOS>BOND
     1    12    11    1
     2    14    13    1
     3    21    20    1
     4    11    13    1
     5    11    10    2
     6    13    15    1
     7    10     9    1
     8    29    28    2
     9    15    16    2
    10     9    16    1
    11     9     8    2
    12    20    22    1
    13    20    19    1
    14    16    17    1
    15     8     7    2
    16    22    23    1
    17    22    24    1
    18    30    28    1
    19    28    27    1
    20    28    31    1
    21    17    19    1
    22    17    18    1
    23     7    18    1
    24     7     5    1
    25     6     5    2
    26    18     1    2
    27    27    26    1
    28     5     4    2
    29     1     2    2
    30    25    24    1
    31    24    26    1
    32     4     2    2
    33     2     3    2
