@<TRIPOS>MOLECULE
2pdu_393_A_1.pdb
 25 26 0 0 0
SMALL
GASTEIGER

@<TRIPOS>ATOM
      1  C1        14.4150    6.9410  -12.7190 C.ar  600  393600      0.1426
      2  N2        13.4270    6.3620  -13.5030 N.pl3 600  393600      0.0577
      3  O3        12.4630    5.7550  -13.0100 O.2   600  393600     -0.1261
      4  O4        13.6040    6.5200  -14.7260 O.2   600  393600     -0.1261
      5  C5        15.4790    7.6190  -13.3150 C.ar  600  393600      0.0215
      6  C6        16.5010    8.2070  -12.5470 C.ar  600  393600      0.0011
      7  C7        17.6240    8.9380  -13.2650 C.3   600  393600      0.1418
      8  N8        18.4020    9.7880  -12.4090 N.am  600  393600     -0.1967
      9  C9        19.6520    9.4570  -12.0070 C.2   600  393600      0.2680
     10  C10       20.2630   10.3940  -10.9900 C.ar  600  393600      0.0890
     11  C11       21.0420    9.8980   -9.9530 C.ar  600  393600      0.0085
     12  C12       21.6350   10.6750   -8.9780 C.ar  600  393600      0.0117
     13  C13       21.4390   12.0480   -9.0510 C.ar  600  393600      0.0607
     14 CL1        21.9780   12.9350   -7.6420 Cl    600  393600     -0.0821
     15  C15       20.6650   12.5930  -10.0790 C.ar  600  393600      0.0484
     16  C16       20.0740   11.7800  -11.0520 C.ar  600  393600      0.1446
     17  O17       19.3030   12.2620  -12.0860 O.3   600  393600     -0.4635
     18  C18       18.8790   13.6250  -12.0040 C.3   600  393600      0.3186
     19  C19       17.6460   13.6420  -11.1210 C.2   600  393600      0.4084
     20  O20       17.2450   14.8320  -10.7500 O.co2 600  393600     -0.2415
     21  O21       17.0700   12.6140  -10.7820 O.co2 600  393600     -0.2415
     22  O22       20.1320    8.3330  -12.1910 O.2   600  393600     -0.2682
     23  C23       16.3960    8.1070  -11.1660 C.ar  600  393600     -0.0025
     24  C24       15.3390    7.4270  -10.5660 C.ar  600  393600      0.0014
     25  C25       14.3300    6.8290  -11.3320 C.ar  600  393600      0.0241
@<TRIPOS>BOND
     1     4     2    2
     2     2     3    2
     3     2     1    1
     4     5     1   ar
     5     5     6   ar
     6     7     6    1
     7     7     8    1
     8     1    25   ar
     9     6    23   ar
    10     8     9   am
    11    22     9    2
    12    17    18    1
    13    17    16    1
    14     9    10    1
    15    18    19    1
    16    25    24   ar
    17    23    24   ar
    18    19    21   ar
    19    19    20   ar
    20    16    10   ar
    21    16    15   ar
    22    10    11   ar
    23    15    13   ar
    24    11    12   ar
    25    13    12   ar
    26    13    14    1
