@<TRIPOS>MOLECULE
2pdu_NAP_A_1.pdb
 48 52 0 0 0
SMALL
GASTEIGER

@<TRIPOS>ATOM
      1  PA        21.9370   21.3430  -17.9710 P.3   500  NAP500      0.2189
      2  O1A       21.3730   20.9750  -19.2760 O.2   500  NAP500     -0.5170
      3  O2A       21.4320   22.4970  -17.1930 O.3   500  NAP500     -0.4371
      4  O5B       23.5110   21.4650  -18.3000 O.3   500  NAP500     -0.3112
      5  C5B       24.4120   21.6550  -17.2170 C.3   500  NAP500      0.1813
      6  C4B       25.8500   21.5830  -17.8100 C.3   500  NAP500      0.1820
      7  O4B       26.0410   22.6870  -18.7480 O.3   500  NAP500     -0.3136
      8  C3B       26.9350   21.7550  -16.6980 C.3   500  NAP500      0.2157
      9  O3B       28.0050   20.9080  -17.1210 O.3   500  NAP500     -0.2175
     10  C2B       27.3370   23.2560  -16.9210 C.3   500  NAP500      0.2314
     11  O2B       28.7200   23.4260  -16.5670 O.3   500  NAP500     -0.2630
     12  C1B       27.1390   23.4800  -18.4160 C.3   500  NAP500      0.3158
     13  N9A       26.8330   24.8560  -18.7210 N.pl3 500  NAP500     -0.1439
     14  C8A       25.9790   25.7230  -18.1020 C.3   500  NAP500      0.3377
     15  N7A       25.8540   26.9180  -18.6680 N.2   500  NAP500     -0.2095
     16  C5A       26.7050   26.8090  -19.7580 C.2   500  NAP500      0.2526
     17  C6A       26.9700   27.7900  -20.7210 C.2   500  NAP500      0.4393
     18  N6A       26.4630   29.0310  -20.7810 N.pl3 500  NAP500      0.2180
     19  N1A       27.8730   27.4130  -21.6980 N.2   500  NAP500      0.0021
     20  C2A       28.4410   26.1640  -21.6980 C.3   500  NAP500      0.5254
     21  N3A       28.1780   25.2080  -20.7530 N.2   500  NAP500     -0.0055
     22  C4A       27.2910   25.5590  -19.7690 C.2   500  NAP500      0.3518
     23  O3        21.9350   20.0230  -17.0560 O.3   500  NAP500     -0.2703
     24  PN        21.1620   19.4610  -15.7560 P.3   500  NAP500      0.2189
     25  O1N       21.8730   19.8720  -14.5460 O.3   500  NAP500     -0.4371
     26  O2N       20.9130   18.0340  -16.0400 O.2   500  NAP500     -0.5170
     27  O5D       19.7250   20.1450  -15.7780 O.3   500  NAP500     -0.3112
     28  C5D       19.4400   21.4510  -15.2180 C.3   500  NAP500      0.1813
     29  C4D       18.7850   21.2270  -13.8530 C.3   500  NAP500      0.1799
     30  O4D       17.5580   20.4540  -14.0150 O.3   500  NAP500     -0.3327
     31  C3D       19.5430   20.3400  -12.8320 C.3   500  NAP500      0.2158
     32  O3D       20.6820   20.9180  -12.2600 O.3   500  NAP500     -0.2175
     33  C2D       18.4110   19.9870  -11.8620 C.3   500  NAP500      0.2309
     34  O2D       18.2070   21.1350  -11.0370 O.3   500  NAP500     -0.2158
     35  C1D       17.2330   19.7890  -12.7690 C.3   500  NAP500      0.2263
     36  N1N       16.9950   18.3210  -13.1420 N.pl3 500  NAP500     -0.2787
     37  C2N       15.8800   17.7280  -12.5640 C.3   500  NAP500      0.1244
     38  C3N       15.7480   16.3720  -12.8810 C.2   500  NAP500      0.0544
     39  C7N       14.5460   15.6060  -12.3020 C.2   500  NAP500      0.2818
     40  O7N       14.5230   14.3920  -12.4730 O.2   500  NAP500     -0.2670
     41  N7N       13.5450   16.3960  -11.9760 N.am  500  NAP500     -0.0839
     42  C4N       16.6600   15.6860  -13.7060 C.2   500  NAP500      0.0033
     43  C5N       17.7950   16.3290  -14.2710 C.2   500  NAP500      0.0157
     44  C6N       17.9480   17.7100  -13.9800 C.2   500  NAP500      0.0633
     45  P2B       29.2210   24.1890  -15.2120 P.3   500  NAP500      0.5328
     46  O1X       29.3750   25.6870  -15.6360 O.2   500  NAP500     -0.2224
     47  O2X       28.1670   24.0000  -14.1460 O.3   500  NAP500     -0.1145
     48  O3X       30.6070   23.5610  -14.9870 O.3   500  NAP500     -0.1145
@<TRIPOS>BOND
     1    20    19    1
     2    20    21    1
     3    19    17    2
     4    18    17    1
     5    21    22    2
     6    17    16    1
     7    22    16    1
     8    22    13    1
     9    16    15    2
    10     2     1    2
    11     7    12    1
    12     7     6    1
    13    13    12    1
    14    13    14    1
    15    15    14    1
    16    12    10    1
    17     4     1    1
    18     4     5    1
    19     1     3    1
    20     1    23    1
    21     6     5    1
    22     6     8    1
    23     9     8    1
    24    23    24    1
    25    10     8    1
    26    10    11    1
    27    11    45    1
    28    26    24    2
    29    27    24    1
    30    27    28    1
    31    24    25    1
    32    46    45    2
    33    28    29    1
    34    45    48    1
    35    45    47    1
    36    43    44    2
    37    43    42    1
    38    30    29    1
    39    30    35    1
    40    44    36    1
    41    29    31    1
    42    42    38    2
    43    36    35    1
    44    36    37    1
    45    38    37    1
    46    38    39    1
    47    31    32    1
    48    31    33    1
    49    35    33    1
    50    40    39    2
    51    39    41   am
    52    33    34    1
