@<TRIPOS>MOLECULE
2pdw_NAP_A_1.pdb
 48 52 0 0 0
SMALL
GASTEIGER

@<TRIPOS>ATOM
      1  PA        23.0880   -4.8750   27.0390 P.3   500  NAP500      0.2189
      2  O1A       23.9450   -3.8160   26.5440 O.2   500  NAP500     -0.5170
      3  O2A       22.0100   -4.6040   27.9920 O.3   500  NAP500     -0.4371
      4  O5B       24.0690   -6.0460   27.5770 O.3   500  NAP500     -0.3112
      5  C5B       23.4710   -7.2520   28.0870 C.3   500  NAP500      0.1813
      6  C4B       24.6540   -8.2180   28.4000 C.3   500  NAP500      0.1820
      7  O4B       25.3860   -7.6640   29.5320 O.3   500  NAP500     -0.3136
      8  C3B       24.2200   -9.6470   28.8810 C.3   500  NAP500      0.2157
      9  O3B       25.2340  -10.5600   28.4620 O.3   500  NAP500     -0.2175
     10  C2B       24.2990   -9.4630   30.4360 C.3   500  NAP500      0.2314
     11  O2B       24.5620  -10.7520   31.0050 O.3   500  NAP500     -0.2630
     12  C1B       25.4710   -8.5460   30.6060 C.3   500  NAP500      0.3158
     13  N9A       25.4400   -7.7790   31.7990 N.pl3 500  NAP500     -0.1439
     14  C8A       24.3530   -7.1290   32.3520 C.3   500  NAP500      0.3377
     15  N7A       24.6100   -6.5030   33.4510 N.2   500  NAP500     -0.2095
     16  C5A       25.9590   -6.7590   33.6440 C.2   500  NAP500      0.2526
     17  C6A       26.7550   -6.3080   34.6900 C.2   500  NAP500      0.4393
     18  N6A       26.4000   -5.5580   35.7060 N.pl3 500  NAP500      0.2180
     19  N1A       28.0760   -6.7410   34.5860 N.2   500  NAP500      0.0021
     20  C2A       28.5580   -7.5200   33.5570 C.3   500  NAP500      0.5254
     21  N3A       27.7610   -7.9500   32.5310 N.2   500  NAP500     -0.0055
     22  C4A       26.4500   -7.5300   32.6260 C.2   500  NAP500      0.3518
     23  O3        22.4660   -5.6260   25.7470 O.3   500  NAP500     -0.2703
     24  PN        21.0950   -5.7050   24.9130 P.3   500  NAP500      0.2189
     25  O1N       20.3190   -6.8570   25.4160 O.3   500  NAP500     -0.4371
     26  O2N       21.4940   -5.7130   23.4870 O.2   500  NAP500     -0.5170
     27  O5D       20.3570   -4.3140   25.1600 O.3   500  NAP500     -0.3112
     28  C5D       19.5120   -4.0410   26.3330 C.3   500  NAP500      0.1813
     29  C4D       18.0790   -4.1800   25.8570 C.3   500  NAP500      0.1799
     30  O4D       17.7400   -3.1750   24.8440 O.3   500  NAP500     -0.3327
     31  C3D       17.6190   -5.4920   25.1510 C.3   500  NAP500      0.2158
     32  O3D       17.6180   -6.6150   26.0020 O.3   500  NAP500     -0.2175
     33  C2D       16.2930   -5.0640   24.5590 C.3   500  NAP500      0.2309
     34  O2D       15.3210   -4.9660   25.6310 O.3   500  NAP500     -0.2158
     35  C1D       16.6100   -3.6640   24.0780 C.3   500  NAP500      0.2263
     36  N1N       17.0900   -3.5580   22.6370 N.pl3 500  NAP500     -0.2787
     37  C2N       16.2050   -2.9980   21.7340 C.3   500  NAP500      0.1244
     38  C3N       16.6060   -2.9920   20.4090 C.2   500  NAP500      0.0544
     39  C7N       15.6780   -2.3920   19.3620 C.2   500  NAP500      0.2818
     40  O7N       15.9990   -2.5320   18.1890 O.2   500  NAP500     -0.2670
     41  N7N       14.7740   -1.5490   19.8210 N.am  500  NAP500     -0.0839
     42  C4N       17.8570   -3.5140   19.9610 C.2   500  NAP500      0.0033
     43  C5N       18.7250   -4.1040   20.9280 C.2   500  NAP500      0.0157
     44  C6N       18.3460   -4.0970   22.2870 C.2   500  NAP500      0.0633
     45  P2B       23.4910  -11.6480   31.8080 P.3   500  NAP500      0.5328
     46  O1X       23.5750  -11.2400   33.3230 O.3   500  NAP500     -0.1145
     47  O2X       22.1780  -11.4150   31.1970 O.2   500  NAP500     -0.2224
     48  O3X       24.0700  -13.0890   31.6840 O.3   500  NAP500     -0.1145
@<TRIPOS>BOND
     1    40    39    2
     2    39    41   am
     3    39    38    1
     4    42    38    2
     5    42    43    1
     6    38    37    1
     7    43    44    2
     8    37    36    1
     9    44    36    1
    10    36    35    1
    11    26    24    2
    12    35    33    1
    13    35    30    1
    14    33    31    1
    15    33    34    1
    16    30    29    1
    17    24    27    1
    18    24    25    1
    19    24    23    1
    20    31    29    1
    21    31    32    1
    22    27    28    1
    23    23     1    1
    24    29    28    1
    25     2     1    2
    26     1     4    1
    27     1     3    1
    28     4     5    1
    29     5     6    1
    30     6     8    1
    31     6     7    1
    32     9     8    1
    33     8    10    1
    34     7    12    1
    35    10    12    1
    36    10    11    1
    37    12    13    1
    38    11    45    1
    39    47    45    2
    40    48    45    1
    41    13    14    1
    42    13    22    1
    43    45    46    1
    44    14    15    1
    45    21    22    2
    46    21    20    1
    47    22    16    1
    48    15    16    2
    49    20    19    1
    50    16    17    1
    51    19    17    2
    52    17    18    1
