@<TRIPOS>MOLECULE
2pdw_FID_A_1.pdb
 20 22 0 0 0
SMALL
GASTEIGER

@<TRIPOS>ATOM
      1  C2I       16.4620   -6.3550   19.5560 C.1   600  FID600      0.3075
      2  N4        15.6280   -5.8060   18.5990 N.2   600  FID600     -0.2446
      3  C5        16.0380   -6.2530   17.3780 C.1   600  FID600      0.2166
      4  C7I       17.2860   -7.1470   17.5370 C.3   600  FID600      0.2260
      5  C12       16.8020   -8.5370   17.1410 C.ar  600  FID600      0.0506
      6  C13       16.0260   -9.2870   18.0060 C.ar  600  FID600      0.0313
      7  C14       15.6220  -10.5380   17.5720 C.ar  600  FID600      0.1401
      8  F17       14.8450  -11.2510   18.4640 F     600  FID600     -0.2042
      9  C15       15.9390  -11.0460   16.3880 C.ar  600  FID600      0.0327
     10  C16       16.7250  -10.2970   15.5080 C.ar  600  FID600      0.0390
     11  C11       17.1630   -9.0350   15.8870 C.ar  600  FID600      0.1380
     12  O10       17.9250   -8.3270   15.0080 O.3   600  FID600     -0.4699
     13  C9        18.2440   -6.9580   15.2300 C.3   600  FID600      0.2477
     14  C19       19.4790   -6.6660   14.3860 C.2   600  FID600      0.3010
     15  N21       19.9960   -7.7190   13.7310 N.am  600  FID600     -0.0846
     16  O20       19.8890   -5.5090   14.3450 O.2   600  FID600     -0.2677
     17  C8I       18.4850   -6.6910   16.7110 C.3   600  FID600      0.0980
     18  N1I       17.4620   -7.0850   18.9940 N.2   600  FID600     -0.1582
     19  O6I       15.5100   -5.9910   16.3060 O.2   600  FID600     -0.2111
     20  O3I       16.3770   -6.1000   20.7440 O.2   600  FID600     -0.1881
@<TRIPOS>BOND
     1    15    14   am
     2    16    14    2
     3    14    13    1
     4    12    13    1
     5    12    11    1
     6    13    17    1
     7    10    11   ar
     8    10     9   ar
     9    11     5   ar
    10    19     3    2
    11     9     7   ar
    12    17     4    1
    13     5     4    1
    14     5     6   ar
    15     3     4    1
    16     3     2    2
    17     4    18    1
    18     7     6   ar
    19     7     8    1
    20     2     1    2
    21    18     1    2
    22     1    20    2
