@<TRIPOS>MOLECULE
2pdx_ZST_A_1.pdb
 29 32 0 0 0
SMALL
GASTEIGER

@<TRIPOS>ATOM
      1  C1        17.9340   -9.0080   15.4110 C.ar  600  ZST600      0.2767
      2  O1        18.2020   -9.7060   14.4130 O.2   600  ZST600     -0.2655
      3  C2        16.9710   -9.5360   16.3510 C.ar  600  ZST600      0.0588
      4  C3        16.6500   -8.7680   17.4790 C.ar  600  ZST600      0.0204
      5  C4        17.3030   -7.4910   17.6160 C.ar  600  ZST600      0.0902
      6  C5        16.3980  -10.7870   16.1320 C.ar  600  ZST600      0.0048
      7  C6        15.4930  -11.2950   17.0400 C.ar  600  ZST600      0.0002
      8  C7        15.1610  -10.5390   18.1690 C.ar  600  ZST600      0.0000
      9  C8        15.7280   -9.3130   18.3880 C.ar  600  ZST600      0.0014
     10  N1        18.4360   -7.7690   15.6900 N.ar  600  ZST600     -0.2091
     11  N2        18.1490   -6.9830   16.7830 N.ar  600  ZST600     -0.1702
     12  C9        19.4090   -7.1080   14.8110 C.3   600  ZST600      0.1956
     13  C10       18.4820   -6.4390   13.7620 C.2   600  ZST600      0.1594
     14  C11       16.6050   -5.5490   12.4070 C.3   600  ZST600      0.1279
     15  C12       17.8860   -5.3070   11.9160 C.2   600  ZST600      0.1234
     16  C13       15.4450   -5.1070   11.7490 C.2   600  ZST600     -0.0083
     17  C14       15.5920   -4.4120   10.5830 C.2   600  ZST600      0.0006
     18  C15       16.8600   -4.1740   10.0950 C.2   600  ZST600      0.0734
     19  C16       18.0000   -4.5970   10.7230 C.2   600  ZST600      0.0326
     20  N3        18.9360   -5.8230   12.7060 N.2   600  ZST600     -0.4012
     21  S1        16.7340   -6.4270   13.8610 S.3   600  ZST600     -0.0740
     22  C17       17.0620   -6.5560   18.7700 C.3   600  ZST600      0.1613
     23  C18       15.7240   -5.9000   18.5960 C.2   600  ZST600      0.3709
     24  O2        15.2580   -5.8130   17.4330 O.co2 600  ZST600     -0.2452
     25  O3        15.2210   -5.2590   19.5430 O.co2 600  ZST600     -0.2452
     26  C19       16.9250   -3.4010    8.8110 C.3   600  ZST600      0.4186
     27  F1        16.7410   -2.1120    9.0650 F     600  ZST600     -0.1659
     28  F2        16.0570   -3.8090    7.9060 F     600  ZST600     -0.1659
     29  F3        18.0280   -3.5300    8.0990 F     600  ZST600     -0.1659
@<TRIPOS>BOND
     1    28    26    1
     2    29    26    1
     3    26    27    1
     4    26    18    1
     5    18    17    1
     6    18    19    2
     7    17    16    2
     8    19    15    1
     9    16    14    1
    10    15    14    1
    11    15    20    2
    12    14    21    1
    13    20    13    2
    14    13    21    1
    15    13    12    1
    16     2     1    2
    17    12    10    1
    18     1    10   ar
    19     1     3   ar
    20    10    11   ar
    21     6     3   ar
    22     6     7   ar
    23     3     4   ar
    24    11     5   ar
    25     7     8   ar
    26    24    23   ar
    27     4     5   ar
    28     4     9   ar
    29     5    22    1
    30     8     9   ar
    31    23    22    1
    32    23    25   ar
