@<TRIPOS>MOLECULE
2pdx_NAP_A_1.pdb
 48 52 0 0 0
SMALL
GASTEIGER

@<TRIPOS>ATOM
      1  PA        22.8990   -4.7290   27.2890 P.3   500  NAP500      0.2189
      2  O1A       23.8120   -3.6860   26.8000 O.2   500  NAP500     -0.5170
      3  O2A       21.8510   -4.5030   28.2870 O.3   500  NAP500     -0.4371
      4  O5B       23.8720   -5.9050   27.8560 O.3   500  NAP500     -0.3112
      5  C5B       23.3200   -7.1480   28.2220 C.3   500  NAP500      0.1813
      6  C4B       24.5050   -8.0990   28.5930 C.3   500  NAP500      0.1820
      7  O4B       25.1290   -7.5210   29.7730 O.3   500  NAP500     -0.3136
      8  C3B       23.9810   -9.4950   29.0890 C.3   500  NAP500      0.2157
      9  O3B       24.9240  -10.4300   28.5860 O.3   500  NAP500     -0.2175
     10  C2B       24.1060   -9.3820   30.6500 C.3   500  NAP500      0.2314
     11  O2B       24.3690  -10.6840   31.2210 O.3   500  NAP500     -0.2630
     12  C1B       25.2840   -8.4420   30.8170 C.3   500  NAP500      0.3158
     13  N9A       25.2170   -7.6900   32.0400 N.pl3 500  NAP500     -0.1439
     14  C8A       24.1470   -7.0400   32.6110 C.3   500  NAP500      0.3377
     15  N7A       24.4200   -6.4030   33.7200 N.2   500  NAP500     -0.2095
     16  C5A       25.7720   -6.6460   33.8930 C.2   500  NAP500      0.2526
     17  C6A       26.5650   -6.1850   34.9550 C.2   500  NAP500      0.4393
     18  N6A       26.1730   -5.4170   35.9840 N.pl3 500  NAP500      0.2180
     19  N1A       27.8930   -6.5750   34.8890 N.2   500  NAP500      0.0021
     20  C2A       28.3460   -7.3710   33.8410 C.3   500  NAP500      0.5254
     21  N3A       27.5590   -7.8070   32.8210 N.2   500  NAP500     -0.0055
     22  C4A       26.2380   -7.4230   32.8680 C.2   500  NAP500      0.3518
     23  O3        22.2860   -5.5170   26.0330 O.3   500  NAP500     -0.2703
     24  PN        20.8820   -5.5590   25.2640 P.3   500  NAP500      0.2189
     25  O1N       20.0720   -6.7460   25.7190 O.3   500  NAP500     -0.4371
     26  O2N       21.1430   -5.5900   23.7940 O.2   500  NAP500     -0.5170
     27  O5D       20.1780   -4.1600   25.4980 O.3   500  NAP500     -0.3112
     28  C5D       19.3010   -3.9100   26.6320 C.3   500  NAP500      0.1813
     29  C4D       17.8320   -3.9860   26.2150 C.3   500  NAP500      0.1799
     30  O4D       17.5060   -2.9700   25.2140 O.3   500  NAP500     -0.3327
     31  C3D       17.3990   -5.3080   25.4850 C.3   500  NAP500      0.2158
     32  O3D       17.3560   -6.4640   26.2860 O.3   500  NAP500     -0.2175
     33  C2D       16.0830   -4.8430   24.8550 C.3   500  NAP500      0.2309
     34  O2D       15.1320   -4.7700   25.9310 O.3   500  NAP500     -0.2158
     35  C1D       16.4090   -3.4610   24.3750 C.3   500  NAP500      0.2263
     36  N1N       16.8950   -3.3510   22.9480 N.pl3 500  NAP500     -0.2787
     37  C2N       16.0100   -2.8240   22.0250 C.3   500  NAP500      0.1244
     38  C3N       16.4010   -2.8880   20.6910 C.2   500  NAP500      0.0544
     39  C7N       15.4500   -2.3100   19.6350 C.2   500  NAP500      0.2818
     40  O7N       15.7500   -2.5870   18.4850 O.2   500  NAP500     -0.2670
     41  N7N       14.6910   -1.3140   20.0620 N.am  500  NAP500     -0.0839
     42  C4N       17.6360   -3.4610   20.2530 C.2   500  NAP500      0.0033
     43  C5N       18.5270   -3.9920   21.2240 C.2   500  NAP500      0.0157
     44  C6N       18.1530   -3.9320   22.5960 C.2   500  NAP500      0.0633
     45  P2B       23.2810  -11.5540   32.0760 P.3   500  NAP500      0.5328
     46  O1X       23.4170  -11.1140   33.5640 O.3   500  NAP500     -0.1145
     47  O2X       21.9290  -11.2640   31.5250 O.2   500  NAP500     -0.2224
     48  O3X       23.8230  -12.9930   31.9060 O.3   500  NAP500     -0.1145
@<TRIPOS>BOND
     1    40    39    2
     2    39    41   am
     3    39    38    1
     4    42    38    2
     5    42    43    1
     6    38    37    1
     7    43    44    2
     8    37    36    1
     9    44    36    1
    10    36    35    1
    11    26    24    2
    12    35    33    1
    13    35    30    1
    14    33    31    1
    15    33    34    1
    16    30    29    1
    17    24    27    1
    18    24    25    1
    19    24    23    1
    20    31    29    1
    21    31    32    1
    22    27    28    1
    23    23     1    1
    24    29    28    1
    25     2     1    2
    26     1     4    1
    27     1     3    1
    28     4     5    1
    29     5     6    1
    30     9     8    1
    31     6     8    1
    32     6     7    1
    33     8    10    1
    34     7    12    1
    35    10    12    1
    36    10    11    1
    37    12    13    1
    38    11    45    1
    39    47    45    2
    40    48    45    1
    41    13    14    1
    42    13    22    1
    43    45    46    1
    44    14    15    1
    45    21    22    2
    46    21    20    1
    47    22    16    1
    48    15    16    2
    49    20    19    1
    50    16    17    1
    51    19    17    2
    52    17    18    1
