@<TRIPOS>MOLECULE
2pdy_FID_A_1.pdb
 20 22 0 0 0
SMALL
GASTEIGER

@<TRIPOS>ATOM
      1  C2I       16.4380   -6.3250   19.5110 C.1   600  FID600      0.3075
      2  N4        15.6050   -5.7650   18.5630 N.2   600  FID600     -0.2446
      3  C5        16.0100   -6.1960   17.3280 C.1   600  FID600      0.2166
      4  C7I       17.2620   -7.0930   17.5080 C.3   600  FID600      0.2260
      5  C12       16.7340   -8.4750   17.1110 C.ar  600  FID600      0.0506
      6  C13       15.9660   -9.2230   17.9880 C.ar  600  FID600      0.0313
      7  C14       15.5300  -10.4480   17.5570 C.ar  600  FID600      0.1401
      8  F17       14.7750  -11.2200   18.3760 F     600  FID600     -0.2042
      9  C15       15.8260  -10.9260   16.3350 C.ar  600  FID600      0.0327
     10  C16       16.5910  -10.1690   15.4780 C.ar  600  FID600      0.0390
     11  C11       17.1330   -8.9570   15.8670 C.ar  600  FID600      0.1380
     12  O10       17.8220   -8.2150   14.9500 O.3   600  FID600     -0.4699
     13  C9        18.1830   -6.8690   15.1800 C.3   600  FID600      0.2477
     14  C19       19.4460   -6.5520   14.3710 C.2   600  FID600      0.3010
     15  N21       19.9620   -7.5720   13.6410 N.am  600  FID600     -0.0846
     16  O20       19.9230   -5.4010   14.3980 O.2   600  FID600     -0.2677
     17  C8I       18.4480   -6.6740   16.6750 C.3   600  FID600      0.0980
     18  N1I       17.4350   -7.0500   18.9520 N.2   600  FID600     -0.1582
     19  O6I       15.4930   -5.9290   16.2590 O.2   600  FID600     -0.2111
     20  O3I       16.3040   -6.0460   20.6960 O.2   600  FID600     -0.1881
@<TRIPOS>BOND
     1    15    14   am
     2    14    16    2
     3    14    13    1
     4    12    13    1
     5    12    11    1
     6    13    17    1
     7    10    11   ar
     8    10     9   ar
     9    11     5   ar
    10    19     3    2
    11     9     7   ar
    12    17     4    1
    13     5     4    1
    14     5     6   ar
    15     3     4    1
    16     3     2    2
    17     4    18    1
    18     7     6   ar
    19     7     8    1
    20     2     1    2
    21    18     1    2
    22     1    20    2
