@<TRIPOS>MOLECULE
2pdy_NAP_A_1.pdb
 48 52 0 0 0
SMALL
GASTEIGER

@<TRIPOS>ATOM
      1  PA        23.0150   -4.7700   27.0520 P.3   500  NAP500      0.2189
      2  O1A       23.9470   -3.7600   26.5390 O.2   500  NAP500     -0.5170
      3  O2A       21.8680   -4.4920   27.9350 O.3   500  NAP500     -0.4371
      4  O5B       23.9160   -6.0180   27.5590 O.3   500  NAP500     -0.3112
      5  C5B       23.3370   -7.2130   28.0610 C.3   500  NAP500      0.1813
      6  C4B       24.5770   -8.1670   28.3390 C.3   500  NAP500      0.1820
      7  O4B       25.2520   -7.5730   29.5020 O.3   500  NAP500     -0.3136
      8  C3B       24.1140   -9.5730   28.8620 C.3   500  NAP500      0.2157
      9  O3B       25.0540  -10.5060   28.3700 O.3   500  NAP500     -0.2175
     10  C2B       24.1970   -9.3800   30.4140 C.3   500  NAP500      0.2314
     11  O2B       24.4630  -10.6310   31.0680 O.3   500  NAP500     -0.2630
     12  C1B       25.3610   -8.4310   30.5890 C.3   500  NAP500      0.3158
     13  N9A       25.2990   -7.6740   31.7980 N.pl3 500  NAP500     -0.1439
     14  C8A       24.2300   -6.9970   32.3460 C.3   500  NAP500      0.3377
     15  N7A       24.5160   -6.3670   33.4530 N.2   500  NAP500     -0.2095
     16  C5A       25.8560   -6.6520   33.6480 C.2   500  NAP500      0.2526
     17  C6A       26.6590   -6.1960   34.7110 C.2   500  NAP500      0.4393
     18  N6A       26.2930   -5.4200   35.7410 N.pl3 500  NAP500      0.2180
     19  N1A       27.9630   -6.6580   34.6190 N.2   500  NAP500      0.0021
     20  C2A       28.4330   -7.4580   33.5900 C.3   500  NAP500      0.5254
     21  N3A       27.6320   -7.8870   32.5600 N.2   500  NAP500     -0.0055
     22  C4A       26.3150   -7.4400   32.6330 C.2   500  NAP500      0.3518
     23  O3        22.3670   -5.5420   25.7790 O.3   500  NAP500     -0.2703
     24  PN        20.9940   -5.6360   24.9350 P.3   500  NAP500      0.2189
     25  O1N       20.1650   -6.7730   25.4120 O.3   500  NAP500     -0.4371
     26  O2N       21.3860   -5.6660   23.4740 O.2   500  NAP500     -0.5170
     27  O5D       20.2780   -4.2390   25.1480 O.3   500  NAP500     -0.3112
     28  C5D       19.4490   -3.9190   26.2940 C.3   500  NAP500      0.1813
     29  C4D       17.9960   -4.0740   25.8860 C.3   500  NAP500      0.1799
     30  O4D       17.6360   -3.0750   24.8620 O.3   500  NAP500     -0.3327
     31  C3D       17.4970   -5.3840   25.2110 C.3   500  NAP500      0.2158
     32  O3D       17.5140   -6.5120   26.0440 O.3   500  NAP500     -0.2175
     33  C2D       16.1670   -4.9100   24.6510 C.3   500  NAP500      0.2309
     34  O2D       15.2100   -4.8050   25.6990 O.3   500  NAP500     -0.2158
     35  C1D       16.5150   -3.5560   24.0850 C.3   500  NAP500      0.2263
     36  N1N       16.9980   -3.5230   22.6460 N.pl3 500  NAP500     -0.2787
     37  C2N       16.1080   -2.9820   21.7320 C.3   500  NAP500      0.1244
     38  C3N       16.4970   -2.9580   20.4110 C.2   500  NAP500      0.0544
     39  C7N       15.5540   -2.3730   19.3550 C.2   500  NAP500      0.2818
     40  O7N       15.8750   -2.5580   18.1870 O.2   500  NAP500     -0.2670
     41  N7N       14.7550   -1.4290   19.8180 N.am  500  NAP500     -0.0839
     42  C4N       17.7630   -3.4560   20.0000 C.2   500  NAP500      0.0033
     43  C5N       18.6490   -4.0240   20.9600 C.2   500  NAP500      0.0157
     44  C6N       18.2720   -4.0480   22.3170 C.2   500  NAP500      0.0633
     45  P2B       23.3830  -11.5750   31.8440 P.3   500  NAP500      0.5328
     46  O1X       23.4880  -11.0670   33.3240 O.3   500  NAP500     -0.1145
     47  O2X       22.0190  -11.3610   31.2890 O.2   500  NAP500     -0.2224
     48  O3X       24.0180  -12.9570   31.7110 O.3   500  NAP500     -0.1145
@<TRIPOS>BOND
     1    40    39    2
     2    39    41   am
     3    39    38    1
     4    42    38    2
     5    42    43    1
     6    38    37    1
     7    43    44    2
     8    37    36    1
     9    44    36    1
    10    36    35    1
    11    26    24    2
    12    35    33    1
    13    35    30    1
    14    33    31    1
    15    33    34    1
    16    30    29    1
    17    24    27    1
    18    24    25    1
    19    24    23    1
    20    27    28    1
    21    31    29    1
    22    31    32    1
    23    23     1    1
    24    29    28    1
    25     2     1    2
    26     1     4    1
    27     1     3    1
    28     4     5    1
    29     5     6    1
    30     6     8    1
    31     6     7    1
    32     9     8    1
    33     8    10    1
    34     7    12    1
    35    10    12    1
    36    10    11    1
    37    12    13    1
    38    11    45    1
    39    47    45    2
    40    48    45    1
    41    13    14    1
    42    13    22    1
    43    45    46    1
    44    14    15    1
    45    21    22    2
    46    21    20    1
    47    22    16    1
    48    15    16    2
    49    20    19    1
    50    16    17    1
    51    19    17    2
    52    17    18    1
