@<TRIPOS>MOLECULE
2pe0_39Z_A_1.pdb
 18 20 0 0 0
SMALL
GASTEIGER

@<TRIPOS>ATOM
      1  C3        -8.1570   41.3290   44.3300 C.1   501  39Z501      0.2009
      2  C5        -7.0000   42.1150   44.4040 C.2   501  39Z501      0.0799
      3  C6        -8.7520   43.2870   43.5880 C.ar  501  39Z501      0.1450
      4  C7        -7.3780   43.3830   43.9220 C.ar  501  39Z501      0.0419
      5  C8        -6.7040   44.6130   43.7320 C.ar  501  39Z501      0.0450
      6  C9        -7.3910   45.7240   43.2210 C.ar  501  39Z501      0.1959
      7  C10       -8.7540   45.6240   42.8960 C.ar  501  39Z501      0.0447
      8  C11       -9.4330   44.4080   43.0790 C.ar  501  39Z501      0.0363
      9  C19       -5.6870   41.7280   44.8960 C.3   501  39Z501      0.0709
     10  C20       -4.5610   42.7820   45.0010 C.3   501  39Z501      0.0115
     11  C21       -5.3620   40.4090   45.3170 C.2   501  39Z501      0.0457
     12  O4        -8.2660   40.1560   44.6670 O.2   501  39Z501     -0.2096
     13  N1        -9.1720   42.0430   43.8450 N.2   501  39Z501     -0.3331
     14  O12       -6.7310   46.8910   43.0200 O.3   501  39Z501     -0.2866
     15  C26       -4.1840   40.0240   45.8230 C.3   501  39Z501      0.0692
     16  C25       -4.2480   38.7250   46.1130 C.2   501  39Z501      0.0004
     17  C24       -5.4630   38.2960   45.7900 C.2   501  39Z501      0.0939
     18  N22       -6.1460   39.3290   45.3010 N.2   501  39Z501     -0.2521
@<TRIPOS>BOND
     1     7     8   ar
     2     7     6   ar
     3    14     6    1
     4     8     3   ar
     5     6     5   ar
     6     3    13    2
     7     3     4   ar
     8     5     4   ar
     9    13     1    2
    10     4     2    2
    11     1     2    1
    12     1    12    2
    13     2     9    1
    14     9    10    1
    15     9    11    1
    16    18    11    2
    17    18    17    1
    18    11    15    1
    19    17    16    2
    20    15    16    1
