@<TRIPOS>MOLECULE
2pe1_517_A_1.pdb
 21 23 0 0 0
SMALL
GASTEIGER

@<TRIPOS>ATOM
      1  N22       -6.2660   39.9610   45.5570 N.2   501  517501     -0.2521
      2  C24       -5.6210   38.8900   46.0160 C.2   501  517501      0.0939
      3  C25       -4.3960   39.2650   46.3560 C.2   501  517501      0.0004
      4  C26       -4.2810   40.5660   46.1090 C.3   501  517501      0.0692
      5  C21       -5.4440   41.0110   45.6130 C.2   501  517501      0.0457
      6  C19       -5.7280   42.3580   45.2500 C.3   501  517501      0.0709
      7  C20       -4.5770   43.3720   45.4190 C.3   501  517501      0.0115
      8  C5        -7.0250   42.8040   44.7640 C.2   501  517501      0.0799
      9  C7        -7.3500   44.0880   44.2770 C.ar  501  517501      0.0400
     10  C8        -6.6320   45.2930   44.0860 C.ar  501  517501      0.0197
     11  C3        -8.2100   42.0570   44.6680 C.1   501  517501      0.2009
     12  O4        -8.3810   40.8940   45.0330 O.2   501  517501     -0.2096
     13  N1        -9.1860   42.8070   44.1620 N.2   501  517501     -0.3331
     14  C6        -8.7150   44.0350   43.9110 C.ar  501  517501      0.1448
     15  C11       -9.3400   45.1670   43.3640 C.ar  501  517501      0.0344
     16  C10       -8.6180   46.3540   43.1740 C.ar  501  517501      0.0193
     17  C9        -7.2540   46.4280   43.5320 C.ar  501  517501      0.0752
     18  N12       -6.5180   47.5590   43.3850 N.am  501  517501     -0.1596
     19  C14       -6.9310   48.7370   42.8500 C.2   501  517501      0.3632
     20  O15       -8.0480   48.9110   42.3490 O.2   501  517501     -0.2471
     21  N16       -6.0270   49.7080   42.8300 N.am  501  517501     -0.0676
@<TRIPOS>BOND
     1    20    19    2
     2    21    19   am
     3    19    18   am
     4    16    15   ar
     5    16    17   ar
     6    15    14   ar
     7    18    17    1
     8    17    10   ar
     9    14    13    2
    10    14     9   ar
    11    10     9   ar
    12    13    11    2
    13     9     8    2
    14    11     8    1
    15    11    12    2
    16     8     6    1
    17     6     7    1
    18     6     5    1
    19     1     5    2
    20     1     2    1
    21     5     4    1
    22     2     3    2
    23     4     3    1
