@<TRIPOS>MOLECULE
2pe2_464_A_1.pdb
 37 41 0 0 0
SMALL
GASTEIGER

@<TRIPOS>ATOM
      1  C38        1.1440   31.2170   44.3120 C.3   501  464501      0.0721
      2  C39        2.6280   31.2050   43.9080 C.3   501  464501      0.0174
      3  C40        3.2450   32.5930   44.1170 C.3   501  464501      0.0029
      4  C41        2.4450   33.6550   43.3510 C.3   501  464501      0.0174
      5  C42        0.9620   33.6150   43.7690 C.3   501  464501      0.0721
      6  N37        0.4190   32.2540   43.5250 N.3   501  464501     -0.2712
      7  C36       -1.0520   32.1800   43.7810 C.3   501  464501      0.0958
      8  C35       -1.4390   32.3450   45.2690 C.3   501  464501      0.1327
      9  N33       -1.5920   33.7690   45.6290 N.am  501  464501     -0.2002
     10  C31       -0.9780   34.3160   46.6830 C.2   501  464501      0.2648
     11  O32       -0.2190   33.6930   47.4300 O.2   501  464501     -0.2684
     12  C29       -1.2600   35.8190   46.9210 C.ar  501  464501      0.0550
     13  C30       -2.3910   36.4540   46.3500 C.ar  501  464501      0.0043
     14  C28       -0.3830   36.5580   47.7320 C.ar  501  464501      0.0046
     15  C27       -0.6180   37.9190   47.9730 C.ar  501  464501      0.0001
     16  C26       -1.7360   38.5530   47.4060 C.ar  501  464501     -0.0003
     17  C25       -2.6340   37.8320   46.5930 C.ar  501  464501     -0.0020
     18  C23       -3.7900   38.4780   46.0910 C.2   501  464501      0.0026
     19  C24       -3.9020   39.7800   45.7790 C.3   501  464501      0.0695
     20  C22       -4.9780   37.9120   45.8550 C.2   501  464501      0.0942
     21  N20       -5.8110   38.8550   45.4150 N.2   501  464501     -0.2521
     22  C19       -5.1510   40.0140   45.3690 C.2   501  464501      0.0464
     23  C18       -5.5220   41.3200   44.9860 C.3   501  464501      0.0809
     24  C4        -6.8170   41.7080   44.5450 C.2   501  464501      0.0806
     25  C6        -7.1580   42.9910   44.1410 C.ar  501  464501      0.0401
     26  C7        -6.4210   44.1840   43.9780 C.ar  501  464501      0.0197
     27  C2        -7.9630   40.9250   44.4060 C.1   501  464501      0.2010
     28  O3        -8.0640   39.7220   44.6650 O.2   501  464501     -0.2096
     29  N1        -8.9680   41.6810   43.9450 N.2   501  464501     -0.3331
     30  C5        -8.5210   42.9410   43.7690 C.ar  501  464501      0.1448
     31  C10       -9.1400   44.0890   43.2470 C.ar  501  464501      0.0344
     32  C9        -8.3990   45.2780   43.0750 C.ar  501  464501      0.0193
     33  C8        -7.0290   45.3320   43.4310 C.ar  501  464501      0.0752
     34  N11       -6.2530   46.4360   43.2340 N.am  501  464501     -0.1596
     35  C13       -6.6340   47.6230   42.6920 C.2   501  464501      0.3632
     36  O17       -7.7610   47.8370   42.2280 O.2   501  464501     -0.2471
     37  N14       -5.6870   48.5530   42.6200 N.am  501  464501     -0.0676
@<TRIPOS>BOND
     1    36    35    2
     2    37    35   am
     3    35    34   am
     4    32    31   ar
     5    32    33   ar
     6    34    33    1
     7    31    30   ar
     8     4     5    1
     9     4     3    1
    10    33    26   ar
    11     6     5    1
    12     6     7    1
    13     6     1    1
    14    30    29    2
    15    30    25   ar
    16     7     8    1
    17     2     3    1
    18     2     1    1
    19    29    27    2
    20    26    25   ar
    21    25    24    2
    22    27    24    1
    23    27    28    2
    24    24    23    1
    25    23    22    1
    26     8     9    1
    27    22    21    2
    28    22    19    1
    29    21    20    1
    30     9    10   am
    31    19    18    1
    32    20    18    2
    33    18    17    1
    34    13    17   ar
    35    13    12   ar
    36    17    16   ar
    37    10    12    1
    38    10    11    2
    39    12    14   ar
    40    16    15   ar
    41    14    15   ar
