@<TRIPOS>MOLECULE
2pe5_145_A_1.pdb
 21 22 0 0 0
SMALL
GASTEIGER

@<TRIPOS>ATOM
      1  C1       -14.4960   87.7030   31.8920 C.3   901  145901      0.3219
      2  C2       -13.7910   86.3960   32.3150 C.3   901  145901      0.2542
      3  O2       -14.7190   85.3980   32.7210 O.3   901  145901     -0.2135
      4  C3       -12.8560   86.6150   33.4880 C.3   901  145901      0.2211
      5  O3       -12.1190   85.4140   33.6850 O.3   901  145901     -0.2173
      6  C4       -11.8950   87.7660   33.2230 C.3   901  145901      0.2145
      7  O4       -10.9530   87.3620   32.2250 O.3   901  145901     -0.2176
      8  C5       -12.6550   88.9910   32.7430 C.3   901  145901      0.1846
      9  C6       -11.6280   89.9720   32.2280 C.3   901  145901      0.2142
     10  O6       -12.1420   90.5440   31.0260 O.3   901  145901     -0.2176
     11  O5       -13.5150   88.6910   31.6350 O.3   901  145901     -0.3157
     12  O1'      -15.0560   87.6580   30.5670 O.3   901  145901     -0.4488
     13  C1'      -16.3870   87.3570   30.4100 C.ar  901  145901      0.1637
     14  C2'      -16.7310   88.1520   29.3160 C.ar  901  145901      0.1766
     15  C3'      -17.0000   87.5960   28.0690 C.ar  901  145901      0.0272
     16  C4'      -16.9720   86.2200   27.8770 C.ar  901  145901      0.0019
     17  C5'      -16.6710   85.4020   28.9540 C.ar  901  145901      0.0032
     18  C6'      -16.4070   85.9740   30.1910 C.ar  901  145901      0.0387
     19  N1'      -16.7620   89.4710   29.4300 N.pl3 901  145901      0.0607
     20  O2'      -17.0790   90.2650   28.3110 O.2   901  145901     -0.1260
     21  O3'      -16.4910   90.0950   30.6690 O.2   901  145901     -0.1260
@<TRIPOS>BOND
     1    16    15   ar
     2    16    17   ar
     3    15    14   ar
     4    20    19    2
     5    17    18   ar
     6    14    19    1
     7    14    13   ar
     8    19    21    2
     9    18    13   ar
    10    13    12    1
    11    12     1    1
    12    10     9    1
    13    11     1    1
    14    11     8    1
    15     1     2    1
    16     7     6    1
    17     9     8    1
    18     2     3    1
    19     2     4    1
    20     8     6    1
    21     6     4    1
    22     4     5    1
