@<TRIPOS>MOLECULE
2pe7_PDC_A_1.pdb
 12 12 0 0 0
SMALL
GASTEIGER

@<TRIPOS>ATOM
      1  N1        23.3100   34.2400   37.3460 N.2   602  PDC602     -0.3925
      2  C2        22.0680   33.9100   37.7450 C.2   602  PDC602      0.2102
      3  C3        21.0610   34.8760   37.7410 C.2   602  PDC602      0.0347
      4  C4        21.3920   36.1590   37.3460 C.2   602  PDC602     -0.0156
      5  C5        22.6750   36.4890   36.9510 C.3   602  PDC602      0.0920
      6  C6        23.6400   35.4820   36.9470 C.2   602  PDC602      0.1927
      7  C7        21.8400   32.4850   38.1500 C.2   602  PDC602      0.4168
      8  O1        22.8570   31.7620   38.1910 O.co2 602  PDC602     -0.2377
      9  O2        20.7060   32.0570   38.4350 O.co2 602  PDC602     -0.2377
     10  C8        25.0650   35.7100   36.5400 C.2   602  PDC602      0.4130
     11  O3        25.4930   36.8440   36.2550 O.co2 602  PDC602     -0.2380
     12  O4        25.7890   34.6930   36.4990 O.co2 602  PDC602     -0.2380
@<TRIPOS>BOND
     1    11    10   ar
     2    12    10   ar
     3    10     6    1
     4     6     5    1
     5     6     1    2
     6     5     4    1
     7     1     2    2
     8     4     3    2
     9     3     2    1
    10     2     7    1
    11     7     8   ar
    12     7     9   ar
