@<TRIPOS>MOLECULE
2ped_RET_A_1.pdb
 20 20 0 0 0
SMALL
GASTEIGER

@<TRIPOS>ATOM
      1  C1        89.1290   61.5920  -17.6750 C.3   1296  RET1296     0.0183
      2  C2        89.6800   62.3220  -16.4320 C.3   1296  RET1296     0.0044
      3  C3        88.6740   62.8980  -15.4980 C.3   1296  RET1296     0.0047
      4  C4        87.6310   61.8840  -15.0870 C.3   1296  RET1296     0.0217
      5  C5        87.0160   61.1200  -16.2610 C.2   1296  RET1296    -0.0479
      6  C6        87.7320   60.8880  -17.4530 C.2   1296  RET1296    -0.0307
      7  C7        87.2220   59.9630  -18.5040 C.2   1296  RET1296    -0.0052
      8  C8        86.5110   58.8050  -18.4890 C.2   1296  RET1296    -0.0046
      9  C9        86.0700   58.0250  -19.6520 C.2   1296  RET1296    -0.0219
     10  C10       85.4970   56.7920  -19.4580 C.2   1296  RET1296    -0.0043
     11  C11       85.4810   56.0270  -18.2380 C.2   1296  RET1296    -0.0007
     12  C12       85.0180   54.7410  -18.2820 C.2   1296  RET1296    -0.0046
     13  C13       85.2030   53.7800  -17.1980 C.2   1296  RET1296    -0.0261
     14  C14       84.4390   52.6570  -17.2600 C.2   1296  RET1296    -0.0300
     15  C15       84.5830   51.5110  -16.4000 C.3   1296  RET1296     0.0304
     16  C16       89.0530   62.6550  -18.7980 C.3   1296  RET1296     0.0043
     17  C17       90.2510   60.5770  -18.0390 C.3   1296  RET1296     0.0043
     18  C18       85.5990   60.7110  -15.9250 C.3   1296  RET1296     0.0260
     19  C19       86.3010   58.6600  -21.0160 C.3   1296  RET1296     0.0310
     20  C20       86.2010   54.0610  -16.1050 C.3   1296  RET1296     0.0307
@<TRIPOS>BOND
     1    19     9    1
     2     9    10    2
     3     9     8    1
     4    10    11    1
     5    16     1    1
     6     7     8    2
     7     7     6    1
     8    12    11    2
     9    12    13    1
    10    17     1    1
    11     1     6    1
    12     1     2    1
    13     6     5    2
    14    14    13    2
    15    14    15    1
    16    13    20    1
    17     2     3    1
    18     5    18    1
    19     5     4    1
    20     3     4    1
