@<TRIPOS>MOLECULE
2peg_HEM_A_1.pdb
 43 50 0 0 0
SMALL
GASTEIGER

@<TRIPOS>ATOM
      1 FE          9.9850   -9.8020   15.6100 Fe    200  HEM200      0.0000
      2  CHA       10.5960  -11.0290   18.8350 C.2   200  HEM200      0.0000
      3  CHB       11.6530  -12.5730   14.2760 C.2   200  HEM200      0.0000
      4  CHC        9.2810   -8.6830   12.4630 C.2   200  HEM200      0.0000
      5  CHD        8.8750   -6.8500   16.9420 C.2   200  HEM200      0.0000
      6  NA        10.9180  -11.4370   16.3860 N.ar  200  HEM200      0.0000
      7  C1A       10.9900  -11.8080   17.7340 C.ar  200  HEM200      0.0000
      8  C2A       11.8220  -13.0360   17.7900 C.ar  200  HEM200      0.0000
      9  C3A       12.1580  -13.4810   16.5570 C.ar  200  HEM200      0.0000
     10  C4A       11.6220  -12.4540   15.6650 C.ar  200  HEM200      0.0000
     11  CMA       12.9480  -14.6870   16.2170 C.3   200  HEM200      0.0000
     12  CAA       12.2660  -13.7090   19.1060 C.3   200  HEM200      0.0000
     13  CBA       11.0380  -14.5980   19.3340 C.3   200  HEM200      0.0000
     14  CGA       11.1780  -15.4920   20.5760 C.2   200  HEM200      0.0000
     15  O1A       11.4940  -14.9270   21.6480 O.co2 200  HEM200      0.0000
     16  O2A       10.9700  -16.7400   20.4700 O.co2 200  HEM200      0.0000
     17  NB        10.3300  -10.4940   13.7550 N.2   200  HEM200      0.0000
     18  C1B       11.0530  -11.6540   13.3730 C.2   200  HEM200      0.0000
     19  C2B       11.1530  -11.7740   11.9320 C.2   200  HEM200      0.0000
     20  C3B       10.5230  -10.6820   11.4210 C.2   200  HEM200      0.0000
     21  C4B       10.0020   -9.8850   12.5760 C.2   200  HEM200      0.0000
     22  CMB       11.7140  -13.0010   11.1710 C.3   200  HEM200      0.0000
     23  CAB       10.2590  -10.3490   10.0320 C.2   200  HEM200      0.0000
     24  CBB       11.2470  -10.3590    9.0900 C.2   200  HEM200      0.0000
     25  NC         9.1370   -8.1560   14.9050 N.ar  200  HEM200      0.0000
     26  C1C        8.9020   -7.8510   13.5520 C.ar  200  HEM200      0.0000
     27  C2C        8.5080   -6.4680   13.3690 C.ar  200  HEM200      0.0000
     28  C3C        8.4360   -5.9050   14.6420 C.ar  200  HEM200      0.0000
     29  C4C        8.8100   -6.9810   15.5530 C.ar  200  HEM200      0.0000
     30  CMC        8.1630   -5.8860   12.0260 C.3   200  HEM200      0.0000
     31  CAC        7.9970   -4.6620   15.0690 C.2   200  HEM200      0.0000
     32  CBC        7.8600   -3.4950   14.3490 C.2   200  HEM200      0.0000
     33  ND         9.8000   -9.0760   17.4740 N.2   200  HEM200      0.0000
     34  C1D        9.3750   -7.8160   17.8160 C.2   200  HEM200      0.0000
     35  C2D        9.5320   -7.5370   19.2670 C.2   200  HEM200      0.0000
     36  C3D        9.9610   -8.6920   19.7700 C.2   200  HEM200      0.0000
     37  C4D       10.0950   -9.6970   18.6890 C.2   200  HEM200      0.0000
     38  CMD        9.2280   -6.2170   20.0000 C.3   200  HEM200      0.0000
     39  CAD       10.2810   -8.9300   21.2170 C.3   200  HEM200      0.0000
     40  CBD       11.5660   -8.1790   21.5490 C.3   200  HEM200      0.0000
     41  CGD       12.0020   -8.3340   23.0050 C.2   200  HEM200      0.0000
     42  O1D       13.1470   -8.6980   23.2310 O.co2 200  HEM200      0.0000
     43  O2D       11.2210   -8.1000   23.9150 O.co2 200  HEM200      0.0000
@<TRIPOS>BOND
     1    24    23    2
     2    23    20    1
     3    22    19    1
     4    20    19    2
     5    20    21    1
     6    19    18    1
     7    30    27    1
     8     4    21    2
     9     4    26    1
    10    21    17    1
    11    27    26   ar
    12    27    28   ar
    13    18    17    2
    14    18     3    1
    15    26    25   ar
    16    17     1    1
    17     3    10    2
    18    32    31    2
    19    28    31    1
    20    28    29   ar
    21    25    29   ar
    22    25     1    1
    23    29     5    1
    24     1     6    1
    25     1    33    1
    26    10     6   ar
    27    10     9   ar
    28    11     9    1
    29     6     7   ar
    30     9     8   ar
    31     5    34    2
    32    33    34    1
    33    33    37    2
    34     7     8   ar
    35     7     2    2
    36     8    12    1
    37    34    35    1
    38    37     2    1
    39    37    36    1
    40    12    13    1
    41    35    36    2
    42    35    38    1
    43    13    14    1
    44    36    39    1
    45    16    14   ar
    46    14    15   ar
    47    39    40    1
    48    40    41    1
    49    41    42   ar
    50    41    43   ar
