@<TRIPOS>MOLECULE
2pel_LBT_A_1.pdb
 23 24 0 0 0
SMALL
GASTEIGER

@<TRIPOS>ATOM
      1  C1        55.1300   26.5350   64.0080 C.3   240  LBT240      0.2695
      2  C2        53.7030   26.4610   63.4700 C.3   240  LBT240      0.2406
      3  C3        53.2470   25.0360   63.3010 C.3   240  LBT240      0.2198
      4  C4        54.2440   24.2390   62.4820 C.3   240  LBT240      0.2144
      5  C5        55.5760   24.3250   63.2020 C.3   240  LBT240      0.1835
      6  C6        56.6900   23.6070   62.4910 C.3   240  LBT240      0.2142
      7  O1        55.5500   27.8570   63.7700 O.3   240  LBT240     -0.3257
      8  O2        52.8210   27.2190   64.2410 O.3   240  LBT240     -0.2149
      9  O3        51.9030   24.9470   62.8290 O.3   240  LBT240     -0.2174
     10  O4        54.4770   24.6710   61.1290 O.3   240  LBT240     -0.2176
     11  O5        55.9970   25.7140   63.2670 O.3   240  LBT240     -0.3256
     12  O6        57.8820   23.8820   63.2100 O.3   240  LBT240     -0.2176
     13  C1'       58.5720   30.4330   65.2360 C.3   240  LBT240      0.3023
     14  C2'       58.9190   29.4260   64.1500 C.3   240  LBT240      0.2433
     15  C3'       57.6220   29.0430   63.4230 C.3   240  LBT240      0.2168
     16  C4'       56.6840   28.3940   64.4600 C.3   240  LBT240      0.1804
     17  C5'       56.4120   29.3570   65.5950 C.3   240  LBT240      0.1804
     18  C6'       55.6260   28.8190   66.7710 C.3   240  LBT240      0.2141
     19  O1'       57.9840   31.5280   64.4590 O.3   240  LBT240     -0.1869
     20  O2'       59.9510   30.0670   63.3020 O.3   240  LBT240     -0.2148
     21  O3'       57.8750   27.9460   62.5480 O.3   240  LBT240     -0.2175
     22  O5'       57.6480   29.8540   66.1160 O.3   240  LBT240     -0.3237
     23  O6'       56.2630   27.6530   67.3680 O.3   240  LBT240     -0.2176
@<TRIPOS>BOND
     1    10     4    1
     2     4     5    1
     3     4     3    1
     4     6     5    1
     5     6    12    1
     6    21    15    1
     7     9     3    1
     8     5    11    1
     9    11     1    1
    10     3     2    1
    11    20    14    1
    12    15    14    1
    13    15    16    1
    14     2     1    1
    15     2     8    1
    16     7     1    1
    17     7    16    1
    18    14    13    1
    19    19    13    1
    20    16    17    1
    21    13    22    1
    22    17    22    1
    23    17    18    1
    24    18    23    1
