@<TRIPOS>MOLECULE
2pel_LAT_C_1.pdb
 23 24 0 0 0
SMALL
GASTEIGER

@<TRIPOS>ATOM
      1  C1        54.0940  -12.4160   16.7500 C.3   240  LAT240      0.2695
      2  C2        53.0040  -11.9850   15.7790 C.3   240  LAT240      0.2406
      3  C3        52.1650  -10.8920   16.3940 C.3   240  LAT240      0.2198
      4  C4        51.8120  -11.1030   17.8540 C.3   240  LAT240      0.2144
      5  C5        53.0790  -11.3480   18.6250 C.3   240  LAT240      0.1835
      6  C6        53.0410  -11.4720   20.1110 C.3   240  LAT240      0.2142
      7  O1        54.4700  -13.7130   16.3450 O.3   240  LAT240     -0.3257
      8  O2        53.6840  -11.6170   14.5770 O.3   240  LAT240     -0.2149
      9  O3        51.0070  -10.5330   15.6570 O.3   240  LAT240     -0.2174
     10  O4        50.8030  -12.0870   18.1170 O.3   240  LAT240     -0.2176
     11  O5        53.7280  -12.5310   18.0890 O.3   240  LAT240     -0.3256
     12  O6        54.3670  -11.7790   20.5640 O.3   240  LAT240     -0.2176
     13  C1'       57.7010  -16.1870   17.2220 C.3   240  LAT240      0.3023
     14  C2'       56.5980  -16.2000   18.2400 C.3   240  LAT240      0.2433
     15  C3'       55.3830  -15.3220   17.9610 C.3   240  LAT240      0.2168
     16  C4'       55.6700  -14.1620   17.0490 C.3   240  LAT240      0.1804
     17  C5'       56.7750  -14.3370   16.0030 C.3   240  LAT240      0.1804
     18  C6'       57.2930  -13.0240   15.4510 C.3   240  LAT240      0.2141
     19  O1'       58.9300  -16.6290   17.9070 O.3   240  LAT240     -0.1869
     20  O2'       56.1170  -17.5730   18.5250 O.3   240  LAT240     -0.2148
     21  O3'       54.8850  -14.9310   19.2700 O.3   240  LAT240     -0.2175
     22  O5'       57.9160  -14.9410   16.6140 O.3   240  LAT240     -0.3237
     23  O6'       57.4570  -12.0970   16.5580 O.3   240  LAT240     -0.2176
@<TRIPOS>BOND
     1     8     2    1
     2    18    17    1
     3    18    23    1
     4     9     3    1
     5     2     3    1
     6     2     1    1
     7    17    22    1
     8    17    16    1
     9     7     1    1
    10     7    16    1
    11     3     4    1
    12    22    13    1
    13     1    11    1
    14    16    15    1
    15    13    19    1
    16    13    14    1
    17     4    10    1
    18     4     5    1
    19    15    14    1
    20    15    21    1
    21    11     5    1
    22    14    20    1
    23     5     6    1
    24     6    12    1
