@<TRIPOS>MOLECULE
2per_MNB_A_1.pdb
 13 13 0 0 0
SMALL
GASTEIGER

@<TRIPOS>ATOM
      1  C6         1.3540   20.8690   24.1760 C.2   401  MNB401      0.0116
      2  C1         2.0660   21.3960   23.1110 C.2   401  MNB401      0.0893
      3  C2         1.8940   22.8340   22.7890 C.3   401  MNB401      0.2167
      4  C3         1.0150   23.6290   23.5400 C.2   401  MNB401      0.0081
      5  C4         0.3410   23.0480   24.6110 C.2   401  MNB401      0.0048
      6  C5         0.5280   21.6960   24.9140 C.2   401  MNB401      0.0354
      7  S5        -0.2970   20.9460   26.2190 S.2   401  MNB401     -0.0507
      8  C10        2.9890   20.4590   22.3480 C.2   401  MNB401      0.3862
      9  O12        2.5620   19.6490   21.5190 O.co2 401  MNB401     -0.2408
     10  O11        4.2960   20.5270   22.6290 O.co2 401  MNB401     -0.2408
     11  N7         2.5760   23.4270   21.7220 N.pl3 401  MNB401      0.0411
     12  O9         2.4830   24.6240   21.6320 O.2   401  MNB401     -0.1304
     13  O8         3.2410   22.7910   20.8960 O.2   401  MNB401     -0.1304
@<TRIPOS>BOND
     1    13    11    2
     2     9     8   ar
     3    12    11    2
     4    11     3    1
     5     8    10   ar
     6     8     2    1
     7     3     2    1
     8     3     4    1
     9     2     1    2
    10     4     5    2
    11     1     6    1
    12     5     6    1
    13     6     7    2
