@<TRIPOS>MOLECULE
2pes_AZA_A_1.pdb
 11 12 0 0 0
SMALL
GASTEIGER

@<TRIPOS>ATOM
      1  N1        29.9010   27.3210   36.2730 N.2   300  AZA300     -0.2300
      2  C2        29.2080   27.0630   37.4250 C.1   300  AZA300      0.3745
      3  O2        28.0460   27.5120   37.5180 O.2   300  AZA300     -0.1738
      4  N3        29.7550   26.3680   38.4770 N.2   300  AZA300     -0.2491
      5  C4        31.0120   25.9030   38.3060 C.1   300  AZA300      0.1531
      6  C5        31.7650   26.1050   37.1550 C.2   300  AZA300      0.2717
      7  C6        31.1450   26.8680   36.0620 C.1   300  AZA300      0.2477
      8  O6        31.7750   27.0960   35.0150 O.2   300  AZA300     -0.2062
      9  N7        32.9520   25.5140   37.2980 N.2   300  AZA300     -0.1149
     10  N8        32.9330   24.9690   38.5700 N.pl3 300  AZA300     -0.0026
     11  N9        31.7220   25.2000   39.2140 N.2   300  AZA300     -0.0705
@<TRIPOS>BOND
     1     8     7    2
     2     7     1    2
     3     7     6    1
     4     1     2    2
     5     6     9    2
     6     6     5    1
     7     9    10    1
     8     2     3    2
     9     2     4    2
    10     5     4    2
    11     5    11    2
    12    10    11    1
