@<TRIPOS>MOLECULE
2pes_PDC_A_1.pdb
 12 12 0 0 0
SMALL
GASTEIGER

@<TRIPOS>ATOM
      1  N1         9.7450   54.9110   27.7660 N.2   302  PDC302     -0.3925
      2  C2        10.4430   53.8100   27.4160 C.2   302  PDC302      0.2102
      3  C3        11.0320   53.0140   28.3960 C.2   302  PDC302      0.0347
      4  C4        10.8830   53.3730   29.7250 C.2   302  PDC302     -0.0156
      5  C5        10.1520   54.5140   30.0600 C.3   302  PDC302      0.0920
      6  C6         9.5840   55.2880   29.0480 C.2   302  PDC302      0.1927
      7  C7        10.5720   53.4830   25.9640 C.2   302  PDC302      0.4168
      8  O1         9.9630   54.2100   25.1380 O.co2 302  PDC302     -0.2377
      9  O2        11.2860   52.5180   25.6110 O.co2 302  PDC302     -0.2377
     10  C8         8.7810   56.5300   29.3310 C.2   302  PDC302      0.4130
     11  O3         8.1410   57.0690   28.3970 O.co2 302  PDC302     -0.2380
     12  O4         8.7470   56.9990   30.4890 O.co2 302  PDC302     -0.2380
@<TRIPOS>BOND
     1     8     7   ar
     2     9     7   ar
     3     7     2    1
     4     2     1    2
     5     2     3    1
     6     1     6    2
     7     3     4    2
     8    11    10   ar
     9     6    10    1
    10     6     5    1
    11    10    12   ar
    12     4     5    1
