@<TRIPOS>MOLECULE
2pev_FID_A_1.pdb
 20 22 0 0 0
SMALL
GASTEIGER

@<TRIPOS>ATOM
      1  C2I       16.0510   -6.1750   19.3560 C.1   321  FID321      0.3075
      2  N4        15.4520   -5.8350   18.2630 N.2   321  FID321     -0.2446
      3  C5        15.6810   -6.1130   17.0510 C.1   321  FID321      0.2166
      4  C7I       16.8980   -7.0240   17.3480 C.3   321  FID321      0.2260
      5  C12       16.4630   -8.4360   16.9900 C.ar  321  FID321      0.0506
      6  C13       15.6580   -9.1810   17.8390 C.ar  321  FID321      0.0313
      7  C14       15.2280  -10.4210   17.4500 C.ar  321  FID321      0.1401
      8  F17       14.4730  -11.1310   18.2950 F     321  FID321     -0.2042
      9  C15       15.5620  -10.9850   16.2540 C.ar  321  FID321      0.0327
     10  C16       16.3850  -10.2390   15.4150 C.ar  321  FID321      0.0390
     11  C11       16.8170   -8.9550   15.7630 C.ar  321  FID321      0.1380
     12  O10       17.5650   -8.3330   14.8400 O.3   321  FID321     -0.4699
     13  C9        17.9310   -6.9680   15.0490 C.3   321  FID321      0.2477
     14  C19       19.1850   -6.6370   14.2640 C.2   321  FID321      0.3010
     15  N21       19.7110   -7.6510   13.6070 N.am  321  FID321     -0.0846
     16  O20       19.5620   -5.4570   14.2050 O.2   321  FID321     -0.2677
     17  C8I       18.0680   -6.6500   16.5170 C.3   321  FID321      0.0980
     18  N1I       17.0640   -6.8400   18.7830 N.2   321  FID321     -0.1582
     19  O6I       15.1130   -5.8970   16.0190 O.2   321  FID321     -0.2111
     20  O3I       15.9010   -5.9710   20.5440 O.2   321  FID321     -0.1881
@<TRIPOS>BOND
     1    15    14   am
     2    16    14    2
     3    14    13    1
     4    12    13    1
     5    12    11    1
     6    13    17    1
     7    10    11   ar
     8    10     9   ar
     9    11     5   ar
    10    19     3    2
    11     9     7   ar
    12    17     4    1
    13     5     4    1
    14     5     6   ar
    15     3     4    1
    16     3     2    2
    17     4    18    1
    18     7     6   ar
    19     7     8    1
    20     2     1    2
    21    18     1    2
    22     1    20    2
