@<TRIPOS>MOLECULE
2pev_NDP_A_1.pdb
 48 52 0 0 0
SMALL
GASTEIGER

@<TRIPOS>ATOM
      1  PA        22.6370   -4.7750   26.8930 P.3   318  NDP318      0.2189
      2  O1A       21.5460   -4.4340   27.8280 O.3   318  NDP318     -0.4371
      3  O2A       23.5510   -3.7290   26.4010 O.2   318  NDP318     -0.5170
      4  O5B       23.5640   -5.9490   27.4250 O.3   318  NDP318     -0.3112
      5  C5B       22.9690   -7.1740   27.9250 C.3   318  NDP318      0.1813
      6  C4B       24.1160   -8.0930   28.2980 C.3   318  NDP318      0.1820
      7  O4B       24.8840   -7.4690   29.3720 O.3   318  NDP318     -0.3136
      8  C3B       23.7210   -9.4730   28.7820 C.3   318  NDP318      0.2157
      9  O3B       24.6780  -10.3980   28.2650 O.3   318  NDP318     -0.2175
     10  C2B       23.8240   -9.3530   30.2830 C.3   318  NDP318      0.2314
     11  O2B       24.1470  -10.5960   30.9200 O.3   318  NDP318     -0.2630
     12  C1B       24.9830   -8.3940   30.4650 C.3   318  NDP318      0.3158
     13  N9A       24.9670   -7.6300   31.6940 N.pl3 318  NDP318     -0.1439
     14  C8A       23.8810   -6.9820   32.2160 C.3   318  NDP318      0.3377
     15  N7A       24.1580   -6.3380   33.3610 N.2   318  NDP318     -0.2095
     16  C5A       25.4820   -6.5790   33.5370 C.2   318  NDP318      0.2526
     17  C6A       26.3340   -6.1790   34.5830 C.2   318  NDP318      0.4393
     18  N6A       25.9390   -5.4550   35.6110 N.pl3 318  NDP318      0.2180
     19  N1A       27.6120   -6.6430   34.5080 N.2   318  NDP318      0.0021
     20  C2A       27.9900   -7.3830   33.4740 C.3   318  NDP318      0.5254
     21  N3A       27.2790   -7.7770   32.4170 N.2   318  NDP318     -0.0055
     22  C4A       26.0060   -7.3760   32.5180 C.2   318  NDP318      0.3518
     23  O3        22.0190   -5.5020   25.5760 O.3   318  NDP318     -0.2703
     24  PN        20.6530   -5.6030   24.7860 P.3   318  NDP318      0.2189
     25  O1N       21.0000   -5.6200   23.3530 O.2   318  NDP318     -0.5170
     26  O2N       19.8480   -6.7270   25.3470 O.3   318  NDP318     -0.4371
     27  O5D       19.9100   -4.2050   25.0150 O.3   318  NDP318     -0.3112
     28  C5D       19.0190   -3.9550   26.1320 C.3   318  NDP318      0.1813
     29  C4D       17.5830   -4.0750   25.7180 C.3   318  NDP318      0.1799
     30  O4D       17.2590   -3.0550   24.7360 O.3   318  NDP318     -0.3327
     31  C3D       17.1630   -5.3600   25.0190 C.3   318  NDP318      0.2158
     32  O3D       17.0970   -6.4730   25.8770 O.3   318  NDP318     -0.2175
     33  C2D       15.8330   -4.9410   24.4320 C.3   318  NDP318      0.2309
     34  O2D       14.8780   -4.9000   25.4780 O.3   318  NDP318     -0.2158
     35  C1D       16.1950   -3.5220   23.9250 C.3   318  NDP318      0.2263
     36  N1N       16.6460   -3.4890   22.5100 N.pl3 318  NDP318     -0.2787
     37  C2N       15.8200   -2.9610   21.5710 C.3   318  NDP318      0.1244
     38  C3N       16.1630   -2.9350   20.2470 C.2   318  NDP318      0.0544
     39  C7N       15.3020   -2.2760   19.2030 C.2   318  NDP318      0.2818
     40  O7N       15.4950   -2.5000   18.0230 O.2   318  NDP318     -0.2670
     41  N7N       14.3500   -1.4490   19.6500 N.am  318  NDP318     -0.0839
     42  C4N       17.3910   -3.4940   19.8480 C.2   318  NDP318      0.0033
     43  C5N       18.2460   -3.9830   20.8210 C.2   318  NDP318      0.0157
     44  C6N       17.8940   -3.9540   22.1390 C.2   318  NDP318      0.0633
     45  P2B       23.0980  -11.4930   31.7430 P.3   318  NDP318      0.5328
     46  O1X       21.7380  -11.2610   31.1600 O.2   318  NDP318     -0.2224
     47  O2X       23.6610  -12.8850   31.5300 O.3   318  NDP318     -0.1145
     48  O3X       23.2040  -11.0420   33.1750 O.3   318  NDP318     -0.1145
@<TRIPOS>BOND
     1    40    39    2
     2    39    41   am
     3    39    38    1
     4    42    38    2
     5    42    43    1
     6    38    37    1
     7    43    44    2
     8    37    36    1
     9    44    36    1
    10    36    35    1
    11    25    24    2
    12    35    33    1
    13    35    30    1
    14    33    31    1
    15    33    34    1
    16    30    29    1
    17    24    27    1
    18    24    26    1
    19    24    23    1
    20    27    28    1
    21    31    29    1
    22    31    32    1
    23    23     1    1
    24    29    28    1
    25     3     1    2
    26     1     4    1
    27     1     2    1
    28     4     5    1
    29     5     6    1
    30     9     8    1
    31     6     8    1
    32     6     7    1
    33     8    10    1
    34     7    12    1
    35    10    12    1
    36    10    11    1
    37    12    13    1
    38    11    45    1
    39    46    45    2
    40    47    45    1
    41    13    14    1
    42    13    22    1
    43    45    48    1
    44    14    15    1
    45    21    22    2
    46    21    20    1
    47    22    16    1
    48    15    16    2
    49    20    19    1
    50    16    17    1
    51    19    17    2
    52    17    18    1
