@<TRIPOS>MOLECULE
2pev_LDT_A_1.pdb
 24 25 0 0 0
SMALL
GASTEIGER

@<TRIPOS>ATOM
      1  C2        15.6250   -9.4650   18.1250 C.ar  320  LDT320      0.0666
      2  C3        15.9130  -10.3520   15.4410 C.ar  320  LDT320      0.0071
      3  C4        16.4860   -8.8000   17.2270 C.ar  320  LDT320      0.1433
      4  C5        14.9240  -10.5730   17.6330 C.ar  320  LDT320      0.1432
      5  C6        15.0410  -11.0220   16.3080 C.ar  320  LDT320      0.0299
      6  C7        16.6520   -9.2560   15.9000 C.ar  320  LDT320      0.0556
      7 BR8        14.8910   -3.8090    9.6420 Br    320  LDT320     -0.0489
      8  F9        14.1160  -11.1810   18.4500 F     320  LDT320     -0.2041
      9  C11       17.5700   -8.5280   14.9820 C.2   320  LDT320      0.1039
     10  C13       18.2970   -6.4210   14.1120 C.3   320  LDT320      0.1414
     11  F14       19.2200   -4.4440   12.4160 F     320  LDT320     -0.2044
     12  O15       17.3510   -7.8040   17.6450 O.3   320  LDT320     -0.4636
     13  S16       18.5020   -9.4340   13.8810 S.2   320  LDT320     -0.0331
     14  N17       17.5110   -7.2160   15.0280 N.am  320  LDT320     -0.2257
     15  C20       16.8840   -6.8760   18.6290 C.3   320  LDT320      0.3186
     16  C24       17.4400   -5.8390   13.0010 C.ar  320  LDT320      0.0269
     17  C25       15.9530   -4.6600   10.9270 C.ar  320  LDT320      0.0368
     18  C26       16.1160   -6.2600   12.7300 C.ar  320  LDT320      0.0002
     19  C27       17.9750   -4.8550   12.1490 C.ar  320  LDT320      0.1383
     20  C28       17.2370   -4.2620   11.1500 C.ar  320  LDT320      0.0361
     21  C29       15.3710   -5.6680   11.7130 C.ar  320  LDT320      0.0066
     22  C32       15.7830   -6.1230   17.8260 C.2   320  LDT320      0.4084
     23  O33       15.0080   -5.5700   18.8510 O.co2 320  LDT320     -0.2415
     24  O34       15.4960   -5.9230   16.8390 O.co2 320  LDT320     -0.2415
@<TRIPOS>BOND
     1     7    17    1
     2    17    20   ar
     3    17    21   ar
     4    20    19   ar
     5    21    18   ar
     6    19    11    1
     7    19    16   ar
     8    18    16   ar
     9    16    10    1
    10    13     9    2
    11    10    14    1
    12     9    14    1
    13     9     6    1
    14     2     6   ar
    15     2     5   ar
    16     6     3   ar
    17     5     4   ar
    18    24    22   ar
    19     3    12    1
    20     3     1   ar
    21     4     1   ar
    22     4     8    1
    23    12    15    1
    24    22    15    1
    25    22    23   ar
