@<TRIPOS>MOLECULE
2pey_ADX_A_1.pdb
 27 29 0 0 0
SMALL
GASTEIGER

@<TRIPOS>ATOM
      1  SB        20.3020   -4.3740   16.0170 S.3   400  ADX400      0.0049
      2  O1B       19.7140   -3.0630   15.7090 O.2   400  ADX400     -0.3449
      3  O2B       20.8320   -4.9710   14.7940 O.2   400  ADX400     -0.3449
      4  O3B       21.3330   -4.1630   17.0600 O.3   400  ADX400     -0.2679
      5  PA        17.6920   -5.5790   16.0040 P.3   400  ADX400      0.2383
      6  O1A       16.7310   -4.5890   16.6150 O.3   400  ADX400     -0.4361
      7  O2A       17.8220   -5.7750   14.5190 O.2   400  ADX400     -0.5161
      8  O3A       19.1450   -5.3240   16.6500 O.3   400  ADX400     -0.1945
      9  O5'       17.3240   -6.9830   16.6700 O.3   400  ADX400     -0.3102
     10  C5'       17.0400   -6.9990   18.0730 C.3   400  ADX400      0.1814
     11  C4'       16.1000   -8.1440   18.3830 C.3   400  ADX400      0.1821
     12  O4'       16.7810   -9.3620   18.0260 O.3   400  ADX400     -0.3135
     13  C3'       15.7970   -8.2260   19.8880 C.3   400  ADX400      0.2184
     14  O3'       14.4560   -7.8540   20.1910 O.3   400  ADX400     -0.2174
     15  C2'       16.0200   -9.6790   20.1070 C.3   400  ADX400      0.2570
     16  O2'       15.2530  -10.4140   20.8910 O.3   400  ADX400     -0.2130
     17  C1'       16.9910  -10.0420   19.2910 C.3   400  ADX400      0.3186
     18  N9        18.2060  -10.6310   19.4700 N.pl3 400  ADX400     -0.1439
     19  C8        18.6110  -11.8230   19.0420 C.3   400  ADX400      0.3377
     20  N7        19.9530  -11.8370   19.3330 N.2   400  ADX400     -0.2095
     21  C5        20.3160  -10.6330   19.8710 C.2   400  ADX400      0.2526
     22  C6        21.4930  -10.0690   20.3550 C.2   400  ADX400      0.4393
     23  N6        22.6410  -10.7780   20.3430 N.pl3 400  ADX400      0.2180
     24  N1        21.5020   -8.7850   20.8370 N.2   400  ADX400      0.0021
     25  C2        20.3950   -8.0360   20.8620 C.3   400  ADX400      0.5254
     26  N3        19.2350   -8.5600   20.4090 N.2   400  ADX400     -0.0055
     27  C4        19.1860   -9.8380   19.9110 C.2   400  ADX400      0.3518
@<TRIPOS>BOND
     1     7     5    2
     2     3     1    2
     3     2     1    2
     4     5     6    1
     5     5     8    1
     6     5     9    1
     7     1     8    1
     8     1     4    1
     9     9    10    1
    10    12    11    1
    11    12    17    1
    12    10    11    1
    13    11    13    1
    14    19    20    1
    15    19    18    1
    16    17    18    1
    17    17    15    1
    18    20    21    2
    19    18    27    1
    20    21    27    1
    21    21    22    1
    22    13    15    1
    23    13    14    1
    24    27    26    2
    25    15    16    1
    26    23    22    1
    27    22    24    2
    28    26    25    1
    29    24    25    1
