@<TRIPOS>MOLECULE
2pey_DAT_A_1.pdb
 26 28 0 0 0
SMALL
GASTEIGER

@<TRIPOS>ATOM
      1  PB        11.2560   -3.6490   22.3130 P.3   300  DAT300      0.5373
      2  O1B       12.1720   -4.8480   22.4920 O.3   300  DAT300     -0.1143
      3  O2B       12.0000   -2.3520   22.5800 O.3   300  DAT300     -0.1143
      4  O3B       10.4720   -3.6370   21.0190 O.2   300  DAT300     -0.2221
      5  PA         8.6000   -4.1550   23.4090 P.3   300  DAT300      0.2231
      6  O1A        7.8110   -2.9640   22.9460 O.3   300  DAT300     -0.4370
      7  O2A        8.3530   -5.4890   22.7510 O.2   300  DAT300     -0.5169
      8  O3A       10.1760   -3.8070   23.5010 O.3   300  DAT300     -0.2261
      9  O5'        8.3010   -4.4430   24.9570 O.3   300  DAT300     -0.3111
     10  C5'        8.0350   -3.4010   25.8910 C.3   300  DAT300      0.1813
     11  C4'        7.2790   -3.9590   27.0960 C.3   300  DAT300      0.1795
     12  O4'        7.1470   -2.9570   28.1000 O.3   300  DAT300     -0.3155
     13  C3'        5.8810   -4.3850   26.7460 C.3   300  DAT300      0.1883
     14  O3'        5.6610   -5.5810   27.4820 O.3   300  DAT300     -0.2202
     15  C2'        4.9600   -3.3020   27.2860 C.3   300  DAT300      0.1151
     16  C1'        5.7930   -2.6210   28.3680 C.3   300  DAT300      0.2873
     17  N9         5.6230   -1.1360   28.4590 N.pl3 300  DAT300     -0.1460
     18  C8         5.2550   -0.5220   29.5930 C.3   300  DAT300      0.3377
     19  N7         5.1800    0.7990   29.3860 N.2   300  DAT300     -0.2095
     20  C5         5.5270    1.0290   28.0920 C.2   300  DAT300      0.2526
     21  C6         5.6250    2.1880   27.3190 C.2   300  DAT300      0.4393
     22  N6         5.3560    3.4010   27.8500 N.pl3 300  DAT300      0.2180
     23  N1         5.9960    2.0960   26.0180 N.2   300  DAT300      0.0021
     24  C2         6.2680    0.8940   25.4740 C.3   300  DAT300      0.5254
     25  N3         6.1680   -0.2330   26.1920 N.2   300  DAT300     -0.0055
     26  C4         5.8030   -0.1950   27.5070 C.2   300  DAT300      0.3518
@<TRIPOS>BOND
     1     4     1    2
     2     1     2    1
     3     1     3    1
     4     1     8    1
     5     7     5    2
     6     6     5    1
     7     5     8    1
     8     5     9    1
     9     9    10    1
    10    24    23    1
    11    24    25    1
    12    10    11    1
    13    23    21    2
    14    25    26    2
    15    13    11    1
    16    13    15    1
    17    13    14    1
    18    11    12    1
    19    15    16    1
    20    21    22    1
    21    21    20    1
    22    26    20    1
    23    26    17    1
    24    20    19    2
    25    12    16    1
    26    16    17    1
    27    17    18    1
    28    19    18    1
