@<TRIPOS>MOLECULE
2pez_DAT_A_1.pdb
 26 28 0 0 0
SMALL
GASTEIGER

@<TRIPOS>ATOM
      1  PB        11.5220   -3.5850   22.4330 P.3   500  DAT500      0.5373
      2  O1B       12.4160   -4.7670   22.6350 O.3   500  DAT500     -0.1143
      3  O2B       12.2260   -2.2560   22.7050 O.3   500  DAT500     -0.1143
      4  O3B       10.7770   -3.6110   21.1080 O.2   500  DAT500     -0.2221
      5  PA         8.8610   -4.0750   23.5630 P.3   500  DAT500      0.2231
      6  O1A        8.0430   -2.9530   23.0610 O.3   500  DAT500     -0.4370
      7  O2A        8.7180   -5.4290   22.8920 O.2   500  DAT500     -0.5169
      8  O3A       10.3940   -3.6640   23.6170 O.3   500  DAT500     -0.2261
      9  O5'        8.5620   -4.3010   25.1360 O.3   500  DAT500     -0.3111
     10  C5'        8.3930   -3.2510   26.0790 C.3   500  DAT500      0.1813
     11  C4'        7.6190   -3.7730   27.2900 C.3   500  DAT500      0.1795
     12  O4'        7.4760   -2.6390   28.1640 O.3   500  DAT500     -0.3155
     13  C3'        6.2240   -4.1700   26.8750 C.3   500  DAT500      0.1883
     14  O3'        5.8160   -5.2600   27.7140 O.3   500  DAT500     -0.2202
     15  C2'        5.3590   -2.9690   27.2040 C.3   500  DAT500      0.1151
     16  C1'        6.0970   -2.3470   28.3620 C.3   500  DAT500      0.2873
     17  N9         5.9640   -0.8910   28.5030 N.pl3 500  DAT500     -0.1460
     18  C8         5.6270   -0.2370   29.6660 C.3   500  DAT500      0.3377
     19  N7         5.6130    1.1100   29.4710 N.2   500  DAT500     -0.2095
     20  C5         5.9460    1.3530   28.1860 C.2   500  DAT500      0.2526
     21  C6         6.0970    2.5290   27.3320 C.2   500  DAT500      0.4393
     22  N6         5.8990    3.7540   27.8340 N.pl3 500  DAT500      0.2180
     23  N1         6.4150    2.2840   26.0520 N.2   500  DAT500      0.0021
     24  C2         6.5680    1.0800   25.5910 C.3   500  DAT500      0.5254
     25  N3         6.5180   -0.0390   26.2580 N.2   500  DAT500     -0.0055
     26  C4         6.1700    0.0620   27.5960 C.2   500  DAT500      0.3518
@<TRIPOS>BOND
     1     4     1    2
     2     1     2    1
     3     1     3    1
     4     1     8    1
     5     7     5    2
     6     6     5    1
     7     5     8    1
     8     5     9    1
     9     9    10    1
    10    24    23    1
    11    24    25    1
    12    23    21    2
    13    10    11    1
    14    25    26    2
    15    13    15    1
    16    13    11    1
    17    13    14    1
    18    15    16    1
    19    11    12    1
    20    21    22    1
    21    21    20    1
    22    26    20    1
    23    26    17    1
    24    12    16    1
    25    20    19    2
    26    16    17    1
    27    17    18    1
    28    19    18    1
