@<TRIPOS>MOLECULE
2pez_GGZ_A_1.pdb
 30 33 0 0 0
SMALL
GASTEIGER

@<TRIPOS>ATOM
      1  C2        20.5830   -8.0820   20.9100 C.3   401  GGZ401      0.5254
      2  C4        19.3770   -9.7890   19.9170 C.2   401  GGZ401      0.3518
      3  C5        20.5510  -10.6150   19.8720 C.2   401  GGZ401      0.2526
      4  C6        21.7240  -10.0650   20.3920 C.2   401  GGZ401      0.4393
      5  C8        19.0510  -11.4900   19.1350 C.3   401  GGZ401      0.3377
      6  N1        21.7130   -8.8150   20.9130 N.2   401  GGZ401      0.0021
      7  O3P       13.9790   -8.3870   22.3630 O.3   401  GGZ401     -0.4373
      8  P1        14.0580   -8.8850   20.9350 P.3   401  GGZ401      0.2143
      9  O2'       15.2860   -9.9290   20.8340 O.3   401  GGZ401     -0.3070
     10  O1P       12.8680   -9.4310   20.2010 O.2   401  GGZ401     -0.5172
     11  O3'       14.7230   -7.7730   19.9950 O.3   401  GGZ401     -0.3112
     12  C3'       16.0950   -8.0130   19.7410 C.3   401  GGZ401      0.1855
     13  C4'       16.3800   -8.0930   18.2610 C.3   401  GGZ401      0.1792
     14  C5'       17.4020   -6.9930   18.0520 C.3   401  GGZ401      0.1813
     15  O5'       17.6660   -6.9690   16.6660 O.3   401  GGZ401     -0.3102
     16  P2        17.9840   -5.5600   15.9730 P.3   401  GGZ401      0.2383
     17  O4P       18.0190   -5.7130   14.4820 O.2   401  GGZ401     -0.5161
     18  O5P       17.1080   -4.4920   16.5900 O.3   401  GGZ401     -0.4361
     19  O6P       19.4770   -5.3630   16.5150 O.3   401  GGZ401     -0.1945
     20  S2        20.5510   -4.3160   15.8900 S.3   401  GGZ401      0.0049
     21  OS3       19.8170   -3.1030   15.5660 O.2   401  GGZ401     -0.3449
     22  OS2       21.5480   -4.1570   16.9820 O.3   401  GGZ401     -0.2679
     23  OS1       21.1050   -4.9960   14.7170 O.2   401  GGZ401     -0.3449
     24  C2'       16.4580   -9.3820   20.2840 C.3   401  GGZ401      0.2241
     25  C1'       16.9590  -10.2080   19.1220 C.3   401  GGZ401      0.3156
     26  O4'       16.9420   -9.3850   17.9560 O.3   401  GGZ401     -0.3137
     27  N9        18.3660  -10.4880   19.4000 N.pl3 401  GGZ401     -0.1439
     28  N7        20.2560  -11.8400   19.3030 N.2   401  GGZ401     -0.2095
     29  N6        22.9000  -10.7300   20.4150 N.pl3 401  GGZ401      0.2180
     30  N3        19.4090   -8.5360   20.4350 N.2   401  GGZ401     -0.0055
@<TRIPOS>BOND
     1    17    16    2
     2    23    20    2
     3    21    20    2
     4    20    19    1
     5    20    22    1
     6    16    19    1
     7    16    18    1
     8    16    15    1
     9    15    14    1
    10    26    13    1
    11    26    25    1
    12    14    13    1
    13    13    12    1
    14    25    27    1
    15    25    24    1
    16     5    28    1
    17     5    27    1
    18    28     3    2
    19    27     2    1
    20    12    11    1
    21    12    24    1
    22     3     2    1
    23     3     4    1
    24     2    30    2
    25    11     8    1
    26    10     8    2
    27    24     9    1
    28     4    29    1
    29     4     6    2
    30    30     1    1
    31     9     8    1
    32     1     6    1
    33     8     7    1
