@<TRIPOS>MOLECULE
2pf8_LDT_A_1.pdb
 24 25 0 0 0
SMALL
GASTEIGER

@<TRIPOS>ATOM
      1  C2        15.7180   -9.4710   18.1920 C.ar  320  LDT320      0.0666
      2  C3        16.0370  -10.3640   15.5660 C.ar  320  LDT320      0.0071
      3  C4        16.5800   -8.7800   17.3170 C.ar  320  LDT320      0.1433
      4  C5        15.0110  -10.5750   17.6930 C.ar  320  LDT320      0.1432
      5  C6        15.1420  -11.0460   16.3870 C.ar  320  LDT320      0.0299
      6  C7        16.7410   -9.2280   15.9940 C.ar  320  LDT320      0.0556
      7 BR8        14.9390   -3.7490    9.7370 Br    320  LDT320     -0.0489
      8  F9        14.1880  -11.1790   18.5410 F     320  LDT320     -0.2041
      9  C11       17.6120   -8.4990   15.0390 C.2   320  LDT320      0.1039
     10  C13       18.3250   -6.3510   14.2210 C.3   320  LDT320      0.1414
     11  F14       19.2730   -4.3720   12.5220 F     320  LDT320     -0.2044
     12  O15       17.4050   -7.7880   17.7580 O.3   320  LDT320     -0.4636
     13  S16       18.5640   -9.3830   13.9460 S.2   320  LDT320     -0.0331
     14  N17       17.5540   -7.2040   15.0910 N.am  320  LDT320     -0.2257
     15  C20       16.9260   -6.8800   18.7480 C.3   320  LDT320      0.3186
     16  C24       17.4850   -5.7760   13.0810 C.ar  320  LDT320      0.0269
     17  C25       16.0140   -4.6060   11.0160 C.ar  320  LDT320      0.0368
     18  C26       16.1940   -6.2060   12.8140 C.ar  320  LDT320      0.0002
     19  C27       18.0280   -4.8030   12.2680 C.ar  320  LDT320      0.1383
     20  C28       17.3070   -4.1990   11.2500 C.ar  320  LDT320      0.0361
     21  C29       15.4220   -5.6290   11.8030 C.ar  320  LDT320      0.0066
     22  C32       15.7210   -6.0950   18.1430 C.2   320  LDT320      0.4084
     23  O33       15.0660   -5.5350   19.0570 O.co2 320  LDT320     -0.2415
     24  O34       15.6020   -5.8960   17.0090 O.co2 320  LDT320     -0.2415
@<TRIPOS>BOND
     1     7    17    1
     2    17    20   ar
     3    17    21   ar
     4    20    19   ar
     5    21    18   ar
     6    19    11    1
     7    19    16   ar
     8    18    16   ar
     9    16    10    1
    10    13     9    2
    11    10    14    1
    12     9    14    1
    13     9     6    1
    14     2     6   ar
    15     2     5   ar
    16     6     3   ar
    17     5     4   ar
    18    24    22   ar
    19     3    12    1
    20     3     1   ar
    21     4     1   ar
    22     4     8    1
    23    12    15    1
    24    22    15    1
    25    22    23   ar
