@<TRIPOS>MOLECULE
2pf8_NDP_A_1.pdb
 48 52 0 0 0
SMALL
GASTEIGER

@<TRIPOS>ATOM
      1  PA        22.7240   -4.7480   26.9740 P.3   318  NDP318      0.2189
      2  O1A       21.6410   -4.4190   27.9130 O.3   318  NDP318     -0.4371
      3  O2A       23.6360   -3.6990   26.4790 O.2   318  NDP318     -0.5170
      4  O5B       23.6570   -5.9230   27.5000 O.3   318  NDP318     -0.3112
      5  C5B       23.0720   -7.1470   27.9970 C.3   318  NDP318      0.1813
      6  C4B       24.2120   -8.0610   28.3610 C.3   318  NDP318      0.1820
      7  O4B       24.9860   -7.4590   29.4240 O.3   318  NDP318     -0.3136
      8  C3B       23.8360   -9.4430   28.8350 C.3   318  NDP318      0.2157
      9  O3B       24.8050  -10.3660   28.3330 O.3   318  NDP318     -0.2175
     10  C2B       23.9510   -9.3350   30.3540 C.3   318  NDP318      0.2314
     11  O2B       24.2790  -10.5910   30.9540 O.3   318  NDP318     -0.2630
     12  C1B       25.1020   -8.3660   30.5160 C.3   318  NDP318      0.3158
     13  N9A       25.0750   -7.6020   31.7520 N.pl3 318  NDP318     -0.1439
     14  C8A       23.9730   -6.9790   32.2880 C.3   318  NDP318      0.3377
     15  N7A       24.2400   -6.3250   33.3990 N.2   318  NDP318     -0.2095
     16  C5A       25.5780   -6.5380   33.5960 C.2   318  NDP318      0.2526
     17  C6A       26.4370   -6.1320   34.6250 C.2   318  NDP318      0.4393
     18  N6A       26.0250   -5.4000   35.6620 N.pl3 318  NDP318      0.2180
     19  N1A       27.7090   -6.5560   34.5330 N.2   318  NDP318      0.0021
     20  C2A       28.1210   -7.2860   33.4960 C.3   318  NDP318      0.5254
     21  N3A       27.3970   -7.7200   32.4610 N.2   318  NDP318     -0.0055
     22  C4A       26.1170   -7.3280   32.5750 C.2   318  NDP318      0.3518
     23  O3        22.1110   -5.4660   25.6570 O.3   318  NDP318     -0.2703
     24  PN        20.7330   -5.5780   24.8680 P.3   318  NDP318      0.2189
     25  O1N       21.0810   -5.5900   23.4270 O.2   318  NDP318     -0.5170
     26  O2N       19.9390   -6.7120   25.4330 O.3   318  NDP318     -0.4371
     27  O5D       19.9860   -4.1830   25.1100 O.3   318  NDP318     -0.3112
     28  C5D       19.1140   -3.9430   26.2350 C.3   318  NDP318      0.1813
     29  C4D       17.6610   -4.0620   25.8210 C.3   318  NDP318      0.1799
     30  O4D       17.3300   -3.0450   24.8480 O.3   318  NDP318     -0.3327
     31  C3D       17.2450   -5.3510   25.1280 C.3   318  NDP318      0.2158
     32  O3D       17.1940   -6.4610   25.9830 O.3   318  NDP318     -0.2175
     33  C2D       15.9050   -4.9380   24.5340 C.3   318  NDP318      0.2309
     34  O2D       14.9610   -4.9030   25.5910 O.3   318  NDP318     -0.2158
     35  C1D       16.2610   -3.5170   24.0390 C.3   318  NDP318      0.2263
     36  N1N       16.7110   -3.4830   22.6180 N.pl3 318  NDP318     -0.2787
     37  C2N       15.8660   -2.9630   21.6930 C.3   318  NDP318      0.1244
     38  C3N       16.2070   -2.9370   20.3560 C.2   318  NDP318      0.0544
     39  C7N       15.3410   -2.2650   19.3300 C.2   318  NDP318      0.2818
     40  O7N       15.5370   -2.4940   18.1320 O.2   318  NDP318     -0.2670
     41  N7N       14.3990   -1.4340   19.7860 N.am  318  NDP318     -0.0839
     42  C4N       17.4290   -3.4910   19.9510 C.2   318  NDP318      0.0033
     43  C5N       18.2950   -3.9820   20.9210 C.2   318  NDP318      0.0157
     44  C6N       17.9430   -3.9530   22.2430 C.2   318  NDP318      0.0633
     45  P2B       23.2320  -11.4830   31.8040 P.3   318  NDP318      0.5328
     46  O1X       21.8610  -11.2620   31.2330 O.2   318  NDP318     -0.2224
     47  O2X       23.8070  -12.8660   31.5840 O.3   318  NDP318     -0.1145
     48  O3X       23.3420  -11.0290   33.2460 O.3   318  NDP318     -0.1145
@<TRIPOS>BOND
     1    40    39    2
     2    39    41   am
     3    39    38    1
     4    42    38    2
     5    42    43    1
     6    38    37    1
     7    43    44    2
     8    37    36    1
     9    44    36    1
    10    36    35    1
    11    25    24    2
    12    35    33    1
    13    35    30    1
    14    33    31    1
    15    33    34    1
    16    30    29    1
    17    24    27    1
    18    24    26    1
    19    24    23    1
    20    27    28    1
    21    31    29    1
    22    31    32    1
    23    23     1    1
    24    29    28    1
    25     3     1    2
    26     1     4    1
    27     1     2    1
    28     4     5    1
    29     5     6    1
    30     9     8    1
    31     6     8    1
    32     6     7    1
    33     8    10    1
    34     7    12    1
    35    10    12    1
    36    10    11    1
    37    12    13    1
    38    11    45    1
    39    46    45    2
    40    47    45    1
    41    13    14    1
    42    13    22    1
    43    45    48    1
    44    14    15    1
    45    21    22    2
    46    21    20    1
    47    22    16    1
    48    15    16    2
    49    20    19    1
    50    16    17    1
    51    19    17    2
    52    17    18    1
