@<TRIPOS>MOLECULE
2pf8_FID_A_1.pdb
 20 22 0 0 0
SMALL
GASTEIGER

@<TRIPOS>ATOM
      1  C2I       16.1290   -6.1810   19.4620 C.1   321  FID321      0.3075
      2  N4        15.6340   -5.7460   18.3680 N.2   321  FID321     -0.2446
      3  C5        15.7370   -6.0960   17.1630 C.1   321  FID321      0.2166
      4  C7I       16.9440   -6.9890   17.4480 C.3   321  FID321      0.2260
      5  C12       16.5260   -8.3980   17.1060 C.ar  321  FID321      0.0506
      6  C13       15.7380   -9.1630   17.9590 C.ar  321  FID321      0.0313
      7  C14       15.2820  -10.3730   17.5430 C.ar  321  FID321      0.1401
      8  F17       14.5340  -11.1300   18.4220 F     321  FID321     -0.2042
      9  C15       15.5900  -10.9290   16.3430 C.ar  321  FID321      0.0327
     10  C16       16.3630  -10.1590   15.5200 C.ar  321  FID321      0.0390
     11  C11       16.8400   -8.8990   15.8580 C.ar  321  FID321      0.1380
     12  O10       17.6450   -8.3220   14.9290 O.3   321  FID321     -0.4699
     13  C9        17.9280   -6.9320   15.1340 C.3   321  FID321      0.2477
     14  C19       19.1350   -6.5850   14.2920 C.2   321  FID321      0.3010
     15  N21       19.7270   -7.5800   13.6730 N.am  321  FID321     -0.0846
     16  O20       19.5760   -5.4410   14.2620 O.2   321  FID321     -0.2677
     17  C8I       18.1080   -6.6380   16.6110 C.3   321  FID321      0.0980
     18  N1I       17.1680   -6.8040   18.8680 N.2   321  FID321     -0.1582
     19  O6I       15.1620   -5.8540   16.1650 O.2   321  FID321     -0.2111
     20  O3I       15.9920   -5.9610   20.6560 O.2   321  FID321     -0.1881
@<TRIPOS>BOND
     1    15    14   am
     2    16    14    2
     3    14    13    1
     4    12    13    1
     5    12    11    1
     6    13    17    1
     7    10    11   ar
     8    10     9   ar
     9    11     5   ar
    10    19     3    2
    11     9     7   ar
    12    17     4    1
    13     5     4    1
    14     5     6   ar
    15     3     4    1
    16     3     2    2
    17     4    18    1
    18     7     6   ar
    19     7     8    1
    20     2     1    2
    21    18     1    2
    22     1    20    2
