@<TRIPOS>MOLECULE
2pfe_AES_A_1.pdb
 12 12 0 0 0
SMALL
GASTEIGER

@<TRIPOS>ATOM
      1  C3        28.2300   21.7010   55.7630 C.ar  1002  AES1002    -0.0029
      2  C2        29.1080   21.5170   54.6900 C.ar  1002  AES1002     0.0178
      3  C1        29.7790   20.3010   54.5570 C.ar  1002  AES1002     0.1034
      4  S         30.9330   19.9700   53.2640 S.3   1002  AES1002     0.0045
      5  O1S       30.4960   18.8850   52.3270 O.3   1002  AES1002    -0.0734
      6  O2S       32.2150   19.2990   54.3120 O.3   1002  AES1002    -0.0734
      7  C6        29.5970   19.2940   55.5050 C.ar  1002  AES1002     0.0178
      8  C5        28.7200   19.4760   56.5680 C.ar  1002  AES1002    -0.0029
      9  C4        28.0370   20.6790   56.7100 C.ar  1002  AES1002    -0.0206
     10  C7        27.0960   20.8050   57.9010 C.3   1002  AES1002     0.0468
     11  C8        26.0210   21.8700   57.6990 C.3   1002  AES1002     0.1140
     12  N8        24.8190   21.5290   58.4360 N.3   1002  AES1002    -0.1310
@<TRIPOS>BOND
     1     5     4    1
     2     4     6    1
     3     4     3    1
     4     3     2   ar
     5     3     7   ar
     6     2     1   ar
     7     7     8   ar
     8     1     9   ar
     9     8     9   ar
    10     9    10    1
    11    11    10    1
    12    11    12    1
