@<TRIPOS>MOLECULE
2pfg_NAP_A_1.pdb
 48 52 0 0 0
SMALL
GASTEIGER

@<TRIPOS>ATOM
      1  PA        -3.1340    8.7820   30.0760 P.3   501  NAP501      0.2189
      2  O1A       -3.9810    7.9030   29.1990 O.2   501  NAP501     -0.5170
      3  O2A       -3.7530   10.0230   30.6730 O.3   501  NAP501     -0.4371
      4  O5B       -2.5020    7.8500   31.2200 O.3   501  NAP501     -0.3112
      5  C5B       -1.7690    8.4640   32.2940 C.3   501  NAP501      0.1813
      6  C4B       -1.5770    7.3560   33.3200 C.3   501  NAP501      0.1820
      7  O4B       -0.8140    7.9460   34.4140 O.3   501  NAP501     -0.3136
      8  C3B       -2.8880    6.8640   33.9490 C.3   501  NAP501      0.2157
      9  O3B       -2.6890    5.5010   34.3770 O.3   501  NAP501     -0.2175
     10  C2B       -3.0030    7.7810   35.1750 C.3   501  NAP501      0.2314
     11  O2B       -3.8320    7.2750   36.2260 O.3   501  NAP501     -0.2630
     12  C1B       -1.5200    7.7750   35.6380 C.3   501  NAP501      0.3158
     13  N9A       -1.2270    8.8320   36.6050 N.pl3 501  NAP501     -0.1439
     14  C8A       -1.4900   10.1470   36.5410 C.3   501  NAP501      0.3377
     15  N7A       -1.1440   10.7260   37.7270 N.2   501  NAP501     -0.2095
     16  C5A       -0.6940    9.7090   38.5520 C.2   501  NAP501      0.2526
     17  C6A       -0.2610    9.6320   39.9320 C.2   501  NAP501      0.4393
     18  N6A       -0.2760   10.7340   40.7470 N.pl3 501  NAP501      0.2180
     19  N1A        0.1590    8.3880   40.3640 N.2   501  NAP501      0.0021
     20  C2A        0.0870    7.2690   39.6170 C.3   501  NAP501      0.5254
     21  N3A       -0.3980    7.2650   38.3600 N.2   501  NAP501     -0.0055
     22  C4A       -0.7720    8.5070   37.8040 C.2   501  NAP501      0.3518
     23  O3        -1.8030    9.3140   29.3280 O.3   501  NAP501     -0.2703
     24  PN        -0.7580    8.5870   28.4040 P.3   501  NAP501      0.2189
     25  O1N       -0.8180    9.2950   27.0680 O.2   501  NAP501     -0.5170
     26  O2N       -0.8780    7.0970   28.4280 O.3   501  NAP501     -0.4371
     27  O5D        0.5920    9.0630   29.1380 O.3   501  NAP501     -0.3112
     28  C5D        1.5970    8.0890   29.5140 C.3   501  NAP501      0.1813
     29  C4D        2.9390    8.7890   29.5850 C.3   501  NAP501      0.1799
     30  O4D        3.2340    9.1330   28.1680 O.3   501  NAP501     -0.3327
     31  C3D        2.8920   10.1460   30.3560 C.3   501  NAP501      0.2158
     32  O3D        4.1290   10.3280   31.0140 O.3   501  NAP501     -0.2175
     33  C2D        2.8260   11.1920   29.2080 C.3   501  NAP501      0.2309
     34  O2D        3.4550   12.4680   29.5380 O.3   501  NAP501     -0.2158
     35  C1D        3.6720   10.5100   28.1080 C.3   501  NAP501      0.2263
     36  N1N        3.4120   10.9750   26.7350 N.pl3 501  NAP501     -0.2787
     37  C2N        2.1570   10.8340   26.1390 C.3   501  NAP501      0.1244
     38  C3N        2.0040   11.2120   24.8030 C.2   501  NAP501      0.0544
     39  C7N        0.7010   11.0460   24.0790 C.2   501  NAP501      0.2818
     40  O7N       -0.2760   10.3650   24.6070 O.2   501  NAP501     -0.2670
     41  N7N        0.6560   11.5540   22.9020 N.am  501  NAP501     -0.0839
     42  C4N        3.1270   11.7580   24.0660 C.2   501  NAP501      0.0033
     43  C5N        4.3740   11.8980   24.7070 C.2   501  NAP501      0.0157
     44  C6N        4.5210   11.5070   26.0880 C.2   501  NAP501      0.0633
     45  P2B       -5.4040    7.6990   36.3870 P.3   501  NAP501      0.5328
     46  O1X       -5.5260    9.1740   35.9900 O.3   501  NAP501     -0.1145
     47  O2X       -5.6920    7.4230   37.8790 O.3   501  NAP501     -0.1145
     48  O3X       -6.1940    6.7770   35.4440 O.2   501  NAP501     -0.2224
@<TRIPOS>BOND
     1    41    39   am
     2    42    43    1
     3    42    38    2
     4    39    40    2
     5    39    38    1
     6    43    44    2
     7    38    37    1
     8    44    36    1
     9    37    36    1
    10    36    35    1
    11    25    24    2
    12    35    30    1
    13    35    33    1
    14    30    29    1
    15    24    26    1
    16    24    27    1
    17    24    23    1
    18    27    28    1
    19     2     1    2
    20    33    34    1
    21    33    31    1
    22    23     1    1
    23    28    29    1
    24    29    31    1
    25     1     3    1
    26     1     4    1
    27    31    32    1
    28     4     5    1
    29     5     6    1
    30     6     8    1
    31     6     7    1
    32     8     9    1
    33     8    10    1
    34     7    12    1
    35    10    12    1
    36    10    11    1
    37    48    45    2
    38    12    13    1
    39    46    45    1
    40    11    45    1
    41    45    47    1
    42    14    13    1
    43    14    15    1
    44    13    22    1
    45    15    16    2
    46    22    21    2
    47    22    16    1
    48    21    20    1
    49    16    17    1
    50    20    19    1
    51    17    19    2
    52    17    18    1
