@<TRIPOS>MOLECULE
2pfg_DDD_A_1.pdb
 22 23 0 0 0
SMALL
GASTEIGER

@<TRIPOS>ATOM
      1  O31        3.8130   14.7770   25.2530 O.co2 504  DDD504     -0.2442
      2  C3         2.9610   15.0820   24.3860 C.2   504  DDD504      0.3790
      3  O32        3.2760   15.2180   23.1860 O.co2 504  DDD504     -0.2442
      4  CA4        1.4800   15.2910   24.8710 C.3   504  DDD504      0.1643
      5  CB2        0.4020   14.8230   23.8720 C.3   504  DDD504      0.0372
      6  CG2        0.3290   15.7010   22.6030 C.3   504  DDD504      0.0873
      7  CD1       -0.5320   16.9770   23.0100 C.2   504  DDD504      0.2270
      8  OE1       -1.7160   17.1000   22.5880 O.2   504  DDD504     -0.2748
      9  N2         0.0650   17.9130   23.7610 N.am  504  DDD504     -0.2576
     10  CA3        1.4510   17.7000   24.2540 C.3   504  DDD504      0.1723
     11  N3         1.3760   16.6560   25.2990 N.3   504  DDD504     -0.2379
     12  CD2        0.6170   16.8720   26.5700 C.3   504  DDD504      0.1330
     13  SD        -1.2110   17.1270   26.2430 S.3   504  DDD504     -0.1203
     14  CB1       -1.1500   18.8560   25.8170 C.3   504  DDD504      0.0882
     15  CA2       -0.8020   19.0500   24.2450 C.3   504  DDD504      0.1654
     16  C2        -0.1730   20.4720   23.9460 C.2   504  DDD504      0.2609
     17  O2         1.0540   20.5910   23.7480 O.2   504  DDD504     -0.2715
     18  N1        -1.0660   21.4870   23.8030 N.am  504  DDD504     -0.1917
     19  CA1       -0.8490   22.9390   23.5640 C.3   504  DDD504      0.2285
     20  C1        -0.2260   23.4690   22.2860 C.2   504  DDD504      0.3865
     21  O11        0.6950   24.3140   22.5040 O.co2 504  DDD504     -0.2437
     22  O12       -0.7300   23.1160   21.1750 O.co2 504  DDD504     -0.2437
@<TRIPOS>BOND
     1    22    20   ar
     2    20    21   ar
     3    20    19    1
     4     8     7    2
     5     6     7    1
     6     6     5    1
     7     7     9   am
     8     3     2   ar
     9    19    18    1
    10    17    16    2
    11     9    15    1
    12     9    10    1
    13    18    16   am
    14     5     4    1
    15    16    15    1
    16    15    14    1
    17    10    11    1
    18     2     4    1
    19     2     1   ar
    20     4    11    1
    21    11    12    1
    22    14    13    1
    23    13    12    1
