@<TRIPOS>MOLECULE
2pfh_LDT_A_1.pdb
 24 25 0 0 0
SMALL
GASTEIGER

@<TRIPOS>ATOM
      1  C2        -6.3750    9.2060   15.6750 C.ar  320  LDT320      0.0666
      2  C3        -9.0920   10.1230   15.9030 C.ar  320  LDT320      0.0071
      3  C4        -7.3080    8.5450   16.5100 C.ar  320  LDT320      0.1433
      4  C5        -6.8570   10.3070   14.9880 C.ar  320  LDT320      0.1432
      5  C6        -8.2020   10.7830   15.0520 C.ar  320  LDT320      0.0299
      6  C7        -8.6710    8.9980   16.5940 C.ar  320  LDT320      0.0556
      7 BR8       -15.1130    3.5350   14.6400 Br    320  LDT320     -0.0489
      8  F9        -5.9290   10.9170   14.2050 F     320  LDT320     -0.2041
      9  C11       -9.7000    8.2790   17.4450 C.2   320  LDT320      0.1039
     10  C13      -10.5880    6.1230   18.0680 C.3   320  LDT320      0.1414
     11  F14      -12.3930    4.1620   18.9160 F     320  LDT320     -0.2044
     12  O15       -6.8780    7.5410   17.2860 O.3   320  LDT320     -0.4636
     13  S16      -10.8550    9.1660   18.2850 S.2   320  LDT320     -0.0331
     14  N17       -9.6410    6.9680   17.3680 N.am  320  LDT320     -0.2257
     15  C20       -5.8150    6.6550   16.8520 C.3   320  LDT320      0.3186
     16  C24      -11.7160    5.5610   17.2300 C.ar  320  LDT320      0.0269
     17  C25      -13.8090    4.3950   15.7120 C.ar  320  LDT320      0.0368
     18  C26      -11.9540    5.9840   15.9540 C.ar  320  LDT320      0.0002
     19  C27      -12.6040    4.5850   17.6910 C.ar  320  LDT320      0.1383
     20  C28      -13.6370    3.9890   16.9790 C.ar  320  LDT320      0.0361
     21  C29      -12.9860    5.4090   15.2010 C.ar  320  LDT320      0.0066
     22  C32       -6.3300    5.7930   15.7280 C.2   320  LDT320      0.4084
     23  O33       -5.3790    5.2690   15.0760 O.co2 320  LDT320     -0.2415
     24  O34       -7.6030    5.6600   15.5580 O.co2 320  LDT320     -0.2415
@<TRIPOS>BOND
     1     8     4    1
     2     7    17    1
     3     4     5   ar
     4     4     1   ar
     5     5     2   ar
     6    23    22   ar
     7    21    17   ar
     8    21    18   ar
     9    24    22   ar
    10     1     3   ar
    11    17    20   ar
    12    22    15    1
    13     2     6   ar
    14    18    16   ar
    15     3     6   ar
    16     3    12    1
    17     6     9    1
    18    15    12    1
    19    20    19   ar
    20    16    19   ar
    21    16    10    1
    22    14     9    1
    23    14    10    1
    24     9    13    2
    25    19    11    1
