@<TRIPOS>MOLECULE
2pfh_FID_A_1.pdb
 20 22 0 0 0
SMALL
GASTEIGER

@<TRIPOS>ATOM
      1  C2I       -5.1210    6.0110   16.0570 C.1   321  FID321      0.3075
      2  N4        -6.1560    5.4390   15.2880 N.2   321  FID321     -0.2446
      3  C5        -7.4120    5.8340   15.6170 C.1   321  FID321      0.2166
      4  C7I       -7.1870    6.7670   16.8390 C.3   321  FID321      0.2260
      5  C12       -7.5000    8.2010   16.3880 C.ar  321  FID321      0.0506
      6  C13       -6.6010    8.9320   15.6360 C.ar  321  FID321      0.0313
      7  C14       -6.9920   10.1630   15.1800 C.ar  321  FID321      0.1401
      8  F17       -6.1310   10.9030   14.4460 F     321  FID321     -0.2042
      9  C15       -8.2230   10.6950   15.4570 C.ar  321  FID321      0.0327
     10  C16       -9.1020    9.9680   16.2080 C.ar  321  FID321      0.0390
     11  C11       -8.7710    8.6930   16.6480 C.ar  321  FID321      0.1380
     12  O10       -9.7640    8.1390   17.3860 O.3   321  FID321     -0.4699
     13  C9        -9.6140    6.7730   17.7650 C.3   321  FID321      0.2477
     14  C19      -10.4770    6.3900   18.9550 C.2   321  FID321      0.3010
     15  N21      -11.2600    7.3700   19.3940 N.am  321  FID321     -0.0846
     16  O20      -10.5730    5.2060   19.2850 O.2   321  FID321     -0.2677
     17  C8I       -8.1450    6.5480   17.9320 C.3   321  FID321      0.0980
     18  N1I       -5.7630    6.5760   17.0710 N.2   321  FID321     -0.1582
     19  O6I       -8.5130    5.6680   15.1080 O.2   321  FID321     -0.2111
     20  O3I       -3.8800    5.7240   16.0230 O.2   321  FID321     -0.1881
@<TRIPOS>BOND
     1     8     7    1
     2    19     3    2
     3     7     9   ar
     4     7     6   ar
     5     2     3    2
     6     2     1    2
     7     9    10   ar
     8     3     4    1
     9     6     5   ar
    10    20     1    2
    11     1    18    2
    12    10    11   ar
    13     5    11   ar
    14     5     4    1
    15    11    12    1
    16     4    18    1
    17     4    17    1
    18    12    13    1
    19    13    17    1
    20    13    14    1
    21    14    16    2
    22    14    15   am
