@<TRIPOS>MOLECULE
2pfh_NDP_A_1.pdb
 48 52 0 0 0
SMALL
GASTEIGER

@<TRIPOS>ATOM
      1  PA         2.5390    4.5040   22.7310 P.3   318  NDP318      0.2189
      2  O1A        3.5500    4.1700   21.7300 O.2   318  NDP318     -0.5170
      3  O2A        1.9740    3.4630   23.5940 O.3   318  NDP318     -0.4371
      4  O5B        3.0550    5.6880   23.6410 O.3   318  NDP318     -0.3112
      5  C5B        3.6030    6.8970   23.0910 C.3   318  NDP318      0.1813
      6  C4B        3.9500    7.8120   24.2010 C.3   318  NDP318      0.1820
      7  O4B        5.0420    7.2030   24.9830 O.3   318  NDP318     -0.3136
      8  C3B        4.4600    9.1990   23.8430 C.3   318  NDP318      0.2157
      9  O3B        3.9020   10.1300   24.7320 O.3   318  NDP318     -0.2175
     10  C2B        6.0230    9.0920   24.0080 C.3   318  NDP318      0.2314
     11  O2B        6.6680   10.3290   24.3410 O.3   318  NDP318     -0.2630
     12  C1B        6.1630    8.1110   25.1280 C.3   318  NDP318      0.3158
     13  N9A        7.4390    7.3590   25.1540 N.pl3 318  NDP318     -0.1439
     14  C8A        8.0440    6.7110   24.1260 C.3   318  NDP318      0.3377
     15  N7A        9.1950    6.0670   24.4310 N.2   318  NDP318     -0.2095
     16  C5A        9.3450    6.3190   25.7260 C.2   318  NDP318      0.2526
     17  C6A       10.3820    5.9170   26.5780 C.2   318  NDP318      0.4393
     18  N6A       11.4880    5.1900   26.2200 N.pl3 318  NDP318      0.2180
     19  N1A       10.2490    6.3610   27.8240 N.2   318  NDP318      0.0021
     20  C2A        9.1570    7.1000   28.1450 C.3   318  NDP318      0.5254
     21  N3A        8.1180    7.5260   27.4180 N.2   318  NDP318     -0.0055
     22  C4A        8.2810    7.0950   26.1840 C.2   318  NDP318      0.3518
     23  O3         1.2000    5.2300   22.0840 O.3   318  NDP318     -0.2703
     24  PN         0.4310    5.3280   20.7370 P.3   318  NDP318      0.2189
     25  O1N       -1.0730    5.3420   21.0140 O.3   318  NDP318     -0.4371
     26  O2N        1.0490    6.4510   19.9890 O.2   318  NDP318     -0.5170
     27  O5D        0.7050    3.9240   20.0350 O.3   318  NDP318     -0.3112
     28  C5D        1.8980    3.6860   19.2340 C.3   318  NDP318      0.1813
     29  C4D        1.5250    3.8010   17.8290 C.3   318  NDP318      0.1799
     30  O4D        0.5140    2.7910   17.4790 O.3   318  NDP318     -0.3327
     31  C3D        0.8250    5.0860   17.4000 C.3   318  NDP318      0.2158
     32  O3D        1.7210    6.2000   17.3780 O.3   318  NDP318     -0.2175
     33  C2D        0.2570    4.6750   16.0900 C.3   318  NDP318      0.2309
     34  O2D        1.3860    4.6370   15.2210 O.3   318  NDP318     -0.2158
     35  C1D       -0.2800    3.2620   16.4220 C.3   318  NDP318      0.2263
     36  N1N       -1.7720    3.2360   16.8000 N.pl3 318  NDP318     -0.2787
     37  C2N       -2.7160    2.7100   15.9550 C.3   318  NDP318      0.1244
     38  C3N       -4.1050    2.7070   16.2300 C.2   318  NDP318      0.0544
     39  C7N       -5.1450    2.0400   15.3650 C.2   318  NDP318      0.2818
     40  O7N       -6.3970    2.2670   15.4940 O.2   318  NDP318     -0.2670
     41  N7N       -4.6420    1.1990   14.4730 N.am  318  NDP318     -0.0839
     42  C4N       -4.5730    3.2830   17.3830 C.2   318  NDP318      0.0033
     43  C5N       -3.5980    3.7680   18.2430 C.2   318  NDP318      0.0157
     44  C6N       -2.2170    3.7180   17.9710 C.2   318  NDP318      0.0633
     45  P2B        7.5670   11.2260   23.3670 P.3   318  NDP318      0.5328
     46  O1X        7.0160   10.9880   22.0240 O.2   318  NDP318     -0.2224
     47  O2X        7.3030   12.6000   23.9080 O.3   318  NDP318     -0.1145
     48  O3X        9.0650   10.7830   23.5290 O.3   318  NDP318     -0.1145
@<TRIPOS>BOND
     1    41    39   am
     2    34    33    1
     3    39    40    2
     4    39    38    1
     5    37    38    1
     6    37    36    1
     7    33    35    1
     8    33    31    1
     9    38    42    2
    10    35    36    1
    11    35    30    1
    12    36    44    1
    13    32    31    1
    14    42    43    1
    15    31    29    1
    16    30    29    1
    17    29    28    1
    18    44    43    2
    19    28    27    1
    20    26    24    2
    21    27    24    1
    22    24    25    1
    23    24    23    1
    24     2     1    2
    25    46    45    2
    26    23     1    1
    27     1     3    1
    28     1     4    1
    29     5     4    1
    30     5     6    1
    31    45    48    1
    32    45    47    1
    33    45    11    1
    34     8    10    1
    35     8     6    1
    36     8     9    1
    37    10    11    1
    38    10    12    1
    39    14    15    1
    40    14    13    1
    41     6     7    1
    42    15    16    2
    43     7    12    1
    44    12    13    1
    45    13    22    1
    46    16    22    1
    47    16    17    1
    48    22    21    2
    49    18    17    1
    50    17    19    2
    51    21    20    1
    52    19    20    1
