@<TRIPOS>MOLECULE
2pfn_DUP_A_1.pdb
 28 29 0 0 0
SMALL
GASTEIGER

@<TRIPOS>ATOM
      1  O4        10.3230   18.8180   16.7860 O.2   952  DUP952     -0.2085
      2  C4        10.6850   19.9730   16.9750 C.1   952  DUP952      0.2182
      3  C5        11.6510   20.6930   16.2010 C.2   952  DUP952      0.1242
      4  C6        12.0260   21.9150   16.5890 C.2   952  DUP952      0.0928
      5  N3        10.2120   20.6440   18.0710 N.2   952  DUP952     -0.2452
      6  C2        10.5820   21.8890   18.5020 C.1   952  DUP952      0.2844
      7  O2        10.1120   22.3890   19.5080 O.2   952  DUP952     -0.1918
      8  N1        11.5270   22.5180   17.7200 N.am  952  DUP952     -0.1790
      9  C1'       11.9960   23.8390   18.1540 C.3   952  DUP952      0.2090
     10  C2'       13.2280   23.7170   19.0580 C.3   952  DUP952      0.0874
     11  C3'       14.3600   23.8580   18.0470 C.3   952  DUP952      0.1857
     12  O3'       15.5760   24.2790   18.6710 O.3   952  DUP952     -0.2203
     13  O4'       12.3900   24.5740   17.0050 O.3   952  DUP952     -0.3339
     14  C4'       13.7980   24.9160   17.1080 C.3   952  DUP952      0.1774
     15  C5'       14.3920   24.9600   15.7190 C.3   952  DUP952      0.1848
     16  O5'       14.3370   23.6680   15.1180 O.3   952  DUP952     -0.2775
     17  PA        15.5460   23.1320   14.2320 P.3   952  DUP952      0.4623
     18  O1A       15.0080   21.9560   13.5070 O.3   952  DUP952     -0.1255
     19  O2A       16.0190   24.3070   13.4520 O.2   952  DUP952     -0.2354
     20  N3A       16.6780   22.6610   15.3160 N.3   952  DUP952     -0.0179
     21  PB        17.9810   23.4140   15.9600 P.3   952  DUP952      0.4700
     22  O1B       17.9750   23.2470   17.4300 O.3   952  DUP952     -0.1252
     23  O2B       18.1240   24.7780   15.3940 O.2   952  DUP952     -0.2350
     24  O3B       19.1850   22.6190   15.4950 O.3   952  DUP952     -0.1901
     25  PG        19.8550   22.6380   14.1410 P.3   952  DUP952      0.5397
     26  O2G       21.1440   23.3610   14.2580 O.3   952  DUP952     -0.1143
     27  O1G       19.8680   21.2260   13.6600 O.3   952  DUP952     -0.1143
     28  O3G       19.0170   23.4130   13.1920 O.2   952  DUP952     -0.2220
@<TRIPOS>BOND
     1    28    25    2
     2    19    17    2
     3    18    17    1
     4    27    25    1
     5    25    26    1
     6    25    24    1
     7    17    16    1
     8    17    20    1
     9    16    15    1
    10    20    21    1
    11    23    21    2
    12    24    21    1
    13    15    14    1
    14    21    22    1
    15     3     4    2
    16     3     2    1
    17     4     8    1
    18     1     2    2
    19     2     5    2
    20    13    14    1
    21    13     9    1
    22    14    11    1
    23     8     9    1
    24     8     6   am
    25    11    12    1
    26    11    10    1
    27     5     6    2
    28     9    10    1
    29     6     7    2
