@<TRIPOS>MOLECULE
2pfo_DUP_A_1.pdb
 28 29 0 0 0
SMALL
GASTEIGER

@<TRIPOS>ATOM
      1  O4        10.8300   18.7120   16.6950 O.2   952  DUP952     -0.2085
      2  C4        11.1610   19.8800   16.9040 C.1   952  DUP952      0.2182
      3  C5        12.1690   20.6080   16.1920 C.2   952  DUP952      0.1242
      4  C6        12.5340   21.8190   16.6180 C.2   952  DUP952      0.0928
      5  N3        10.6290   20.5400   17.9870 N.2   952  DUP952     -0.2452
      6  C2        10.9870   21.7770   18.4590 C.1   952  DUP952      0.2844
      7  O2        10.4620   22.2690   19.4490 O.2   952  DUP952     -0.1918
      8  N1        11.9840   22.4100   17.7340 N.am  952  DUP952     -0.1790
      9  C1'       12.4540   23.7200   18.2100 C.3   952  DUP952      0.2090
     10  C2'       13.6900   23.5740   19.1040 C.3   952  DUP952      0.0874
     11  C3'       14.8140   23.7450   18.0910 C.3   952  DUP952      0.1857
     12  O3'       16.0350   24.1480   18.7040 O.3   952  DUP952     -0.2203
     13  O4'       12.8450   24.4940   17.0850 O.3   952  DUP952     -0.3339
     14  C4'       14.2550   24.8360   17.1950 C.3   952  DUP952      0.1774
     15  C5'       14.8660   24.9290   15.8160 C.3   952  DUP952      0.1848
     16  O5'       14.8330   23.6530   15.1740 O.3   952  DUP952     -0.2775
     17  PA        16.0380   23.1640   14.2480 P.3   952  DUP952      0.4623
     18  O1A       15.4710   22.0430   13.4520 O.2   952  DUP952     -0.2354
     19  O2A       16.5330   24.3760   13.5300 O.3   952  DUP952     -0.1255
     20  N3A       17.1690   22.5990   15.2890 N.3   952  DUP952     -0.0179
     21  PB        18.4420   23.2810   16.0600 P.3   952  DUP952      0.4700
     22  O1B       18.3760   22.9750   17.5100 O.3   952  DUP952     -0.1252
     23  O2B       18.6060   24.6930   15.6360 O.2   952  DUP952     -0.2350
     24  O3B       19.6770   22.5460   15.5860 O.3   952  DUP952     -0.1901
     25  PG        20.3110   22.5580   14.2110 P.3   952  DUP952      0.5397
     26  O2G       21.6460   23.1790   14.3110 O.3   952  DUP952     -0.1143
     27  O1G       20.2080   21.1600   13.7080 O.3   952  DUP952     -0.1143
     28  O3G       19.5040   23.4160   13.3090 O.2   952  DUP952     -0.2220
@<TRIPOS>BOND
     1    28    25    2
     2    18    17    2
     3    19    17    1
     4    27    25    1
     5    25    26    1
     6    25    24    1
     7    17    16    1
     8    17    20    1
     9    16    15    1
    10    20    21    1
    11    24    21    1
    12    23    21    2
    13    15    14    1
    14    21    22    1
    15     3     4    2
    16     3     2    1
    17     4     8    1
    18     1     2    2
    19     2     5    2
    20    13    14    1
    21    13     9    1
    22    14    11    1
    23     8     9    1
    24     8     6   am
    25     5     6    2
    26    11    12    1
    27    11    10    1
    28     9    10    1
    29     6     7    2
