@<TRIPOS>MOLECULE
2pfp_DCP_A_1.pdb
 28 29 0 0 0
SMALL
GASTEIGER

@<TRIPOS>ATOM
      1  N1        11.8850   22.7040   17.6590 N.am  755  DCP755     -0.1802
      2  C2        10.9350   22.0170   18.4290 C.1   755  DCP755      0.2756
      3  N3        10.5730   20.7650   18.0660 N.2   755  DCP755     -0.3024
      4  C4        11.1300   20.1890   16.9970 C.2   755  DCP755      0.2346
      5  C5        12.0870   20.8710   16.1830 C.2   755  DCP755      0.0687
      6  C6        12.4280   22.1170   16.5460 C.2   755  DCP755      0.0835
      7  O2        10.4510   22.5710   19.4320 O.2   755  DCP755     -0.1925
      8  N4        10.7700   18.9350   16.7100 N.pl3 755  DCP755     -0.0921
      9  C1'       12.3000   24.0530   18.0830 C.3   755  DCP755      0.2090
     10  C2'       13.4980   24.0100   19.0380 C.3   755  DCP755      0.0874
     11  C3'       14.6610   24.2260   18.0760 C.3   755  DCP755      0.1857
     12  C4'       14.0750   25.2410   17.1050 C.3   755  DCP755      0.1773
     13  O4'       12.7020   24.7930   16.9360 O.3   755  DCP755     -0.3339
     14  O3'       15.8120   24.7300   18.7520 O.3   755  DCP755     -0.2203
     15  C5'       14.7420   25.3380   15.7510 C.3   755  DCP755      0.1812
     16  O5'       14.8000   24.0550   15.1340 O.3   755  DCP755     -0.3112
     17  PA        16.1580   23.5150   14.4920 P.3   755  DCP755      0.2189
     18  O1A       15.7730   22.2730   13.7850 O.3   755  DCP755     -0.4371
     19  O2A       16.7860   24.6250   13.7280 O.2   755  DCP755     -0.5170
     20  O3A       17.0230   23.1130   15.6660 O.3   755  DCP755     -0.2700
     21  PB        18.3490   23.6640   16.1450 P.3   755  DCP755      0.2277
     22  O1B       18.3390   23.4600   17.6120 O.3   755  DCP755     -0.4368
     23  O2B       18.5770   25.0260   15.6070 O.2   755  DCP755     -0.5168
     24  O3B       19.4030   22.7240   15.6230 O.3   755  DCP755     -0.2258
     25  PG        20.2260   22.8580   14.3670 P.3   755  DCP755      0.5373
     26  O1G       20.3590   21.4700   13.8360 O.3   755  DCP755     -0.1143
     27  O2G       19.6910   23.9270   13.4820 O.2   755  DCP755     -0.2221
     28  O3G       21.5930   23.2790   14.7770 O.3   755  DCP755     -0.1143
@<TRIPOS>BOND
     1    27    25    2
     2    19    17    2
     3    18    17    1
     4    26    25    1
     5    25    28    1
     6    25    24    1
     7    17    16    1
     8    17    20    1
     9    16    15    1
    10    23    21    2
    11    24    21    1
    12    20    21    1
    13    15    12    1
    14    21    22    1
    15     5     6    2
    16     5     4    1
    17     6     1    1
    18     8     4    1
    19    13    12    1
    20    13     9    1
    21     4     3    2
    22    12    11    1
    23     1     9    1
    24     1     2   am
    25     3     2    2
    26    11    14    1
    27    11    10    1
    28     9    10    1
    29     2     7    2
