@<TRIPOS>MOLECULE
2pfq_DCP_A_1.pdb
 28 29 0 0 0
SMALL
GASTEIGER

@<TRIPOS>ATOM
      1  N1        11.9660   23.0750   17.4810 N.am  1438  DCP1438    -0.1802
      2  C2        10.9570   22.4200   18.2100 C.1   1438  DCP1438     0.2756
      3  N3        10.5840   21.1730   17.8440 N.2   1438  DCP1438    -0.3024
      4  C4        11.1680   20.5780   16.8030 C.2   1438  DCP1438     0.2346
      5  C5        12.1760   21.2270   16.0310 C.2   1438  DCP1438     0.0687
      6  C6        12.5410   22.4620   16.4010 C.2   1438  DCP1438     0.0835
      7  O2        10.4270   22.9990   19.1740 O.2   1438  DCP1438    -0.1925
      8  N4        10.7820   19.3370   16.5000 N.pl3 1438  DCP1438    -0.0921
      9  C1'       12.4020   24.4190   17.9150 C.3   1438  DCP1438     0.2090
     10  C2'       13.5840   24.3900   18.8880 C.3   1438  DCP1438     0.0874
     11  C3'       14.7650   24.5530   17.9510 C.3   1438  DCP1438     0.1857
     12  C4'       14.2200   25.5370   16.9250 C.3   1438  DCP1438     0.1773
     13  O4'       12.8350   25.1510   16.7620 O.3   1438  DCP1438    -0.3339
     14  O3'       15.9230   25.0750   18.6130 O.3   1438  DCP1438    -0.2203
     15  C5'       14.9280   25.5070   15.5900 C.3   1438  DCP1438     0.1812
     16  O5'       15.0450   24.1600   15.1230 O.3   1438  DCP1438    -0.3112
     17  PA        16.2270   23.7180   14.1490 P.3   1438  DCP1438     0.2189
     18  O1A       15.7430   22.5090   13.4330 O.3   1438  DCP1438    -0.4371
     19  O2A       16.6670   24.9010   13.3610 O.2   1438  DCP1438    -0.5170
     20  O3A       17.3660   23.2350   14.9870 O.3   1438  DCP1438    -0.2700
     21  PB        18.2650   24.0740   15.8380 P.3   1438  DCP1438     0.2277
     22  O1B       17.9410   23.7510   17.2490 O.3   1438  DCP1438    -0.4368
     23  O2B       18.2320   25.4910   15.3900 O.2   1438  DCP1438    -0.5168
     24  O3B       19.6470   23.5680   15.6020 O.3   1438  DCP1438    -0.2258
     25  PG        20.1680   23.3420   14.2210 P.3   1438  DCP1438     0.5373
     26  O1G       20.1430   21.8770   13.9730 O.3   1438  DCP1438    -0.1143
     27  O2G       19.4720   24.2510   13.2840 O.2   1438  DCP1438    -0.2221
     28  O3G       21.5860   23.7600   14.2180 O.3   1438  DCP1438    -0.1143
@<TRIPOS>BOND
     1    27    25    2
     2    19    17    2
     3    18    17    1
     4    26    25    1
     5    17    20    1
     6    17    16    1
     7    28    25    1
     8    25    24    1
     9    20    21    1
    10    16    15    1
    11    23    21    2
    12    15    12    1
    13    24    21    1
    14    21    22    1
    15     5     6    2
    16     5     4    1
    17     6     1    1
    18     8     4    1
    19    13    12    1
    20    13     9    1
    21     4     3    2
    22    12    11    1
    23     1     9    1
    24     1     2   am
    25     3     2    2
    26     9    10    1
    27    11    14    1
    28    11    10    1
    29     2     7    2
