@<TRIPOS>MOLECULE
2pfr_COA_A_1.pdb
 48 50 0 0 0
SMALL
GASTEIGER

@<TRIPOS>ATOM
      1  N1A       14.6380   32.8820   65.2190 N.2   401  COA401      0.0021
      2  C2A       14.7810   31.7590   65.9610 C.3   401  COA401      0.5254
      3  N3A       13.8630   31.4230   66.8880 N.2   401  COA401     -0.0055
      4  C4A       12.7790   32.2200   67.0860 C.2   401  COA401      0.3518
      5  C5A       12.6090   33.3700   66.3400 C.2   401  COA401      0.2526
      6  C6A       13.5630   33.6800   65.4060 C.2   401  COA401      0.4393
      7  N6A       13.4070   34.7810   64.6890 N.pl3 401  COA401      0.2180
      8  N7A       11.4610   33.9710   66.7350 N.2   401  COA401     -0.2095
      9  C8A       10.9240   33.2030   67.7070 C.3   401  COA401      0.3377
     10  N9A       11.7330   32.1470   67.9090 N.pl3 401  COA401     -0.1439
     11  C1B       11.5320   31.0340   68.8710 C.3   401  COA401      0.3185
     12  C2B       11.1840   31.5630   70.2530 C.3   401  COA401      0.2543
     13  O2B       12.3570   31.6050   71.0560 O.3   401  COA401     -0.2131
     14  C3B       10.1540   30.5800   70.7430 C.3   401  COA401      0.1928
     15  O3B       10.8200   29.6060   71.5400 O.3   401  COA401     -0.2673
     16  P3B       10.0640   28.7250   72.6670 P.3   401  COA401      0.5327
     17  O7A       11.2360   27.9400   73.2350 O.3   401  COA401     -0.1145
     18  O8A        9.0630   27.8780   71.8950 O.2   401  COA401     -0.2224
     19  O9A        9.4270   29.7370   73.6060 O.3   401  COA401     -0.1145
     20  C4B        9.5420   29.9610   69.4760 C.3   401  COA401      0.1795
     21  O4B       10.4500   30.2200   68.4060 O.3   401  COA401     -0.3136
     22  C5B        8.1310   30.4760   69.1200 C.3   401  COA401      0.1812
     23  O5B        7.8750   31.8240   69.5430 O.3   401  COA401     -0.3112
     24  P1A        6.3660   32.3270   69.6520 P.3   401  COA401      0.2189
     25  O1A        5.9720   32.4310   71.0840 O.3   401  COA401     -0.4371
     26  O2A        5.5150   31.5200   68.7550 O.2   401  COA401     -0.5170
     27  O3A        6.4850   33.7360   68.9360 O.3   401  COA401     -0.2703
     28  P2A        6.2080   35.2310   69.5390 P.3   401  COA401      0.2188
     29  O4A        7.3480   35.4650   70.5000 O.3   401  COA401     -0.4371
     30  O5A        4.7110   35.4590   69.7890 O.2   401  COA401     -0.5170
     31  O6A        6.4960   36.0360   68.1900 O.3   401  COA401     -0.3138
     32  CBP        7.8970   37.3850   66.9450 C.3   401  COA401      0.0645
     33  CCP        7.8070   36.0560   67.6380 C.3   401  COA401      0.1519
     34  CDP        7.9210   38.4940   68.0200 C.3   401  COA401      0.0056
     35  CEP        6.6670   37.5230   66.0420 C.3   401  COA401      0.0056
     36  CAP        9.2060   37.4000   66.1630 C.3   401  COA401      0.2312
     37  OAP        9.3000   36.2410   65.3260 O.3   401  COA401     -0.2131
     38  C9P        9.2530   38.6570   65.3540 C.2   401  COA401      0.2719
     39  O9P        9.8160   39.7080   65.8850 O.2   401  COA401     -0.2706
     40  N8P        8.7540   38.6390   64.1650 N.am  401  COA401     -0.2028
     41  C7P        8.6890   39.7640   63.2010 C.3   401  COA401      0.1248
     42  C6P        7.2290   39.9360   62.7810 C.3   401  COA401      0.1102
     43  C5P        7.1800   40.9060   61.6020 C.2   401  COA401      0.2432
     44  O5P        8.0570   40.8900   60.7200 O.2   401  COA401     -0.2733
     45  N4P        6.1950   41.7760   61.5550 N.am  401  COA401     -0.2044
     46  C3P        6.0890   42.7540   60.4580 C.3   401  COA401      0.1276
     47  C2P        4.8720   43.6130   60.6680 C.3   401  COA401      0.0920
     48  S1P        4.9930   44.6830   62.1160 S.3   401  COA401     -0.0802
@<TRIPOS>BOND
     1    46    47    1
     2    46    45    1
     3    47    48    1
     4    44    43    2
     5    45    43   am
     6    43    42    1
     7    42    41    1
     8    41    40    1
     9    40    38   am
    10     7     6    1
    11     1     6    2
    12     1     2    1
    13    37    36    1
    14    38    39    2
    15    38    36    1
    16     6     5    1
    17     2     3    1
    18    35    32    1
    19    36    32    1
    20     5     8    2
    21     5     4    1
    22     8     9    1
    23     3     4    2
    24    32    33    1
    25    32    34    1
    26     4    10    1
    27    33    31    1
    28     9    10    1
    29    10    11    1
    30    31    28    1
    31    21    11    1
    32    21    20    1
    33    26    24    2
    34    11    12    1
    35    27    28    1
    36    27    24    1
    37    22    20    1
    38    22    23    1
    39    20    14    1
    40    28    30    2
    41    28    29    1
    42    23    24    1
    43    24    25    1
    44    12    14    1
    45    12    13    1
    46    14    15    1
    47    15    16    1
    48    18    16    2
    49    16    17    1
    50    16    19    1
