@<TRIPOS>MOLECULE
2pg2_ADP_A_1.pdb
 27 29 0 0 0
SMALL
GASTEIGER

@<TRIPOS>ATOM
      1  PB        17.8800    6.1630   17.1790 P.3   601  ADP601      0.5373
      2  O1B       16.7100    6.7080   17.9080 O.3   601  ADP601     -0.1143
      3  O2B       17.5970    4.8270   16.5690 O.3   601  ADP601     -0.1143
      4  O3B       18.5780    7.1480   16.3940 O.2   601  ADP601     -0.2221
      5  PA        20.0360    6.6930   19.0520 P.3   601  ADP601      0.2231
      6  O1A       21.2370    6.7640   18.2000 O.2   601  ADP601     -0.5169
      7  O2A       19.4370    7.9930   19.4560 O.3   601  ADP601     -0.4370
      8  O3A       18.8970    5.7640   18.4230 O.3   601  ADP601     -0.2261
      9  O5'       20.3760    5.7520   20.3630 O.3   601  ADP601     -0.3111
     10  C5'       19.5010    5.7620   21.5100 C.3   601  ADP601      0.1813
     11  C4'       20.3020    5.5250   22.7970 C.3   601  ADP601      0.1821
     12  O4'       20.9540    4.2530   22.7340 O.3   601  ADP601     -0.3135
     13  C3'       21.4250    6.5590   22.9100 C.3   601  ADP601      0.2184
     14  O3'       21.5820    6.9410   24.2900 O.3   601  ADP601     -0.2174
     15  C2'       22.6560    5.8390   22.3990 C.3   601  ADP601      0.2570
     16  O2'       23.9120    6.2110   23.0200 O.3   601  ADP601     -0.2130
     17  C1'       22.3560    4.4150   22.7560 C.3   601  ADP601      0.3186
     18  N9        22.9440    3.5040   21.7700 N.pl3 601  ADP601     -0.1439
     19  C8        22.3900    3.1180   20.5930 C.3   601  ADP601      0.3377
     20  N7        23.1980    2.2220   19.9680 N.2   601  ADP601     -0.2095
     21  C5        24.2900    2.0490   20.7550 C.2   601  ADP601      0.2526
     22  C6        25.5430    1.2390   20.6970 C.2   601  ADP601      0.4393
     23  N6        25.7650    0.4540   19.6400 N.pl3 601  ADP601      0.2180
     24  N1        26.4100    1.3440   21.7120 N.2   601  ADP601      0.0021
     25  C2        26.1770    2.1270   22.7890 C.3   601  ADP601      0.5254
     26  N3        25.0780    2.8940   22.9170 N.2   601  ADP601     -0.0055
     27  C4        24.1160    2.8830   21.9480 C.2   601  ADP601      0.3518
@<TRIPOS>BOND
     1     4     1    2
     2     3     1    1
     3     1     2    1
     4     1     8    1
     5     6     5    2
     6     8     5    1
     7     5     7    1
     8     5     9    1
     9    23    22    1
    10    20    19    1
    11    20    21    2
    12     9    10    1
    13    19    18    1
    14    22    21    1
    15    22    24    2
    16    21    27    1
    17    10    11    1
    18    24    25    1
    19    18    27    1
    20    18    17    1
    21    27    26    2
    22    15    17    1
    23    15    13    1
    24    15    16    1
    25    12    17    1
    26    12    11    1
    27    25    26    1
    28    11    13    1
    29    13    14    1
