@<TRIPOS>MOLECULE
2pg2_K01_A_1.pdb
 24 26 0 0 0
SMALL
GASTEIGER

@<TRIPOS>ATOM
      1  O21       30.7710   14.1460   13.4240 O.2   604  K01604     -0.2674
      2  C15       30.3480   13.5460   14.3590 C.2   604  K01604      0.2755
      3  C16       31.0580   12.8710   15.4850 C.ar  604  K01604      0.0848
      4  S17       32.7830   12.9520   15.3570 S.2   604  K01604     -0.0818
      5  C18       33.0400   12.0200   16.7840 C.ar  604  K01604      0.0356
      6  C19       31.7890   11.6950   17.3150 C.ar  604  K01604      0.0076
      7  C20       30.6510   12.1390   16.6230 C.ar  604  K01604      0.0116
      8  N14       29.0820   13.6140   14.4480 N.am  604  K01604     -0.1683
      9  C13       28.1390   14.0770   13.5770 C.ar  604  K01604      0.1068
     10  S12       27.8830   13.4590   12.0100 S.2   604  K01604     -0.0750
     11  C7        26.5550   14.5530   11.7220 C.ar  604  K01604      0.0047
     12  C6        26.3240   15.3400   12.8480 C.ar  604  K01604     -0.0140
     13  C11       25.2260   16.3690   12.8850 C.3   604  K01604      0.0268
     14  C10       24.7240   16.6640   11.4420 C.3   604  K01604      0.0050
     15  C9        25.3540   15.9960   10.2040 C.3   604  K01604      0.0055
     16  C8        25.7720   14.5160   10.4290 C.3   604  K01604      0.0327
     17  C5        27.2460   15.0980   13.8800 C.ar  604  K01604      0.0712
     18  C4        26.9620   15.8310   15.1570 C.2   604  K01604      0.2505
     19  O22       26.0490   16.5220   15.1490 O.2   604  K01604     -0.2699
     20  N3        27.6240   16.2330   16.1880 N.am  604  K01604     -0.2760
     21  C2        28.7520   15.6290   15.8900 C.3   604  K01604      0.0938
     22  C1        29.3760   17.1010   15.1840 C.3   604  K01604      0.0233
     23  C23       27.7060   16.7560   17.5290 C.3   604  K01604      0.0938
     24  C24       28.3940   15.6740   18.3140 C.3   604  K01604      0.0233
@<TRIPOS>BOND
     1    15    16    1
     2    15    14    1
     3    16    11    1
     4    14    13    1
     5    11    10   ar
     6    11    12   ar
     7    10     9   ar
     8    12    13    1
     9    12    17   ar
    10     1     2    2
    11     9    17   ar
    12     9     8    1
    13    17    18    1
    14     2     8   am
    15     2     3    1
    16    19    18    2
    17    18    20   am
    18    22    21    1
    19     4     3   ar
    20     4     5   ar
    21     3     7   ar
    22    21    20    1
    23    20    23    1
    24     7     6   ar
    25     5     6   ar
    26    23    24    1
