@<TRIPOS>MOLECULE
2pg5_HEM_A_1.pdb
 43 50 0 0 0
SMALL
GASTEIGER

@<TRIPOS>ATOM
      1 FE         52.6270   83.1980   57.2840 Fe    500  HEM500      0.0000
      2  CHA       52.3760   83.8350   60.5960 C.2   500  HEM500      0.0000
      3  CHB       49.6240   81.7700   57.3150 C.2   500  HEM500      0.0000
      4  CHC       52.8960   82.6390   54.0440 C.2   500  HEM500      0.0000
      5  CHD       55.7230   84.4500   57.3480 C.2   500  HEM500      0.0000
      6  NA        51.2250   82.7900   58.7270 N.2   500  HEM500      0.0000
      7  C1A       51.2740   83.1780   60.0350 C.2   500  HEM500      0.0000
      8  C2A       50.0780   82.8250   60.6860 C.2   500  HEM500      0.0000
      9  C3A       49.3010   82.2030   59.7290 C.2   500  HEM500      0.0000
     10  C4A       50.0590   82.2130   58.5460 C.2   500  HEM500      0.0000
     11  CMA       47.8510   81.5990   59.8950 C.3   500  HEM500      0.0000
     12  CAA       49.7420   83.0980   62.1560 C.3   500  HEM500      0.0000
     13  CBA       49.0660   84.4230   62.3690 C.3   500  HEM500      0.0000
     14  CGA       48.6600   84.7580   63.7900 C.2   500  HEM500      0.0000
     15  O1A       47.6730   85.4530   63.9570 O.co2 500  HEM500      0.0000
     16  O2A       49.2810   84.3540   64.7620 O.co2 500  HEM500      0.0000
     17  NB        51.4020   82.3370   55.8610 N.ar  500  HEM500      0.0000
     18  C1B       50.1900   81.8430   56.0500 C.ar  500  HEM500      0.0000
     19  C2B       49.6500   81.3230   54.8340 C.ar  500  HEM500      0.0000
     20  C3B       50.6660   81.5470   53.8710 C.ar  500  HEM500      0.0000
     21  C4B       51.7130   82.1810   54.5930 C.ar  500  HEM500      0.0000
     22  CMB       48.2850   80.6810   54.6870 C.3   500  HEM500      0.0000
     23  CAB       50.7040   81.2380   52.4760 C.3   500  HEM500      0.0000
     24  CBB       49.6200   81.0220   51.4910 C.3   500  HEM500      0.0000
     25  NC        54.0970   83.4930   55.8890 N.2   500  HEM500      0.0000
     26  C1C       53.9530   83.3340   54.5890 C.2   500  HEM500      0.0000
     27  C2C       55.1030   83.6910   53.8980 C.2   500  HEM500      0.0000
     28  C3C       56.0250   84.1010   54.8640 C.2   500  HEM500      0.0000
     29  C4C       55.3430   83.9580   56.1050 C.2   500  HEM500      0.0000
     30  CMC       55.3160   83.6460   52.3520 C.3   500  HEM500      0.0000
     31  CAC       57.3070   84.5510   54.7630 C.3   500  HEM500      0.0000
     32  CBC       57.7920   85.7840   54.2710 C.3   500  HEM500      0.0000
     33  ND        53.8780   84.0040   58.7340 N.ar  500  HEM500      0.0000
     34  C1D       55.1020   84.3840   58.5460 C.ar  500  HEM500      0.0000
     35  C2D       55.6780   84.7700   59.7600 C.ar  500  HEM500      0.0000
     36  C3D       54.7260   84.6040   60.7280 C.ar  500  HEM500      0.0000
     37  C4D       53.6040   84.1170   60.0320 C.ar  500  HEM500      0.0000
     38  CMD       57.1200   85.2890   59.9900 C.3   500  HEM500      0.0000
     39  CAD       54.8570   84.8890   62.2550 C.3   500  HEM500      0.0000
     40  CBD       54.4440   86.3570   62.6150 C.3   500  HEM500      0.0000
     41  CGD       54.5430   86.7910   64.0950 C.2   500  HEM500      0.0000
     42  O1D       54.5260   87.9640   64.3990 O.co2 500  HEM500      0.0000
     43  O2D       54.6620   85.9260   64.9800 O.co2 500  HEM500      0.0000
@<TRIPOS>BOND
     1    24    23    1
     2    30    27    1
     3    23    20    1
     4    20    21   ar
     5    20    19   ar
     6    27    26    1
     7    27    28    2
     8     4    26    2
     9     4    21    1
    10    32    31    1
    11    26    25    1
    12    21    17   ar
    13    22    19    1
    14    31    28    1
    15    19    18   ar
    16    28    29    1
    17    17    18   ar
    18    17     1    1
    19    25    29    2
    20    25     1    1
    21    18     3    1
    22    29     5    1
    23     1     6    1
    24     1    33    1
    25     3    10    2
    26     5    34    2
    27    10     6    1
    28    10     9    1
    29    34    33   ar
    30    34    35   ar
    31     6     7    2
    32    33    37   ar
    33     9    11    1
    34     9     8    2
    35    35    38    1
    36    35    36   ar
    37    37     2    2
    38    37    36   ar
    39     7     2    1
    40     7     8    1
    41     8    12    1
    42    36    39    1
    43    12    13    1
    44    39    40    1
    45    13    14    1
    46    40    41    1
    47    14    15   ar
    48    14    16   ar
    49    41    42   ar
    50    41    43   ar
