@<TRIPOS>MOLECULE
2pg6_HEM_A_1.pdb
 43 50 0 0 0
SMALL
GASTEIGER

@<TRIPOS>ATOM
      1 FE         52.4710   83.1130   57.3430 Fe    500  HEM500      0.0000
      2  CHA       52.3470   83.5420   60.6950 C.2   500  HEM500      0.0000
      3  CHB       49.4720   81.6470   57.4220 C.2   500  HEM500      0.0000
      4  CHC       52.6820   82.6040   54.0940 C.2   500  HEM500      0.0000
      5  CHD       55.5090   84.4610   57.3810 C.2   500  HEM500      0.0000
      6  NA        51.1110   82.6510   58.8170 N.2   500  HEM500      0.0000
      7  C1A       51.1790   83.0500   60.1260 C.2   500  HEM500      0.0000
      8  C2A       49.9870   82.7230   60.8030 C.2   500  HEM500      0.0000
      9  C3A       49.1850   82.1000   59.8510 C.2   500  HEM500      0.0000
     10  C4A       49.9290   82.0870   58.6560 C.2   500  HEM500      0.0000
     11  CMA       47.7280   81.5190   60.0420 C.3   500  HEM500      0.0000
     12  CAA       49.6710   83.0210   62.2930 C.3   500  HEM500      0.0000
     13  CBA       49.0100   84.3630   62.5400 C.3   500  HEM500      0.0000
     14  CGA       48.6500   84.6880   63.9850 C.2   500  HEM500      0.0000
     15  O1A       47.5510   85.1390   64.2330 O.co2 500  HEM500      0.0000
     16  O2A       49.4220   84.5170   64.8990 O.co2 500  HEM500      0.0000
     17  NB        51.2270   82.2620   55.9300 N.ar  500  HEM500      0.0000
     18  C1B       50.0080   81.7640   56.1360 C.ar  500  HEM500      0.0000
     19  C2B       49.4640   81.2290   54.9360 C.ar  500  HEM500      0.0000
     20  C3B       50.4710   81.4450   53.9590 C.ar  500  HEM500      0.0000
     21  C4B       51.5290   82.0920   54.6650 C.ar  500  HEM500      0.0000
     22  CMB       48.0980   80.5830   54.8080 C.3   500  HEM500      0.0000
     23  CAB       50.4900   81.1120   52.5650 C.3   500  HEM500      0.0000
     24  CBB       49.4160   81.0660   51.5480 C.3   500  HEM500      0.0000
     25  NC        53.9190   83.4340   55.9430 N.2   500  HEM500      0.0000
     26  C1C       53.7690   83.2670   54.6390 C.2   500  HEM500      0.0000
     27  C2C       54.9040   83.6640   53.9400 C.2   500  HEM500      0.0000
     28  C3C       55.8220   84.1090   54.9050 C.2   500  HEM500      0.0000
     29  C4C       55.1510   83.9440   56.1480 C.2   500  HEM500      0.0000
     30  CMC       55.1110   83.6210   52.3880 C.3   500  HEM500      0.0000
     31  CAC       57.0970   84.6050   54.8000 C.3   500  HEM500      0.0000
     32  CBC       57.5820   85.7550   54.1250 C.3   500  HEM500      0.0000
     33  ND        53.7260   83.9300   58.7840 N.ar  500  HEM500      0.0000
     34  C1D       54.9530   84.2770   58.5900 C.ar  500  HEM500      0.0000
     35  C2D       55.5290   84.6830   59.7990 C.ar  500  HEM500      0.0000
     36  C3D       54.5730   84.5620   60.7710 C.ar  500  HEM500      0.0000
     37  C4D       53.4470   84.0840   60.0840 C.ar  500  HEM500      0.0000
     38  CMD       56.9780   85.1760   60.0220 C.3   500  HEM500      0.0000
     39  CAD       54.7010   84.8900   62.3030 C.3   500  HEM500      0.0000
     40  CBD       54.3300   86.3720   62.6510 C.3   500  HEM500      0.0000
     41  CGD       54.4140   86.8170   64.1310 C.2   500  HEM500      0.0000
     42  O1D       54.1900   87.9540   64.4570 O.co2 500  HEM500      0.0000
     43  O2D       54.7110   85.9940   64.9930 O.co2 500  HEM500      0.0000
@<TRIPOS>BOND
     1    24    23    1
     2    30    27    1
     3    23    20    1
     4    27    26    1
     5    27    28    2
     6    20    21   ar
     7    20    19   ar
     8     4    26    2
     9     4    21    1
    10    32    31    1
    11    26    25    1
    12    21    17   ar
    13    31    28    1
    14    22    19    1
    15    28    29    1
    16    19    18   ar
    17    17    18   ar
    18    17     1    1
    19    25    29    2
    20    25     1    1
    21    18     3    1
    22    29     5    1
    23     1    33    1
    24     1     6    1
    25     5    34    2
    26     3    10    2
    27    34    33   ar
    28    34    35   ar
    29    10     6    1
    30    10     9    1
    31    33    37   ar
    32     6     7    2
    33    35    38    1
    34    35    36   ar
    35     9    11    1
    36     9     8    2
    37    37     2    2
    38    37    36   ar
    39     7     2    1
    40     7     8    1
    41    36    39    1
    42     8    12    1
    43    12    13    1
    44    39    40    1
    45    13    14    1
    46    40    41    1
    47    14    15   ar
    48    14    16   ar
    49    41    42   ar
    50    41    43   ar
