@<TRIPOS>MOLECULE
2pg7_HEM_A_1.pdb
 43 50 0 0 0
SMALL
GASTEIGER

@<TRIPOS>ATOM
      1 FE         52.7810   82.8730   57.1000 Fe    500  HEM500      0.0000
      2  CHA       52.6330   83.4290   60.4250 C.2   500  HEM500      0.0000
      3  CHB       49.9130   81.2890   57.2450 C.2   500  HEM500      0.0000
      4  CHC       52.8250   82.5290   53.8400 C.2   500  HEM500      0.0000
      5  CHD       55.7710   84.2370   57.0550 C.2   500  HEM500      0.0000
      6  NA        51.4590   82.4200   58.5840 N.2   500  HEM500      0.0000
      7  C1A       51.5030   82.8630   59.8710 C.2   500  HEM500      0.0000
      8  C2A       50.3200   82.5230   60.5330 C.2   500  HEM500      0.0000
      9  C3A       49.5640   81.8560   59.5860 C.2   500  HEM500      0.0000
     10  C4A       50.3180   81.8310   58.4300 C.2   500  HEM500      0.0000
     11  CMA       48.1290   81.2300   59.7330 C.3   500  HEM500      0.0000
     12  CAA       49.9660   82.8410   62.0010 C.2   500  HEM500      0.0000
     13  CBA       49.2630   84.1440   62.2420 C.2   500  HEM500      0.0000
     14  CGA       48.8860   84.4330   63.6860 C.2   500  HEM500      0.0000
     15  O1A       47.7800   84.1360   64.1060 O.co2 500  HEM500      0.0000
     16  O2A       49.6520   84.9640   64.4360 O.co2 500  HEM500      0.0000
     17  NB        51.4800   82.0700   55.7120 N.ar  500  HEM500      0.0000
     18  C1B       50.3190   81.5160   55.9570 C.ar  500  HEM500      0.0000
     19  C2B       49.6910   81.0540   54.7720 C.ar  500  HEM500      0.0000
     20  C3B       50.6030   81.3880   53.7420 C.ar  500  HEM500      0.0000
     21  C4B       51.6870   82.0180   54.4270 C.ar  500  HEM500      0.0000
     22  CMB       48.3380   80.3620   54.7080 C.3   500  HEM500      0.0000
     23  CAB       50.5330   81.1750   52.3200 C.3   500  HEM500      0.0000
     24  CBB       49.3950   80.8980   51.4040 C.3   500  HEM500      0.0000
     25  NC        54.1490   83.2480   55.6560 N.2   500  HEM500      0.0000
     26  C1C       53.9190   83.1750   54.3660 C.2   500  HEM500      0.0000
     27  C2C       55.0040   83.5780   53.6350 C.2   500  HEM500      0.0000
     28  C3C       55.9920   83.9270   54.5600 C.2   500  HEM500      0.0000
     29  C4C       55.3930   83.7010   55.8290 C.2   500  HEM500      0.0000
     30  CMC       55.1010   83.6260   52.0820 C.3   500  HEM500      0.0000
     31  CAC       57.2690   84.3920   54.3970 C.3   500  HEM500      0.0000
     32  CBC       57.7200   85.6490   53.9280 C.3   500  HEM500      0.0000
     33  ND        54.0050   83.7570   58.4950 N.ar  500  HEM500      0.0000
     34  C1D       55.2230   84.0800   58.2840 C.ar  500  HEM500      0.0000
     35  C2D       55.8210   84.4770   59.4790 C.ar  500  HEM500      0.0000
     36  C3D       54.8860   84.3840   60.4650 C.ar  500  HEM500      0.0000
     37  C4D       53.7450   83.9210   59.7970 C.ar  500  HEM500      0.0000
     38  CMD       57.2680   84.9320   59.6600 C.3   500  HEM500      0.0000
     39  CAD       55.0510   84.7150   61.9930 C.3   500  HEM500      0.0000
     40  CBD       54.7090   86.2010   62.3550 C.3   500  HEM500      0.0000
     41  CGD       54.8560   86.6630   63.8310 C.2   500  HEM500      0.0000
     42  O1D       54.7790   87.8360   64.1140 O.co2 500  HEM500      0.0000
     43  O2D       55.0700   85.8250   64.7310 O.co2 500  HEM500      0.0000
@<TRIPOS>BOND
     1    24    23    1
     2    30    27    1
     3    23    20    1
     4    27    26    1
     5    27    28    2
     6    20    21   ar
     7    20    19   ar
     8     4    26    2
     9     4    21    1
    10    32    31    1
    11    26    25    1
    12    31    28    1
    13    21    17   ar
    14    28    29    1
    15    22    19    1
    16    19    18   ar
    17    25    29    2
    18    25     1    1
    19    17    18   ar
    20    17     1    1
    21    29     5    1
    22    18     3    1
    23     5    34    2
    24     1    33    1
    25     1     6    1
    26     3    10    2
    27    34    33   ar
    28    34    35   ar
    29    10     6    1
    30    10     9    1
    31    33    37   ar
    32     6     7    2
    33    35    38    1
    34    35    36   ar
    35     9    11    1
    36     9     8    2
    37    37     2    2
    38    37    36   ar
    39     7     2    1
    40     7     8    1
    41    36    39    1
    42     8    12    1
    43    39    40    1
    44    12    13    2
    45    13    14    1
    46    40    41    1
    47    14    15   ar
    48    14    16   ar
    49    41    42   ar
    50    41    43   ar
