@<TRIPOS>MOLECULE
2pga_ANU_B_1.pdb
 16 18 0 0 0
SMALL
GASTEIGER

@<TRIPOS>ATOM
      1  O3'        8.0660   -1.0280   93.1710 O.3   7016  ANU7016    -0.2164
      2  C3'        9.3130   -1.0060   92.4790 C.3   7016  ANU7016     0.2255
      3  C2'        9.7340    0.4040   92.1410 C.3   7016  ANU7016     0.2492
      4  O2        10.4870    0.2500   90.9330 O.2   7016  ANU7016    -0.4366
      5  C2        11.6490    1.0300   91.1490 C.2   7016  ANU7016     0.3591
      6  N3        12.8010    1.0540   90.2650 N.2   7016  ANU7016    -0.2807
      7  C4        14.0110    1.2840   90.7820 C.1   7016  ANU7016     0.2105
      8  O4        14.9760    1.3840   89.9930 O.2   7016  ANU7016    -0.2091
      9  C5        14.2090    1.3740   92.1700 C.2   7016  ANU7016     0.1230
     10  C6        13.1420    1.2550   93.0740 C.2   7016  ANU7016     0.0859
     11  N1        11.9190    1.0490   92.5660 N.pl3 7016  ANU7016    -0.2037
     12  C1'       10.6750    0.8650   93.2700 C.3   7016  ANU7016     0.2442
     13  O4'       10.8710   -0.2970   94.0800 O.3   7016  ANU7016    -0.3314
     14  C4'       10.4290   -1.4740   93.3910 C.3   7016  ANU7016     0.1840
     15  C5'       11.5500   -2.0590   92.5360 C.3   7016  ANU7016     0.2142
     16  O5'       12.6450   -2.4800   93.3510 O.3   7016  ANU7016    -0.2176
@<TRIPOS>BOND
     1     8     7    2
     2     6     7    2
     3     6     5    2
     4     7     9    1
     5     4     5    1
     6     4     3    1
     7     5    11    1
     8     3     2    1
     9     3    12    1
    10     9    10    2
    11     2     1    1
    12     2    14    1
    13    15    16    1
    14    15    14    1
    15    11    10    1
    16    11    12    1
    17    12    13    1
    18    14    13    1
