@<TRIPOS>MOLECULE
2pgf_ADN_A_1.pdb
 19 21 0 0 0
SMALL
GASTEIGER

@<TRIPOS>ATOM
      1  O5'       32.2360   21.1370   35.3270 O.3   501  ADN501     -0.2176
      2  C5'       32.7200   21.2900   36.6650 C.3   501  ADN501      0.2143
      3  C4'       32.7200   22.7640   37.0000 C.3   501  ADN501      0.1851
      4  O4'       31.3830   23.3170   36.7400 O.3   501  ADN501     -0.3134
      5  C3'       33.0240   23.0660   38.4710 C.3   501  ADN501      0.2186
      6  O3'       33.5800   24.3910   38.5250 O.3   501  ADN501     -0.2174
      7  C2'       31.6210   23.0490   39.0640 C.3   501  ADN501      0.2570
      8  O2'       31.5330   23.8040   40.2730 O.3   501  ADN501     -0.2130
      9  C1'       30.8670   23.8180   37.9950 C.3   501  ADN501      0.3186
     10  N9        29.4070   23.6430   37.9700 N.pl3 501  ADN501     -0.1439
     11  C8        28.7360   22.4960   37.7780 C.3   501  ADN501      0.3377
     12  N7        27.4150   22.7660   37.8060 N.2   501  ADN501     -0.2095
     13  C5        27.2750   24.0840   37.9920 C.2   501  ADN501      0.2526
     14  C6        26.1900   24.9390   38.1000 C.2   501  ADN501      0.4393
     15  N6        24.9640   24.4660   37.9980 N.pl3 501  ADN501      0.2180
     16  N1        26.3930   26.2530   38.3190 N.2   501  ADN501      0.0021
     17  C2        27.6220   26.7440   38.4120 C.3   501  ADN501      0.5254
     18  N3        28.6810   25.9630   38.3020 N.2   501  ADN501     -0.0055
     19  C4        28.5380   24.6360   38.0970 C.2   501  ADN501      0.3518
@<TRIPOS>BOND
     1     1     2    1
     2     2     3    1
     3     4     3    1
     4     4     9    1
     5     3     5    1
     6    11    12    1
     7    11    10    1
     8    12    13    2
     9    10     9    1
    10    10    19    1
    11    13    19    1
    12    13    14    1
    13     9     7    1
    14    15    14    1
    15    19    18    2
    16    14    16    2
    17    18    17    1
    18    16    17    1
    19     5     6    1
    20     5     7    1
    21     7     8    1
