@<TRIPOS>MOLECULE
2pgh_HEM_A_1.pdb
 43 50 0 0 0
SMALL
GASTEIGER

@<TRIPOS>ATOM
      1 FE          9.1900    4.8290   -2.7730 Fe    142  HEM142      0.0000
      2  CHA        7.8530    7.0000   -4.9570 C.2   142  HEM142      0.0000
      3  CHB       10.3890    2.9810   -5.4950 C.2   142  HEM142      0.0000
      4  CHC       11.1430    2.9940   -0.7580 C.2   142  HEM142      0.0000
      5  CHD        7.6850    6.3430   -0.2240 C.2   142  HEM142      0.0000
      6  NA         9.1230    4.9470   -4.7830 N.ar  142  HEM142      0.0000
      7  C1A        8.4580    5.8830   -5.5390 C.ar  142  HEM142      0.0000
      8  C2A        8.3270    5.4630   -6.9450 C.ar  142  HEM142      0.0000
      9  C3A        9.1040    4.3750   -7.0420 C.ar  142  HEM142      0.0000
     10  C4A        9.5840    4.0630   -5.7410 C.ar  142  HEM142      0.0000
     11  CMA        9.4290    3.5790   -8.2960 C.3   142  HEM142      0.0000
     12  CAA        7.3360    5.9160   -8.0250 C.3   142  HEM142      0.0000
     13  CBA        7.9740    6.7730   -9.1200 C.3   142  HEM142      0.0000
     14  CGA        7.0390    7.0990  -10.2840 C.2   142  HEM142      0.0000
     15  O1A        5.8200    7.2570  -10.0620 O.co2 142  HEM142      0.0000
     16  O2A        7.5290    7.2120  -11.4300 O.co2 142  HEM142      0.0000
     17  NB        10.4570    3.2820   -3.0630 N.2   142  HEM142      0.0000
     18  C1B       10.8510    2.6300   -4.2460 C.2   142  HEM142      0.0000
     19  C2B       11.9530    1.7190   -4.0380 C.2   142  HEM142      0.0000
     20  C3B       12.2010    1.6910   -2.7450 C.2   142  HEM142      0.0000
     21  C4B       11.2750    2.6880   -2.1140 C.2   142  HEM142      0.0000
     22  CMB       12.8870    1.1990   -5.0730 C.3   142  HEM142      0.0000
     23  CAB       13.1430    0.8720   -2.1470 C.3   142  HEM142      0.0000
     24  CBB       13.0200   -0.5060   -2.1380 C.3   142  HEM142      0.0000
     25  NC         9.4000    4.6670   -0.9240 N.ar  142  HEM142      0.0000
     26  C1C       10.2410    3.8790   -0.2210 C.ar  142  HEM142      0.0000
     27  C2C       10.0200    4.0560    1.1950 C.ar  142  HEM142      0.0000
     28  C3C        9.0910    4.9960    1.3700 C.ar  142  HEM142      0.0000
     29  C4C        8.7040    5.3830    0.0330 C.ar  142  HEM142      0.0000
     30  CMC       10.6500    3.2830    2.3220 C.3   142  HEM142      0.0000
     31  CAC        8.5590    5.4600    2.5230 C.2   142  HEM142      0.0000
     32  CBC        7.6880    4.6720    3.1680 C.2   142  HEM142      0.0000
     33  ND         7.9200    6.3100   -2.5910 N.2   142  HEM142      0.0000
     34  C1D        7.2780    6.7620   -1.4530 C.2   142  HEM142      0.0000
     35  C2D        6.4650    7.9370   -1.6900 C.2   142  HEM142      0.0000
     36  C3D        6.4950    8.1530   -3.0180 C.2   142  HEM142      0.0000
     37  C4D        7.4940    7.1820   -3.5860 C.2   142  HEM142      0.0000
     38  CMD        6.0210    8.9980   -0.7030 C.3   142  HEM142      0.0000
     39  CAD        5.5150    9.1010   -3.6640 C.3   142  HEM142      0.0000
     40  CBD        5.0950    8.5590   -4.9960 C.3   142  HEM142      0.0000
     41  CGD        3.6740    8.8840   -5.3590 C.2   142  HEM142      0.0000
     42  O1D        3.2060    8.3690   -6.3790 O.co2 142  HEM142      0.0000
     43  O2D        3.0110    9.6400   -4.6360 O.co2 142  HEM142      0.0000
@<TRIPOS>BOND
     1    16    14   ar
     2    14    15   ar
     3    14    13    1
     4    13    12    1
     5    11     9    1
     6    12     8    1
     7     9     8   ar
     8     9    10   ar
     9     8     7   ar
    10    42    41   ar
    11    10     3    2
    12    10     6   ar
    13     7     2    2
    14     7     6   ar
    15     3    18    1
    16    41    40    1
    17    41    43   ar
    18    22    19    1
    19    40    39    1
    20     2    37    1
    21     6     1    1
    22    18    19    1
    23    18    17    2
    24    19    20    2
    25    39    36    1
    26    37    36    1
    27    37    33    2
    28    17     1    1
    29    17    21    1
    30    36    35    2
    31     1    33    1
    32     1    25    1
    33    20    23    1
    34    20    21    1
    35    33    34    1
    36    23    24    1
    37    21     4    2
    38    35    34    1
    39    35    38    1
    40    34     5    2
    41    25    26   ar
    42    25    29   ar
    43     4    26    1
    44     5    29    1
    45    26    27   ar
    46    29    28   ar
    47    27    28   ar
    48    27    30    1
    49    28    31    1
    50    31    32    2
