@<TRIPOS>MOLECULE
2pgj_N1C_A_1.pdb
 35 39 0 0 0
SMALL
GASTEIGER

@<TRIPOS>ATOM
      1  O1B        5.5610    3.5100    3.3870 O.3   301  N1C301     -0.4371
      2  PB         4.1620    4.1010    3.4810 P.3   301  N1C301      0.2189
      3  O3A        3.6290    3.9540    4.9900 O.3   301  N1C301     -0.2703
      4  O2B        3.8740    5.5440    3.0580 O.2   301  N1C301     -0.5170
      5  O5D        3.1650    3.1570    2.6320 O.3   301  N1C301     -0.3112
      6  C5D        1.7560    3.3960    2.6900 C.3   301  N1C301      0.1813
      7  C4D        1.1920    3.6620    1.2870 C.3   301  N1C301      0.1799
      8  C3D       -0.3070    3.4630    1.2690 C.3   301  N1C301      0.2158
      9  O3D       -0.8900    4.5840    0.5910 O.3   301  N1C301     -0.2175
     10  C2D       -0.5400    2.1560    0.5270 C.3   301  N1C301      0.2311
     11  O2D       -1.3500    2.4160   -0.6240 O.3   301  N1C301     -0.2158
     12  O4D        1.6900    2.7430    0.3050 O.3   301  N1C301     -0.3325
     13  C1D        0.8310    1.6120    0.1250 C.3   301  N1C301      0.2314
     14  N1         1.3060    0.5800    1.0650 N.am  301  N1C301     -0.2045
     15  C6         0.4220   -0.3510    1.6720 C.2   301  N1C301      0.2787
     16  O6        -0.7950   -0.3960    1.4040 O.2   301  N1C301     -0.2678
     17  C5         0.9950   -1.3270    2.6280 C.2   301  N1C301      0.2156
     18  N7         0.4540   -2.3190    3.3690 N.2   301  N1C301     -0.2121
     19  C8         1.4640   -2.8810    4.0690 C.3   301  N1C301      0.3385
     20  C2         2.6140    0.5350    1.3900 C.3   301  N1C301      0.3662
     21  N3         3.1270   -0.3500    2.2630 N.2   301  N1C301     -0.0394
     22  C4         2.3500   -1.2740    2.8930 C.2   301  N1C301      0.3466
     23  N9         2.6100   -2.2510    3.7710 N.pl3 301  N1C301     -0.1326
     24  C1'        3.9150   -2.5960    4.3890 C.3   301  N1C301      0.3748
     25  O4'        4.0050   -1.7400    5.5350 O.2   301  N1C301     -0.4379
     26  C2'        5.1370   -2.3060    3.5260 C.3   301  N1C301      0.3017
     27  O2'        6.0650   -3.3830    3.7110 O.3   301  N1C301     -0.2058
     28  C3'        5.7000   -1.0820    4.1610 C.2   301  N1C301      0.2434
     29  O3'        6.7950   -0.4600    3.7320 O.2   301  N1C301     -0.2854
     30  C4'        4.9960   -0.7360    5.2210 C.2   301  N1C301      0.1877
     31  C5'        5.1750    0.5350    6.0220 C.3   301  N1C301      0.2156
     32  O5'        4.4730    1.6110    5.3930 O.3   301  N1C301     -0.3055
     33  PA         4.4190    3.0660    6.0790 P.3   301  N1C301      0.2192
     34  O1A        5.8320    3.5850    6.2400 O.2   301  N1C301     -0.5170
     35  O2A        3.5060    3.0060    7.2780 O.3   301  N1C301     -0.4371
@<TRIPOS>BOND
     1    11    10    1
     2    13    12    1
     3    13    10    1
     4    13    14    1
     5    12     7    1
     6    10     8    1
     7     9     8    1
     8    14    20    1
     9    14    15   am
    10     8     7    1
    11     7     6    1
    12    20    21    1
    13    16    15    2
    14    15    17    1
    15    21    22    2
    16    17    22    1
    17    17    18    2
    18     5     6    1
    19     5     2    1
    20    22    23    1
    21     4     2    2
    22    18    19    1
    23     1     2    1
    24     2     3    1
    25    26    27    1
    26    26    28    1
    27    26    24    1
    28    29    28    1
    29    23    19    1
    30    23    24    1
    31    28    30    2
    32    24    25    1
    33     3    33    1
    34    30    25    1
    35    30    31    1
    36    32    31    1
    37    32    33    1
    38    33    34    2
    39    33    35    1
