@<TRIPOS>MOLECULE
2pgl_N1C_A_1.pdb
 35 39 0 0 0
SMALL
GASTEIGER

@<TRIPOS>ATOM
      1  O1B        5.5760    3.7310    3.4880 O.3   301  N1C301     -0.4371
      2  PB         4.1500    4.3030    3.5420 P.3   301  N1C301      0.2189
      3  O3A        3.6050    4.2030    5.0570 O.3   301  N1C301     -0.2703
      4  O2B        3.8040    5.6690    3.0020 O.2   301  N1C301     -0.5170
      5  O5D        3.1920    3.3220    2.6770 O.3   301  N1C301     -0.3112
      6  C5D        1.7740    3.5160    2.6980 C.3   301  N1C301      0.1813
      7  C4D        1.2420    3.7840    1.2900 C.3   301  N1C301      0.1799
      8  C3D       -0.2640    3.6200    1.2640 C.3   301  N1C301      0.2158
      9  O3D       -0.7840    4.7760    0.5950 O.3   301  N1C301     -0.2175
     10  C2D       -0.5340    2.2960    0.5380 C.3   301  N1C301      0.2311
     11  O2D       -1.4020    2.5430   -0.5810 O.3   301  N1C301     -0.2158
     12  O4D        1.7160    2.8480    0.3010 O.3   301  N1C301     -0.3325
     13  C1D        0.8410    1.7220    0.1420 C.3   301  N1C301      0.2314
     14  N1         1.3430    0.6900    1.0840 N.am  301  N1C301     -0.2045
     15  C6         0.4940   -0.3080    1.6170 C.2   301  N1C301      0.2787
     16  O6        -0.7100   -0.3670    1.2880 O.2   301  N1C301     -0.2678
     17  C5         1.0600   -1.2980    2.5830 C.2   301  N1C301      0.2156
     18  N7         0.5350   -2.3430    3.2640 N.2   301  N1C301     -0.2121
     19  C8         1.5210   -2.8800    4.0050 C.3   301  N1C301      0.3385
     20  C2         2.6400    0.6870    1.4810 C.3   301  N1C301      0.3662
     21  N3         3.1540   -0.2050    2.3600 N.2   301  N1C301     -0.0394
     22  C4         2.3970   -1.1960    2.9250 C.2   301  N1C301      0.3466
     23  N9         2.6470   -2.1990    3.7890 N.pl3 301  N1C301     -0.1326
     24  C1'        3.9190   -2.5280    4.4730 C.3   301  N1C301      0.3748
     25  O4'        4.0050   -1.5980    5.5650 O.2   301  N1C301     -0.4379
     26  C2'        5.1480   -2.3210    3.5970 C.3   301  N1C301      0.3017
     27  O2'        6.1030   -3.3590    3.8890 O.3   301  N1C301     -0.2058
     28  C3'        5.6390   -0.9990    4.0860 C.2   301  N1C301      0.2434
     29  O3'        6.6210   -0.3010    3.5280 O.2   301  N1C301     -0.2854
     30  C4'        4.9600   -0.5980    5.1400 C.2   301  N1C301      0.1877
     31  C5'        5.1360    0.7410    5.8220 C.3   301  N1C301      0.2156
     32  O5'        4.2120    1.7470    5.3720 O.3   301  N1C301     -0.3055
     33  PA         4.3130    3.1960    6.1010 P.3   301  N1C301      0.2192
     34  O1A        5.7890    3.5620    6.1960 O.2   301  N1C301     -0.5170
     35  O2A        3.4400    3.1630    7.3300 O.3   301  N1C301     -0.4371
@<TRIPOS>BOND
     1    11    10    1
     2    13    12    1
     3    13    10    1
     4    13    14    1
     5    12     7    1
     6    10     8    1
     7     9     8    1
     8    14    20    1
     9    14    15   am
    10     8     7    1
    11    16    15    2
    12     7     6    1
    13    20    21    1
    14    15    17    1
    15    21    22    2
    16    17    22    1
    17    17    18    2
    18     5     6    1
    19     5     2    1
    20    22    23    1
    21     4     2    2
    22    18    19    1
    23     1     2    1
    24    29    28    1
    25     2     3    1
    26    26    27    1
    27    26    28    1
    28    26    24    1
    29    23    19    1
    30    23    24    1
    31    28    30    2
    32    24    25    1
    33     3    33    1
    34    30    25    1
    35    30    31    1
    36    32    31    1
    37    32    33    1
    38    33    34    2
    39    33    35    1
