@<TRIPOS>MOLECULE
2pgn_TPP_A_1.pdb
 26 27 0 0 0
SMALL
GASTEIGER

@<TRIPOS>ATOM
      1  N1'       61.3240   32.6380   22.0000 N.2   614  TPP614     -0.1861
      2  C2'       60.8650   33.6080   22.8400 C.1   614  TPP614      0.0663
      3  CM2       61.0220   33.4530   24.3180 C.3   614  TPP614      0.1291
      4  N3'       60.3100   34.7610   22.4420 N.2   614  TPP614     -0.3368
      5  C4'       60.1440   34.9960   21.0980 C.2   614  TPP614      0.2292
      6  N4'       59.6510   36.1590   20.6730 N.pl3 614  TPP614     -0.0925
      7  C5'       60.5200   33.9530   20.1260 C.2   614  TPP614      0.0654
      8  C6'       61.0850   32.9010   20.7120 C.2   614  TPP614      0.1115
      9  C7'       60.3160   34.1670   18.6340 C.3   614  TPP614      0.1237
     10  N3        58.8940   34.0810   18.2290 N.pl3 614  TPP614     -0.2970
     11  C2        58.0210   35.1240   18.2050 C.3   614  TPP614      0.1543
     12  S1        56.5000   34.7130   17.6430 S.3   614  TPP614     -0.0951
     13  C5        56.9590   33.1010   17.3640 C.2   614  TPP614      0.0164
     14  C4        58.3370   32.8940   17.7720 C.2   614  TPP614      0.0279
     15  CM4       58.9840   31.5580   17.6480 C.3   614  TPP614      0.0473
     16  C6        56.0120   32.0580   16.8250 C.3   614  TPP614      0.0661
     17  C7        55.0940   31.5520   17.9340 C.3   614  TPP614      0.1544
     18  O7        54.3800   30.3990   17.4900 O.3   614  TPP614     -0.3134
     19  PA        52.8680   30.1910   17.8920 P.3   614  TPP614      0.2230
     20  O1A       52.5380   28.8050   17.4470 O.2   614  TPP614     -0.5169
     21  O2A       52.6150   30.5210   19.3520 O.3   614  TPP614     -0.4370
     22  O3A       52.0890   31.2510   17.0230 O.3   614  TPP614     -0.2261
     23  PB        51.7970   31.3690   15.3580 P.3   614  TPP614      0.5373
     24  O1B       52.9570   32.1580   14.8050 O.2   614  TPP614     -0.2221
     25  O2B       50.5100   32.1300   15.3550 O.3   614  TPP614     -0.1143
     26  O3B       51.7330   29.9270   14.8380 O.3   614  TPP614     -0.1143
@<TRIPOS>BOND
     1    24    23    2
     2    26    23    1
     3    25    23    1
     4    23    22    1
     5    16    13    1
     6    16    17    1
     7    22    19    1
     8    13    12    1
     9    13    14    2
    10    20    19    2
    11    18    19    1
    12    18    17    1
    13    12    11    1
    14    15    14    1
    15    14    10    1
    16    19    21    1
    17    11    10    1
    18    10     9    1
    19     9     7    1
    20     7     8    2
    21     7     5    1
    22     6     5    1
    23     8     1    1
    24     5     4    2
    25     1     2    2
    26     4     2    2
    27     2     3    1
