@<TRIPOS>MOLECULE
2pgo_TPP_A_1.pdb
 26 27 0 0 0
SMALL
GASTEIGER

@<TRIPOS>ATOM
      1  N1'       61.2140   32.7220   22.0690 N.2   614  TPP614     -0.1861
      2  C2'       60.7100   33.6770   22.9250 C.1   614  TPP614      0.0663
      3  CM2       60.8980   33.4860   24.3520 C.3   614  TPP614      0.1291
      4  N3'       60.0510   34.7430   22.5210 N.2   614  TPP614     -0.3368
      5  C4'       59.8720   34.9040   21.1930 C.2   614  TPP614      0.2292
      6  N4'       59.2690   36.0510   20.7890 N.pl3 614  TPP614     -0.0925
      7  C5'       60.3200   33.9220   20.2100 C.2   614  TPP614      0.0654
      8  C6'       61.0050   32.8540   20.7240 C.2   614  TPP614      0.1115
      9  C7'       60.1360   34.1040   18.7070 C.3   614  TPP614      0.1237
     10  N3        58.7390   33.9510   18.2270 N.pl3 614  TPP614     -0.2970
     11  C2        57.9450   34.9490   18.0270 C.3   614  TPP614      0.1543
     12  S1        56.4210   34.5790   17.3850 S.3   614  TPP614     -0.0951
     13  C5        56.8610   32.9140   17.4440 C.2   614  TPP614      0.0164
     14  C4        58.1210   32.7670   17.9070 C.2   614  TPP614      0.0279
     15  CM4       58.8550   31.4460   17.9560 C.3   614  TPP614      0.0473
     16  C6        55.8380   31.9240   16.9950 C.3   614  TPP614      0.0661
     17  C7        55.0140   31.3990   18.1420 C.3   614  TPP614      0.1544
     18  O7        54.2710   30.2070   17.7170 O.3   614  TPP614     -0.3134
     19  PA        52.7360   30.0670   18.1120 P.3   614  TPP614      0.2230
     20  O1A       52.3430   28.6720   17.6850 O.2   614  TPP614     -0.5169
     21  O2A       52.4840   30.4460   19.5310 O.3   614  TPP614     -0.4370
     22  O3A       52.0110   31.1460   17.1830 O.3   614  TPP614     -0.2261
     23  PB        51.6940   31.1990   15.5600 P.3   614  TPP614      0.5373
     24  O1B       52.8110   31.9970   14.9010 O.2   614  TPP614     -0.2221
     25  O2B       50.3670   31.9400   15.5540 O.3   614  TPP614     -0.1143
     26  O3B       51.6240   29.7490   15.0760 O.3   614  TPP614     -0.1143
@<TRIPOS>BOND
     1    24    23    2
     2    26    23    1
     3    25    23    1
     4    23    22    1
     5    16    13    1
     6    16    17    1
     7    22    19    1
     8    12    13    1
     9    12    11    1
    10    13    14    2
    11    20    19    2
    12    18    19    1
    13    18    17    1
    14    14    15    1
    15    14    10    1
    16    11    10    1
    17    19    21    1
    18    10     9    1
    19     9     7    1
    20     7     8    2
    21     7     5    1
    22     8     1    1
    23     6     5    1
    24     5     4    2
    25     1     2    2
    26     4     2    2
    27     2     3    1
