@<TRIPOS>MOLECULE
2pgq_0G6_B_1.pdb
 30 31 0 0 0
SMALL
GASTEIGER

@<TRIPOS>ATOM
      1  N        140.1810   69.1980  -20.3580 N.3   301  0G6301     -0.1228
      2  CA       140.0710   68.8770  -21.8120 C.3   301  0G6301      0.1721
      3  C        139.0970   69.7570  -22.5630 C.2   301  0G6301      0.2437
      4  O        139.0240   70.9370  -22.4610 O.2   301  0G6301     -0.2733
      5  CB       141.5190   68.7520  -22.4690 C.3   301  0G6301      0.0547
      6  CG       141.4870   68.1480  -23.8940 C.ar  301  0G6301     -0.0202
      7  CD1      141.1430   66.7960  -24.1510 C.ar  301  0G6301     -0.0042
      8  CD2      141.6460   69.0030  -24.9750 C.ar  301  0G6301     -0.0042
      9  CE1      141.2010   66.2870  -25.4590 C.ar  301  0G6301     -0.0003
     10  CE2      141.7160   68.5100  -26.2740 C.ar  301  0G6301     -0.0003
     11  CZ       141.3980   67.1650  -26.5380 C.ar  301  0G6301     -0.0000
     12  N1       138.1370   69.0130  -23.2270 N.am  301  0G6301     -0.2718
     13  CA1      137.0690   69.7480  -23.9390 C.3   301  0G6301      0.1535
     14  C1       136.2110   70.5880  -23.0420 C.2   301  0G6301      0.2595
     15  O1       135.8860   70.1610  -21.8910 O.2   301  0G6301     -0.2716
     16  CB1      136.2000   68.6390  -24.5540 C.3   301  0G6301      0.0310
     17  CG1      137.1390   67.3910  -24.6020 C.3   301  0G6301      0.0237
     18  CD       137.8970   67.5500  -23.2830 C.3   301  0G6301      0.0939
     19  N2       135.7650   71.7480  -23.5470 N.am  301  0G6301     -0.2032
     20  CA2      134.8230   72.5870  -22.7770 C.3   301  0G6301      0.1257
     21  C2       133.3940   72.6190  -23.4050 C.3   301  0G6301      0.1718
     22  O2       132.3940   72.9140  -22.7130 O.3   301  0G6301     -0.2213
     23  CB2      135.3690   73.9920  -22.6270 C.3   301  0G6301      0.0280
     24  CG2      136.4760   74.0390  -21.5820 C.3   301  0G6301      0.0488
     25  CD3      137.2150   75.3580  -21.6250 C.3   301  0G6301      0.2205
     26  NE       138.1480   75.4340  -20.5010 N.pl3 301  0G6301     -0.0865
     27  CZ1      138.9100   76.4850  -20.2270 C.cat 301  0G6301      0.5346
     28  NH1      138.8370   77.5920  -20.9800 N.pl3 301  0G6301      0.1354
     29  NH2      139.6600   76.4770  -19.1270 N.pl3 301  0G6301      0.1354
     30  C3       132.8540   71.1750  -24.2610 C.3   301  0G6301      0.0373
@<TRIPOS>BOND
     1    11    10   ar
     2    11     9   ar
     3    10     8   ar
     4     9     7   ar
     5     8     6   ar
     6    17    16    1
     7    17    18    1
     8    16    13    1
     9    30    21    1
    10     7     6   ar
    11    13    12    1
    12    13    14    1
    13     6     5    1
    14    19    14   am
    15    19    20    1
    16    21    20    1
    17    21    22    1
    18    18    12    1
    19    12     3   am
    20    14    15    2
    21    20    23    1
    22    23    24    1
    23     3     4    2
    24     3     2    1
    25     5     2    1
    26     2     1    1
    27    25    24    1
    28    25    26    1
    29    28    27    1
    30    26    27    2
    31    27    29    1
