@<TRIPOS>MOLECULE
2pgr_DCF_A_1.pdb
 19 21 0 0 0
SMALL
GASTEIGER

@<TRIPOS>ATOM
      1  N1        27.8590   22.2110   37.5320 N.2   501  DCF501     -0.2181
      2  C2        29.1910   22.2250   37.4820 C.3   501  DCF501      0.3372
      3  N3        29.6330   23.4800   37.5310 N.pl3 501  DCF501     -0.1462
      4  C9        27.4450   23.4640   37.6110 C.2   501  DCF501      0.1720
      5  C10       28.5620   24.2690   37.6190 C.2   501  DCF501      0.3449
      6  N4        28.6080   25.5900   37.6560 N.2   501  DCF501     -0.0132
      7  C5        27.6640   26.4140   38.0680 C.2   501  DCF501      0.3344
      8  N6        26.4700   26.1610   38.5660 N.2   501  DCF501     -0.2226
      9  C7        25.8050   24.8700   38.8350 C.3   501  DCF501      0.1687
     10  C8        25.9780   23.8670   37.6970 C.3   501  DCF501      0.2229
     11  O8        25.5380   24.4390   36.4650 O.3   501  DCF501     -0.2142
     12  C2S       31.8770   23.2440   38.6290 C.3   501  DCF501      0.1151
     13  C3S       33.2550   23.0770   38.0090 C.3   501  DCF501      0.1884
     14  O3S       33.9720   24.3200   38.0870 O.3   501  DCF501     -0.2202
     15  O5S       32.3100   21.0290   34.9480 O.3   501  DCF501     -0.2176
     16  C5S       32.8580   21.2420   36.2610 C.3   501  DCF501      0.2142
     17  C4S       32.9320   22.7540   36.5460 C.3   501  DCF501      0.1824
     18  O4S       31.6240   23.3420   36.2640 O.3   501  DCF501     -0.3154
     19  C1S       31.0680   23.8790   37.4860 C.3   501  DCF501      0.2874
@<TRIPOS>BOND
     1    15    16    1
     2    16    17    1
     3    18    17    1
     4    18    19    1
     5    11    10    1
     6    17    13    1
     7     2     3    1
     8     2     1    1
     9    19     3    1
    10    19    12    1
    11     3     5    1
    12     1     4    2
    13     4     5    1
    14     4    10    1
    15     5     6    2
    16     6     7    1
    17    10     9    1
    18    13    14    1
    19    13    12    1
    20     7     8    2
    21     8     9    1
