@<TRIPOS>MOLECULE
2pgt_EPE_A_1.pdb
 15 15 0 0 0
SMALL
GASTEIGER

@<TRIPOS>ATOM
      1  N1        10.5800  -20.3350   -0.3570 N.3   212  EPE212     -0.2689
      2  C2        10.6730  -21.1500   -1.6330 C.3   212  EPE212      0.0897
      3  C3        11.8980  -20.5980   -2.4290 C.3   212  EPE212      0.0897
      4  N4        11.8310  -19.1040   -2.5180 N.3   212  EPE212     -0.2681
      5  C5        11.6140  -18.3070   -1.2690 C.3   212  EPE212      0.0897
      6  C6        10.3230  -18.8590   -0.5700 C.3   212  EPE212      0.0897
      7  C7        12.9830  -18.5790   -3.3070 C.3   212  EPE212      0.1081
      8  C8        12.4870  -17.6190   -4.4460 C.3   212  EPE212      0.1993
      9  O8        13.5560  -16.8680   -4.9540 O.3   212  EPE212     -0.2189
     10  C9         9.7820  -20.9420    0.7000 C.3   212  EPE212      0.0939
     11  C10        8.5210  -21.7930    0.5490 C.3   212  EPE212      0.1225
     12  S          7.9900  -22.1730    2.2370 S.3   212  EPE212     -0.1946
     13  O1S        8.5490  -23.4500    2.7380 O.3   212  EPE212     -0.3074
     14  O2S        6.5740  -21.8560    2.3740 O.3   212  EPE212     -0.3074
     15  O3S        8.8440  -21.0140    3.1290 O.3   212  EPE212     -0.3074
@<TRIPOS>BOND
     1     9     8    1
     2     8     7    1
     3     7     4    1
     4     4     3    1
     5     4     5    1
     6     3     2    1
     7     2     1    1
     8     5     6    1
     9     6     1    1
    10     1    10    1
    11    11    10    1
    12    11    12    1
    13    12    14    1
    14    12    13    1
    15    12    15    1
