@<TRIPOS>MOLECULE
2pgt_GPR_A_1.pdb
 35 37 0 0 0
SMALL
GASTEIGER

@<TRIPOS>ATOM
      1  N1        19.8370   -1.5660   10.6840 N.3   211  GPR211     -0.1208
      2  CA1       19.9150   -2.5530    9.5100 C.3   211  GPR211      0.1948
      3  C1        18.7480   -3.5220    9.4900 C.2   211  GPR211      0.3819
      4  O11       18.0560   -3.8210    8.4810 O.co2 211  GPR211     -0.2441
      5  O12       18.3170   -3.9020   10.7180 O.co2 211  GPR211     -0.2441
      6  CB1       21.2550   -3.3230    9.5580 C.3   211  GPR211      0.0402
      7  CG1       21.5580   -3.9020    8.2200 C.3   211  GPR211      0.0889
      8  CD1       22.8870   -4.5180    8.0690 C.2   211  GPR211      0.2418
      9  OE1       23.6260   -4.4720    9.0920 O.2   211  GPR211     -0.2733
     10  N2        23.2160   -5.0340    6.8820 N.am  211  GPR211     -0.1969
     11  CA2       24.5300   -5.6680    6.6220 C.3   211  GPR211      0.1834
     12  C2        25.1010   -5.0250    5.3110 C.2   211  GPR211      0.2626
     13  O2        24.3080   -4.6170    4.4940 O.2   211  GPR211     -0.2714
     14  CB2       24.4160   -7.2070    6.4160 C.3   211  GPR211      0.0890
     15  SG2       23.5910   -8.0220    7.7610 S.3   211  GPR211     -0.1314
     16  N3        26.3730   -4.9800    5.1670 N.am  211  GPR211     -0.1917
     17  CA3       26.9160   -4.6080    3.8360 C.3   211  GPR211      0.2285
     18  C3        27.4090   -3.2140    3.8630 C.2   211  GPR211      0.3865
     19  O31       28.1800   -2.6620    3.0470 O.co2 211  GPR211     -0.2437
     20  O32       27.0410   -2.4350    4.8860 O.co2 211  GPR211     -0.2437
     21  CA4       24.9880   -8.8000    8.2340 C.3   211  GPR211      0.1044
     22  CB4       26.2460   -8.0400    8.4540 C.ar  211  GPR211     -0.0097
     23  CG4       26.3840   -7.2340    9.6270 C.ar  211  GPR211     -0.0034
     24  CD4       27.5390   -6.5280    9.8400 C.ar  211  GPR211     -0.0003
     25  CE4       28.5990   -6.6360    8.9130 C.ar  211  GPR211     -0.0000
     26  CZ4       28.5200   -7.4510    7.7740 C.ar  211  GPR211     -0.0003
     27  CH4       27.3090   -8.1120    7.5070 C.ar  211  GPR211     -0.0033
     28  CH5       27.1480   -9.0270    6.3200 C.ar  211  GPR211     -0.0018
     29  CZ5       27.9850   -8.9000    5.1670 C.ar  211  GPR211     -0.0002
     30  CE5       27.8270   -9.8230    4.1240 C.ar  211  GPR211     -0.0000
     31  CD5       26.8640  -10.8280    4.1860 C.ar  211  GPR211     -0.0002
     32  CG5       26.0170  -10.9190    5.2970 C.ar  211  GPR211     -0.0018
     33  CB5       26.1760  -10.0040    6.3330 C.ar  211  GPR211      0.0089
     34  CA5       25.2210  -10.1400    7.5270 C.3   211  GPR211      0.1881
     35  O5        26.0350  -10.9820    8.4120 O.3   211  GPR211     -0.2170
@<TRIPOS>BOND
     1    19    18   ar
     2    17    18    1
     3    17    16    1
     4    18    20   ar
     5    30    31   ar
     6    30    29   ar
     7    31    32   ar
     8    13    12    2
     9    29    28   ar
    10    16    12   am
    11    32    33   ar
    12    12    11    1
    13    28    33   ar
    14    28    27    1
    15    33    34    1
    16    14    11    1
    17    14    15    1
    18    11    10    1
    19    10     8   am
    20    27    26   ar
    21    27    22   ar
    22    34    21    1
    23    34    35    1
    24    15    21    1
    25    26    25   ar
    26     8     7    1
    27     8     9    2
    28     7     6    1
    29    21    22    1
    30    22    23   ar
    31     4     3   ar
    32    25    24   ar
    33     3     2    1
    34     3     5   ar
    35     2     6    1
    36     2     1    1
    37    23    24   ar
