@<TRIPOS>MOLECULE
2pgz_COC_A_1.pdb
 22 24 0 0 0
SMALL
GASTEIGER

@<TRIPOS>ATOM
      1  C1       -10.1970   19.6950   59.8270 C.3   401  COC401      0.2556
      2  O5       -10.0460   19.6920   61.2510 O.3   401  COC401     -0.4443
      3  C6       -11.1460   20.0610   62.0940 C.2   401  COC401      0.3215
      4  O7       -12.1900   20.4570   61.5530 O.2   401  COC401     -0.2499
      5  C8       -10.9530   19.9740   63.5840 C.3   401  COC401      0.1535
      6  C10      -11.8090   18.8400   64.1840 C.3   401  COC401      0.0716
      7  N12      -13.1920   19.2620   64.2010 N.3   401  COC401     -0.2733
      8  C14      -14.2670   18.3950   63.7470 C.3   401  COC401      0.0896
      9  C18      -11.7340   18.8160   65.7220 C.3   401  COC401      0.0180
     10  C21      -12.7430   19.8540   66.2540 C.3   401  COC401      0.0175
     11  C24      -13.4590   20.4290   65.0160 C.3   401  COC401      0.0612
     12  C26      -12.7230   21.6400   64.4100 C.3   401  COC401      0.0602
     13  C29      -11.2220   21.3460   64.2150 C.3   401  COC401      0.1823
     14  O1       -10.6710   22.2890   63.3320 O.3   401  COC401     -0.4485
     15  C2        -9.9120   23.3200   63.9810 C.2   401  COC401      0.3411
     16  O3        -9.7320   23.2940   65.1880 O.2   401  COC401     -0.2449
     17  C4        -9.4450   24.4380   63.1070 C.ar  401  COC401      0.0756
     18  C5        -8.5990   25.4320   63.5990 C.ar  401  COC401      0.0064
     19  C7        -8.2190   26.4610   62.7490 C.ar  401  COC401      0.0002
     20  C9        -8.6730   26.5090   61.4290 C.ar  401  COC401      0.0000
     21  C11       -9.5300   25.5310   60.9420 C.ar  401  COC401      0.0002
     22  C13       -9.9130   24.4880   61.7880 C.ar  401  COC401      0.0064
@<TRIPOS>BOND
     1     1     2    1
     2    21    20   ar
     3    21    22   ar
     4     2     3    1
     5    20    19   ar
     6     4     3    2
     7    22    17   ar
     8     3     5    1
     9    19    18   ar
    10    17    18   ar
    11    17    15    1
    12    14    15    1
    13    14    13    1
    14     5     6    1
    15     5    13    1
    16     8     7    1
    17    15    16    2
    18     6     7    1
    19     6     9    1
    20     7    11    1
    21    13    12    1
    22    12    11    1
    23    11    10    1
    24     9    10    1
