@<TRIPOS>MOLECULE
2ph5_NAD_A_1.pdb
 44 48 0 0 0
SMALL
GASTEIGER

@<TRIPOS>ATOM
      1  PA       -29.2610   88.5530   35.8460 P.3   501  NAD501      0.2189
      2  O1A      -30.0350   89.4850   36.7380 O.3   501  NAD501     -0.4371
      3  O2A      -30.0050   87.4610   35.1600 O.2   501  NAD501     -0.5170
      4  O5B      -28.0300   87.8770   36.6570 O.3   501  NAD501     -0.3112
      5  C5B      -27.1700   88.6770   37.4640 C.3   501  NAD501      0.1813
      6  C4B      -26.5560   87.7770   38.5530 C.3   501  NAD501      0.1821
      7  O4B      -25.7520   88.6220   39.3470 O.3   501  NAD501     -0.3135
      8  C3B      -27.5760   87.1150   39.4850 C.3   501  NAD501      0.2184
      9  O3B      -27.3800   85.6990   39.5090 O.3   501  NAD501     -0.2174
     10  C2B      -27.3180   87.7450   40.8250 C.3   501  NAD501      0.2570
     11  O2B      -27.5610   86.9150   41.9380 O.3   501  NAD501     -0.2130
     12  C1B      -25.8790   88.2490   40.7040 C.3   501  NAD501      0.3186
     13  N9A      -25.5480   89.4310   41.5090 N.pl3 501  NAD501     -0.1439
     14  C8A      -26.4630   90.4450   41.8420 C.3   501  NAD501      0.3377
     15  N7A      -26.2440   90.9210   43.0840 N.2   501  NAD501     -0.2095
     16  C5A      -25.2000   90.2190   43.5810 C.2   501  NAD501      0.2526
     17  C6A      -24.5410   90.2870   44.8080 C.2   501  NAD501      0.4393
     18  N6A      -24.8590   91.1490   45.7750 N.pl3 501  NAD501      0.2180
     19  N1A      -23.4900   89.4030   45.0080 N.2   501  NAD501      0.0021
     20  C2A      -23.0990   88.4880   44.0510 C.3   501  NAD501      0.5254
     21  N3A      -23.7280   88.4080   42.8310 N.2   501  NAD501     -0.0055
     22  C4A      -24.7610   89.2790   42.6340 C.2   501  NAD501      0.3518
     23  O3       -28.6250   89.4860   34.7380 O.3   501  NAD501     -0.2703
     24  PN       -27.6190   89.2130   33.5180 P.3   501  NAD501      0.2189
     25  O1N      -28.2040   89.8610   32.3200 O.2   501  NAD501     -0.5170
     26  O2N      -27.3230   87.7370   33.4800 O.3   501  NAD501     -0.4371
     27  O5D      -26.4520   90.0740   34.1560 O.3   501  NAD501     -0.3112
     28  C5D      -25.1930   90.3190   33.5810 C.3   501  NAD501      0.1813
     29  C4D      -25.3060   91.6960   32.9610 C.3   501  NAD501      0.1799
     30  O4D      -24.9230   91.6220   31.6140 O.3   501  NAD501     -0.3327
     31  C3D      -25.7520   93.1170   33.2370 C.3   501  NAD501      0.2158
     32  O3D      -24.7290   93.8750   33.8630 O.3   501  NAD501     -0.2175
     33  C2D      -26.0930   93.6110   31.8420 C.3   501  NAD501      0.2309
     34  O2D      -26.0600   95.0040   31.7160 O.3   501  NAD501     -0.2158
     35  C1D      -25.0950   92.8670   30.9630 C.3   501  NAD501      0.2263
     36  N1N      -25.5470   92.5050   29.5990 N.pl3 501  NAD501     -0.2787
     37  C2N      -24.8620   92.9650   28.4970 C.3   501  NAD501      0.1244
     38  C3N      -25.3210   92.5700   27.2220 C.2   501  NAD501      0.0544
     39  C7N      -24.6350   93.0060   25.9740 C.2   501  NAD501      0.2818
     40  O7N      -25.1470   92.5550   24.7840 O.2   501  NAD501     -0.2670
     41  N7N      -23.5630   93.7700   25.9760 N.am  501  NAD501     -0.0839
     42  C4N      -26.4630   91.7190   27.0750 C.2   501  NAD501      0.0033
     43  C5N      -27.1370   91.2750   28.2320 C.2   501  NAD501      0.0157
     44  C6N      -26.6940   91.6540   29.4850 C.2   501  NAD501      0.0633
@<TRIPOS>BOND
     1    40    39    2
     2    39    41   am
     3    39    38    1
     4    42    38    2
     5    42    43    1
     6    38    37    1
     7    43    44    2
     8    37    36    1
     9    44    36    1
    10    36    35    1
    11    35    30    1
    12    35    33    1
    13    30    29    1
    14    34    33    1
    15    33    31    1
    16    25    24    2
    17    29    31    1
    18    29    28    1
    19    31    32    1
    20    26    24    1
    21    24    27    1
    22    24    23    1
    23    28    27    1
    24    23     1    1
    25     3     1    2
    26     1     4    1
    27     1     2    1
    28     4     5    1
    29     5     6    1
    30     6     7    1
    31     6     8    1
    32     7    12    1
    33     8     9    1
    34     8    10    1
    35    12    10    1
    36    12    13    1
    37    10    11    1
    38    13    14    1
    39    13    22    1
    40    14    15    1
    41    22    21    2
    42    22    16    1
    43    21    20    1
    44    15    16    2
    45    16    17    1
    46    20    19    1
    47    17    19    2
    48    17    18    1
