@<TRIPOS>MOLECULE
2ph6_712_A_1.pdb
 38 40 0 0 0
SMALL
GASTEIGER

@<TRIPOS>ATOM
      1  C         31.0490   37.5600    2.4680 C.3   401  712401      0.1697
      2  N         30.9790   38.3830    3.7150 N.3   401  712401     -0.1227
      3  C1        30.0370   38.0530    1.4510 C.2   401  712401      0.3333
      4  O         29.7700   39.3470    1.6340 O.3   401  712401     -0.4425
      5  O2        29.6890   37.4030    0.4750 O.2   401  712401     -0.2485
      6  C3        30.6300   36.1510    2.9050 C.3   401  712401      0.0308
      7  C4        32.4580   37.6230    1.8490 C.3   401  712401      0.0548
      8  C5        32.9990   38.9670    1.3980 C.ar  401  712401     -0.0202
      9  C6        33.7240   39.7720    2.2770 C.ar  401  712401     -0.0042
     10  C7        33.9920   41.4690    0.5720 C.ar  401  712401     -0.0000
     11  C8        33.2620   40.6680   -0.3130 C.ar  401  712401     -0.0003
     12  C9        34.2200   41.0170    1.8740 C.ar  401  712401     -0.0003
     13  C10       32.7730   39.4250    0.0980 C.ar  401  712401     -0.0042
     14  C11       28.4770   44.2060    0.9870 C.ar  401  712401      0.0207
     15  C12       29.6870   43.6240    1.4080 C.ar  401  712401      0.0561
     16  C13       29.8630   42.2310    1.3270 C.ar  401  712401      0.0040
     17  C14       28.8240   41.4310    0.8380 C.ar  401  712401      0.0227
     18  C15       27.6390   42.0270    0.4340 C.ar  401  712401      0.0154
     19  C16       27.4410   43.3970    0.4940 C.ar  401  712401      0.0685
     20  N17       26.2370   43.8610    0.0710 N.pl3 401  712401     -0.1925
     21  C18       30.7580   44.5390    1.9230 C.2   401  712401      0.2651
     22  N19       31.4770   44.0530    2.9480 N.am  401  712401     -0.1989
     23  O20       30.9440   45.6330    1.3780 O.2   401  712401     -0.2684
     24  S         25.3650   44.9530    1.0160 S.O2  401  712401      0.0588
     25  C21       25.7200   46.4950    0.3630 C.3   401  712401      0.1999
     26  O22       25.9870   44.8720    2.5750 O.2   401  712401     -0.1542
     27  O23       23.7320   44.6620    0.7530 O.2   401  712401     -0.1542
     28  C24       25.6280   43.3780   -1.1780 C.3   401  712401      0.1388
     29  C25       32.5530   44.7780    3.5960 C.3   401  712401      0.1178
     30  C26       32.1110   45.3510    4.9220 C.ar  401  712401     -0.0024
     31  C27       31.7390   44.4960    5.9720 C.ar  401  712401     -0.0003
     32  C28       31.3290   46.3860    7.3800 C.ar  401  712401      0.1401
     33  C29       31.6810   47.2490    6.3470 C.ar  401  712401      0.0294
     34  C30       31.3460   45.0050    7.2110 C.ar  401  712401      0.0294
     35  C31       32.0790   46.7320    5.1210 C.ar  401  712401     -0.0003
     36  C32       33.8360   43.9330    3.7060 C.3   401  712401      0.0283
     37  F         30.9570   46.9100    8.5590 F     401  712401     -0.2042
     38  C33       28.8840   39.9350    0.6670 C.3   401  712401      0.2351
@<TRIPOS>BOND
     1    28    20    1
     2    11    13   ar
     3    11    10   ar
     4    20    19    1
     5    20    24    1
     6    13     8   ar
     7    25    24    1
     8    18    19   ar
     9    18    17   ar
    10     5     3    2
    11    19    14   ar
    12    10    12   ar
    13    38    17    1
    14    38     4    1
    15    27    24    2
    16    17    16   ar
    17    14    15   ar
    18    24    26    2
    19    16    15   ar
    20    23    21    2
    21     8     7    1
    22     8     9   ar
    23    15    21    1
    24     3     4    1
    25     3     1    1
    26     7     1    1
    27    12     9   ar
    28    21    22   am
    29     1     6    1
    30     1     2    1
    31    22    29    1
    32    29    36    1
    33    29    30    1
    34    30    35   ar
    35    30    31   ar
    36    35    33   ar
    37    31    34   ar
    38    33    32   ar
    39    34    32   ar
    40    32    37    1
