@<TRIPOS>MOLECULE
2ph8_35A_A_1.pdb
 32 34 0 0 0
SMALL
GASTEIGER

@<TRIPOS>ATOM
      1  C         28.6480   41.9880    0.6210 C.2   388  35A388      0.0097
      2  C1        29.8060   42.9190    0.7930 C.3   388  35A388      0.0801
      3  C2        33.3860   41.3570   -0.4010 C.ar  388  35A388     -0.0006
      4  C3        32.9880   39.9990    0.0830 C.ar  388  35A388     -0.0042
      5  O         29.6800   39.8810    1.5750 O.3   388  35A388     -0.4429
      6  C4        28.7290   40.4780    0.6530 C.3   388  35A388      0.2314
      7  C5        32.9350   39.7370    1.3860 C.ar  388  35A388     -0.0205
      8  C6        32.5530   38.3690    1.8910 C.3   388  35A388      0.0548
      9  C7        31.1140   38.1670    2.3560 C.3   388  35A388      0.1697
     10  C8        33.6880   42.3190    0.4660 C.ar  388  35A388     -0.0043
     11  C9        33.6230   42.0430    1.9360 C.ar  388  35A388     -0.0225
     12  C10       33.2740   40.8310    2.3430 C.ar  388  35A388     -0.0085
     13  C11       31.0910   45.6780    2.2900 C.3   388  35A388      0.0071
     14  C12       31.8070   44.6160    3.1390 C.3   388  35A388      0.0007
     15  C13       33.2830   44.4680    2.7270 C.3   388  35A388      0.0047
     16  C14       33.9680   43.1170    2.9620 C.3   388  35A388      0.0263
     17  C15       29.6050   44.2420    0.7230 C.2   388  35A388      0.0925
     18  C16       30.7470   45.2320    0.8780 C.3   388  35A388      0.0548
     19  N         28.3820   44.7920    0.4910 N.2   388  35A388     -0.3938
     20  C17       27.4610   42.5320    0.3930 C.2   388  35A388      0.0446
     21  C18       27.3630   44.0120    0.3530 C.2   388  35A388      0.2003
     22  N19       26.1320   44.5290    0.0920 N.pl3 388  35A388     -0.1660
     23  S         25.4760   45.6950    1.1270 S.O2  388  35A388      0.0607
     24  C20       25.9950   47.2230    0.5280 C.3   388  35A388      0.1999
     25  O21       23.8160   45.6250    0.9680 O.2   388  35A388     -0.1542
     26  O22       26.1120   45.5140    2.6530 O.2   388  35A388     -0.1542
     27  C23       25.6970   44.5070   -1.3130 C.3   388  35A388      0.1415
     28  C24       31.6490   44.9280    4.6290 C.3   388  35A388      0.0000
     29  C25       30.1830   38.6610    1.2800 C.2   388  35A388      0.3332
     30  O26       30.0050   38.0210    0.2570 O.2   388  35A388     -0.2485
     31  C27       30.8590   36.6700    2.6030 C.3   388  35A388      0.0308
     32  N28       30.8490   38.8790    3.6430 N.3   388  35A388     -0.1227
@<TRIPOS>BOND
     1    27    22    1
     2     3     4   ar
     3     3    10   ar
     4     4     7   ar
     5    22    21    1
     6    22    23    1
     7    30    29    2
     8    21    20    1
     9    21    19    2
    10    20     1    2
    11    10    11   ar
    12    19    17    2
    13    24    23    1
    14     1     6    1
    15     1     2    1
    16     6     5    1
    17    17     2    1
    18    17    18    1
    19    18    13    1
    20    25    23    2
    21    23    26    2
    22    29     5    1
    23    29     9    1
    24     7     8    1
    25     7    12   ar
    26     8     9    1
    27    11    12   ar
    28    11    16    1
    29    13    14    1
    30     9    31    1
    31     9    32    1
    32    15    16    1
    33    15    14    1
    34    14    28    1
