@<TRIPOS>MOLECULE
2ph9_GNT_A_1.pdb
 21 24 0 0 0
SMALL
GASTEIGER

@<TRIPOS>ATOM
      1  C1         6.3140   37.9710   -8.0020 C.2   301  GNT301     -0.0211
      2  C2         5.8590   39.1680   -8.3800 C.2   301  GNT301      0.0021
      3  C3         4.8680   39.3640   -9.5210 C.3   301  GNT301      0.1773
      4  C4         4.8830   38.1940  -10.5010 C.3   301  GNT301      0.0816
      5  C41        4.7920   36.8620   -9.7510 C.3   301  GNT301      0.1762
      6  C42        5.8740   36.6420   -8.6330 C.3   301  GNT301      0.0780
      7  O5         3.4910   36.7070   -9.1420 O.3   301  GNT301     -0.4757
      8  C6         2.6650   35.5210   -7.0120 C.ar  301  GNT301      0.1721
      9  C7         3.0860   34.9210   -5.8240 C.ar  301  GNT301      0.0397
     10  C8         4.4410   34.8210   -5.4770 C.ar  301  GNT301      0.0001
     11  C9         6.9050   35.2140   -5.8770 C.3   301  GNT301      0.0990
     12  N10        7.5300   34.5420   -7.0290 N.3   301  GNT301     -0.2677
     13  C11        8.1100   35.4970   -8.0000 C.3   301  GNT301      0.0732
     14  C12        7.0670   35.7650   -9.0970 C.3   301  GNT301      0.0290
     15  C13        3.6570   36.0870   -7.9330 C.ar  301  GNT301      0.1682
     16  C14        5.0620   35.9800   -7.5710 C.ar  301  GNT301      0.0187
     17  C15        5.4580   35.3410   -6.2820 C.ar  301  GNT301     -0.0066
     18  C16        0.6040   36.6660   -6.7040 C.3   301  GNT301      0.2526
     19  O17        1.3580   35.6290   -7.3370 O.3   301  GNT301     -0.4684
     20  O18        3.5390   39.5230   -9.0190 O.3   301  GNT301     -0.2182
     21  C19        8.5600   33.6220   -6.5560 C.3   301  GNT301      0.0899
@<TRIPOS>BOND
     1     4     5    1
     2     4     3    1
     3     5     7    1
     4     5     6    1
     5     3    20    1
     6     3     2    1
     7     7    15    1
     8    14     6    1
     9    14    13    1
    10     6     1    1
    11     6    16    1
    12     2     1    2
    13    13    12    1
    14    15    16   ar
    15    15     8   ar
    16    16    17   ar
    17    19     8    1
    18    19    18    1
    19    12    21    1
    20    12    11    1
    21     8     9   ar
    22    17    11    1
    23    17    10   ar
    24     9    10   ar
