@<TRIPOS>MOLECULE
2phb_230_A_1.pdb
 34 37 0 0 0
SMALL
GASTEIGER

@<TRIPOS>ATOM
      1  N1         6.5270    6.1360   21.5750 N.am  9001  2309001    -0.1755
      2  N3         8.3000    2.0760   18.0270 N.ar  9001  2309001    -0.2731
      3  C4         6.9730    5.1760   20.6890 C.ar  9001  2309001     0.1009
      4  C5         6.6390    3.7850   20.9350 C.ar  9001  2309001     0.1568
      5  C6         7.0670    2.7360   20.0680 C.ar  9001  2309001     0.0486
      6  C7         5.6440    7.1310   21.3250 C.2   9001  2309001     0.2638
      7  C8        12.1040    7.6850   26.2630 C.ar  9001  2309001     0.0578
      8  C10       10.3780    8.5550   24.7690 C.ar  9001  2309001     0.0175
      9  C13       11.1180    6.9580   27.0330 C.ar  9001  2309001     0.0127
     10  C15        7.6030    1.7700   16.8190 C.ar  9001  2309001     0.2648
     11  C17        9.3290    0.0260   16.3210 C.ar  9001  2309001     0.0064
     12  C20        3.8860    7.6070   22.8710 C.3   9001  2309001     0.0606
     13  C21        5.3210    8.0630   22.5350 C.3   9001  2309001     0.1577
     14  C22        5.2100    7.2410   24.8960 C.3   9001  2309001     0.1249
     15  C24        3.0660    4.7630   24.0100 C.3   9001  2309001     0.1741
     16  C1         7.8580    3.0660   18.9030 C.ar  9001  2309001     0.0692
     17  C2         8.1970    4.4510   18.6440 C.ar  9001  2309001     0.0191
     18  C3         7.7650    5.4950   19.5180 C.ar  9001  2309001     0.0204
     19  F1         5.9080    3.4560   22.0070 F     9001  2309001    -0.2027
     20  O1         5.1000    7.3310   20.2510 O.2   9001  2309001    -0.2712
     21  C9        11.7420    8.4750   25.1490 C.ar  9001  2309001     0.0127
     22  C11        9.3380    7.8270   25.5160 C.ar  9001  2309001     0.0750
     23  C12        9.7310    7.0390   26.6460 C.ar  9001  2309001     0.0175
     24 CL1        13.7600    7.5970   26.6860 Cl    9001  2309001    -0.0822
     25  N2         7.9800    7.8340   25.2050 N.am  9001  2309001    -0.1622
     26  C14        9.5730    1.3240   18.4090 C.ar  9001  2309001     0.0829
     27  C16        8.1680    0.6820   15.9360 C.ar  9001  2309001     0.0611
     28  C18       10.0650    0.3390   17.5860 C.ar  9001  2309001     0.0192
     29  O2         6.5680    2.3200   16.4220 O.2   9001  2309001    -0.2666
     30  C19        3.8250    7.0970   24.3170 C.3   9001  2309001     0.1373
     31  N4         6.0320    7.8010   23.8250 N.am  9001  2309001    -0.2532
     32  O3         3.6140    5.7110   24.1050 O.3   9001  2309001    -0.3518
     33  C23        7.3900    8.0910   23.9660 C.2   9001  2309001     0.3279
     34  O4         8.0160    8.5670   23.0010 O.2   9001  2309001    -0.2504
@<TRIPOS>BOND
     1    27    11   ar
     2    27    10   ar
     3    11    28   ar
     4    29    10    2
     5    10     2   ar
     6    28    26   ar
     7     2    26   ar
     8     2    16    1
     9    17    16   ar
    10    17    18   ar
    11    16     5   ar
    12    18     3   ar
    13     5     4   ar
    14    20     6    2
    15     3     4   ar
    16     3     1    1
    17     4    19    1
    18     6     1   am
    19     6    13    1
    20    13    12    1
    21    13    31    1
    22    12    30    1
    23    34    33    2
    24    31    33   am
    25    31    14    1
    26    33    25   am
    27    15    32    1
    28    32    30    1
    29    30    14    1
    30     8    21   ar
    31     8    22   ar
    32    21     7   ar
    33    25    22    1
    34    22    23   ar
    35     7    24    1
    36     7     9   ar
    37    23     9   ar
