@<TRIPOS>MOLECULE
2phf_BMA_B_1.pdb
 12 12 0 0 0
SMALL
GASTEIGER

@<TRIPOS>ATOM
      1  C1        -3.5700  -18.5490  -23.6630 C.3   256  BMA256      0.3024
      2  C2        -4.9720  -18.0580  -23.2490 C.3   256  BMA256      0.2434
      3  C3        -4.9260  -16.5910  -22.7840 C.3   256  BMA256      0.2199
      4  C4        -3.8750  -16.4380  -21.6820 C.3   256  BMA256      0.2144
      5  C5        -2.5180  -16.9120  -22.2240 C.3   256  BMA256      0.1836
      6  C6        -1.3970  -16.8010  -21.1980 C.3   256  BMA256      0.2142
      7  O1        -3.6240  -19.9180  -24.0700 O.3   256  BMA256     -0.1869
      8  O2        -5.4550  -18.8700  -22.1920 O.3   256  BMA256     -0.2148
      9  O3        -6.2010  -16.1880  -22.2940 O.3   256  BMA256     -0.2174
     10  O4        -3.7970  -15.0760  -21.2590 O.3   256  BMA256     -0.2176
     11  O5        -2.6060  -18.3080  -22.6140 O.3   256  BMA256     -0.3236
     12  O6        -1.6190  -17.7510  -20.1340 O.3   256  BMA256     -0.2176
@<TRIPOS>BOND
     1     7     1    1
     2     1     2    1
     3     1    11    1
     4     2     3    1
     5     2     8    1
     6     3     9    1
     7     3     4    1
     8    11     5    1
     9     5     4    1
    10     5     6    1
    11     4    10    1
    12     6    12    1
