@<TRIPOS>MOLECULE
2phf_MAN_A_1.pdb
 11 11 0 0 0
SMALL
GASTEIGER

@<TRIPOS>ATOM
      1  C1         4.7370   42.0980   25.8500 C.3   253  MAN253      0.1777
      2  C2         3.6500   41.2660   25.1610 C.3   253  MAN253      0.2141
      3  C3         3.0870   40.2190   26.1260 C.3   253  MAN253      0.2173
      4  C4         4.2080   39.3840   26.7490 C.3   253  MAN253      0.2142
      5  C5         5.2910   40.2860   27.3490 C.3   253  MAN253      0.1810
      6  C6         6.5050   39.5020   27.8270 C.3   253  MAN253      0.2141
      7  O2         4.1930   40.6150   24.0240 O.3   253  MAN253     -0.2176
      8  O3         2.2060   39.3610   25.4230 O.3   253  MAN253     -0.2175
      9  O4         3.6640   38.5610   27.7640 O.3   253  MAN253     -0.2176
     10  O5         5.7530   41.2350   26.3610 O.3   253  MAN253     -0.3481
     11  O6         7.1900   38.8860   26.7440 O.3   253  MAN253     -0.2176
@<TRIPOS>BOND
     1     7     2    1
     2     2     1    1
     3     2     3    1
     4     8     3    1
     5     1    10    1
     6     3     4    1
     7    10     5    1
     8    11     6    1
     9     4     5    1
    10     4     9    1
    11     5     6    1
