@<TRIPOS>MOLECULE
2phh_APR_A_1.pdb
 36 39 0 0 0
SMALL
GASTEIGER

@<TRIPOS>ATOM
      1  N1        28.9820  100.5220   69.4400 N.2   395  APR395      0.0021
      2  C2        27.7420  101.0930   69.1480 C.3   395  APR395      0.5254
      3  N3        27.1570  100.9970   68.0010 N.2   395  APR395     -0.0055
      4  C4        27.8450  100.3180   67.0720 C.2   395  APR395      0.3518
      5  C5        29.1210   99.6920   67.2690 C.2   395  APR395      0.2526
      6  C6        29.6930   99.8300   68.5140 C.2   395  APR395      0.4393
      7  N6        30.8960   99.3050   68.8580 N.pl3 395  APR395      0.2180
      8  N7        29.5270   99.0810   66.1330 N.2   395  APR395     -0.2095
      9  C8        28.5730   99.3160   65.2420 C.3   395  APR395      0.3377
     10  N9        27.5430  100.0770   65.7700 N.pl3 395  APR395     -0.1439
     11  C1'       26.4600  100.7940   65.0400 C.3   395  APR395      0.3186
     12  C2'       26.8320  101.2770   63.6470 C.3   395  APR395      0.2570
     13  O2'       27.4070  102.5370   63.6430 O.3   395  APR395     -0.2130
     14  C3'       25.4980  101.1600   62.9170 C.3   395  APR395      0.2184
     15  O3'       24.8080  102.4080   63.0610 O.3   395  APR395     -0.2174
     16  O4'       25.3790   99.9050   64.9430 O.3   395  APR395     -0.3135
     17  C4'       24.7050  100.0470   63.6650 C.3   395  APR395      0.1821
     18  C5'       24.6520   98.7050   62.9380 C.3   395  APR395      0.1813
     19  O5'       23.8120   98.9120   61.7490 O.3   395  APR395     -0.3112
     20  PA        23.5170   97.8530   60.6380 P.3   395  APR395      0.2189
     21  O1A       24.6270   96.9200   60.1330 O.3   395  APR395     -0.4371
     22  O2A       22.6280   98.4460   59.5290 O.2   395  APR395     -0.5170
     23  O3A       22.4570   96.9050   61.4510 O.3   395  APR395     -0.2703
     24  PB        21.1930   95.8700   61.5850 P.3   395  APR395      0.2189
     25  O1B       20.0800   96.6250   62.2670 O.2   395  APR395     -0.5170
     26  O2B       21.7540   94.6540   62.2790 O.3   395  APR395     -0.4371
     27  O5D       21.0030   95.6900   60.0090 O.3   395  APR395     -0.3112
     28  C5D       20.3870   96.3650   59.0100 C.3   395  APR395      0.1813
     29  O4D       21.7840   96.1050   57.0230 O.3   395  APR395     -0.3237
     30  O1D       23.6440   94.6910   56.6190 O.3   395  APR395     -0.1869
     31  C1D       22.2380   94.8510   56.4840 C.3   395  APR395      0.3023
     32  O2D       21.4730   92.5230   56.6390 O.3   395  APR395     -0.2148
     33  C2D       21.4640   93.7970   57.2730 C.3   395  APR395      0.2433
     34  O3D       19.4300   94.2910   56.0440 O.3   395  APR395     -0.2175
     35  C3D       20.0770   94.4460   57.3080 C.3   395  APR395      0.2168
     36  C4D       20.4380   95.9320   57.5330 C.3   395  APR395      0.1807
@<TRIPOS>BOND
     1    34    35    1
     2    31    30    1
     3    31    29    1
     4    31    33    1
     5    32    33    1
     6    29    36    1
     7    33    35    1
     8    35    36    1
     9    36    28    1
    10    28    27    1
    11    22    20    2
    12    27    24    1
    13    21    20    1
    14    20    23    1
    15    20    19    1
    16    23    24    1
    17    24    25    2
    18    24    26    1
    19    19    18    1
    20    14    15    1
    21    14    12    1
    22    14    17    1
    23    18    17    1
    24    13    12    1
    25    12    11    1
    26    17    16    1
    27    16    11    1
    28    11    10    1
    29     9    10    1
    30     9     8    1
    31    10     4    1
    32     8     5    2
    33     4     5    1
    34     4     3    2
    35     5     6    1
    36     3     2    1
    37     6     7    1
    38     6     1    2
    39     2     1    1
