@<TRIPOS>MOLECULE
2phk_ATP_A_1.pdb
 31 33 0 0 0
SMALL
GASTEIGER

@<TRIPOS>ATOM
      1  PG        46.7000   16.2740   49.3250 P.3   381  ATP381      0.5373
      2  O1G       47.7420   17.2580   49.7270 O.3   381  ATP381     -0.1143
      3  O2G       46.6360   16.1770   47.8570 O.2   381  ATP381     -0.2221
      4  O3G       45.3850   16.7560   49.8270 O.3   381  ATP381     -0.1143
      5  PB        46.2180   14.0120   51.0850 P.3   381  ATP381      0.2277
      6  O1B       46.5650   14.3450   52.4730 O.3   381  ATP381     -0.4368
      7  O2B       44.7460   14.0580   50.8830 O.2   381  ATP381     -0.5168
      8  O3B       47.0070   14.8480   49.9820 O.3   381  ATP381     -0.2258
      9  PA        46.3550   11.5640   49.4900 P.3   381  ATP381      0.2189
     10  O1A       45.1010   10.8060   49.6950 O.3   381  ATP381     -0.4371
     11  O2A       46.3200   12.2290   48.1720 O.2   381  ATP381     -0.5170
     12  O3A       46.7200   12.5370   50.7040 O.3   381  ATP381     -0.2700
     13  O5'       47.5970   10.5480   49.5410 O.3   381  ATP381     -0.3112
     14  C5'       48.9330   11.0860   49.5400 C.3   381  ATP381      0.1813
     15  C4'       49.8820   10.3670   48.6080 C.3   381  ATP381      0.1821
     16  O4'       50.1120    9.0170   49.0170 O.3   381  ATP381     -0.3135
     17  C3'       49.5220   10.3530   47.1400 C.3   381  ATP381      0.2184
     18  O3'       49.9950   11.5490   46.4820 O.3   381  ATP381     -0.2174
     19  C2'       50.1410    9.0200   46.6700 C.3   381  ATP381      0.2570
     20  O2'       51.4820    9.2180   46.1670 O.3   381  ATP381     -0.2130
     21  C1'       50.1750    8.1590   47.9340 C.3   381  ATP381      0.3186
     22  N9        49.1820    7.1100   48.0250 N.pl3 381  ATP381     -0.1439
     23  C8        47.8790    7.2880   48.3450 C.3   381  ATP381      0.3377
     24  N7        47.0790    6.2980   48.2200 N.2   381  ATP381     -0.2095
     25  C5        47.8740    5.3540   47.7860 C.2   381  ATP381      0.2526
     26  C6        47.5190    4.0650   47.4780 C.2   381  ATP381      0.4393
     27  N6        46.2930    3.5610   47.5750 N.pl3 381  ATP381      0.2180
     28  N1        48.5240    3.2780   47.0430 N.2   381  ATP381      0.0021
     29  C2        49.7950    3.8120   46.9450 C.3   381  ATP381      0.5254
     30  N3        50.2070    5.0220   47.2120 N.2   381  ATP381     -0.0055
     31  C4        49.1810    5.7760   47.6420 C.2   381  ATP381      0.3518
@<TRIPOS>BOND
     1    20    19    1
     2    18    17    1
     3    19    17    1
     4    19    21    1
     5    29    28    1
     6    29    30    1
     7    28    26    2
     8    17    15    1
     9    30    31    2
    10    26    27    1
    11    26    25    1
    12    31    25    1
    13    31    22    1
    14    25    24    2
    15     3     1    2
    16    21    22    1
    17    21    16    1
    18    22    23    1
    19    11     9    2
    20    24    23    1
    21    15    16    1
    22    15    14    1
    23     1     2    1
    24     1     4    1
    25     1     8    1
    26     9    13    1
    27     9    10    1
    28     9    12    1
    29    14    13    1
    30     8     5    1
    31    12     5    1
    32     7     5    2
    33     5     6    1
