@<TRIPOS>MOLECULE
2phr_MAN_A_1.pdb
 11 11 0 0 0
SMALL
GASTEIGER

@<TRIPOS>ATOM
      1  C1         4.8120   42.1490   26.1060 C.3   253  MAN253      0.1777
      2  C2         3.7370   41.3560   25.3570 C.3   253  MAN253      0.2141
      3  C3         3.1310   40.2920   26.2780 C.3   253  MAN253      0.2173
      4  C4         4.2330   39.4030   26.8620 C.3   253  MAN253      0.2142
      5  C5         5.3070   40.2650   27.5380 C.3   253  MAN253      0.1810
      6  C6         6.5000   39.4510   28.0090 C.3   253  MAN253      0.2141
      7  O2         4.3220   40.7250   24.2300 O.3   253  MAN253     -0.2176
      8  O3         2.2160   39.4950   25.5440 O.3   253  MAN253     -0.2175
      9  O4         3.6700   38.5110   27.8150 O.3   253  MAN253     -0.2176
     10  O5         5.8060   41.2570   26.6120 O.3   253  MAN253     -0.3481
     11  O6         7.2020   38.8910   26.9080 O.3   253  MAN253     -0.2176
@<TRIPOS>BOND
     1     7     2    1
     2     2     1    1
     3     2     3    1
     4     8     3    1
     5     1    10    1
     6     3     4    1
     7    10     5    1
     8     4     5    1
     9     4     9    1
    10    11     6    1
    11     5     6    1
