@<TRIPOS>MOLECULE
2pht_MAN_A_1.pdb
 11 11 0 0 0
SMALL
GASTEIGER

@<TRIPOS>ATOM
      1  C1         3.4090   41.3390   22.4520 C.3   253  MAN253      0.1777
      2  C2         3.0890   40.2950   21.3730 C.3   253  MAN253      0.2141
      3  C3         4.3750   39.6630   20.8300 C.3   253  MAN253      0.2173
      4  C4         5.3510   40.7500   20.3690 C.3   253  MAN253      0.2142
      5  C5         5.5810   41.7780   21.4840 C.3   253  MAN253      0.1810
      6  C6         6.4210   42.9480   21.0200 C.3   253  MAN253      0.2141
      7  O2         2.3890   40.9210   20.3090 O.3   253  MAN253     -0.2176
      8  O3         4.0620   38.8130   19.7350 O.3   253  MAN253     -0.2175
      9  O4         6.5880   40.1560   20.0080 O.3   253  MAN253     -0.2176
     10  O5         4.3160   42.3150   21.9370 O.3   253  MAN253     -0.3481
     11  O6         5.7790   43.6500   19.9670 O.3   253  MAN253     -0.2176
@<TRIPOS>BOND
     1     8     3    1
     2    11     6    1
     3     9     4    1
     4     7     2    1
     5     4     3    1
     6     4     5    1
     7     3     2    1
     8     6     5    1
     9     2     1    1
    10     5    10    1
    11    10     1    1
