@<TRIPOS>MOLECULE
2phu_MAN_A_1.pdb
 11 11 0 0 0
SMALL
GASTEIGER

@<TRIPOS>ATOM
      1  C1         4.7910   42.0300   25.6040 C.3   253  MAN253      0.1777
      2  C2         3.6520   41.2140   24.9790 C.3   253  MAN253      0.2141
      3  C3         3.0670   40.2360   26.0030 C.3   253  MAN253      0.2173
      4  C4         4.1750   39.3760   26.6210 C.3   253  MAN253      0.2142
      5  C5         5.2790   40.2730   27.1890 C.3   253  MAN253      0.1810
      6  C6         6.4620   39.4900   27.7270 C.3   253  MAN253      0.2141
      7  O2         4.1470   40.4830   23.8410 O.3   253  MAN253     -0.2176
      8  O3         2.1070   39.4030   25.3750 O.3   253  MAN253     -0.2175
      9  O4         3.6330   38.5770   27.6590 O.3   253  MAN253     -0.2176
     10  O5         5.7760   41.1590   26.1610 O.3   253  MAN253     -0.3481
     11  O6         7.1840   38.8580   26.6800 O.3   253  MAN253     -0.2176
@<TRIPOS>BOND
     1     7     2    1
     2     2     1    1
     3     2     3    1
     4     8     3    1
     5     1    10    1
     6     3     4    1
     7    10     5    1
     8     4     5    1
     9     4     9    1
    10    11     6    1
    11     5     6    1
