@<TRIPOS>MOLECULE
2phw_BMA_B_1.pdb
 11 11 0 0 0
SMALL
GASTEIGER

@<TRIPOS>ATOM
      1  C1        -3.6210  -18.5040  -23.6690 C.3   258  BMA258      0.1777
      2  C2        -4.9800  -18.0060  -23.1610 C.3   258  BMA258      0.2141
      3  C3        -4.8570  -16.5770  -22.6270 C.3   258  BMA258      0.2173
      4  C4        -3.7250  -16.4800  -21.5960 C.3   258  BMA258      0.2142
      5  C5        -2.4260  -17.0520  -22.1810 C.3   258  BMA258      0.1810
      6  C6        -1.2860  -17.0840  -21.1750 C.3   258  BMA258      0.2141
      7  O2        -5.4630  -18.8630  -22.1360 O.3   258  BMA258     -0.2176
      8  O3        -6.1020  -16.1770  -22.0240 O.3   258  BMA258     -0.2175
      9  O4        -3.5260  -15.1220  -21.2390 O.3   258  BMA258     -0.2176
     10  O5        -2.6350  -18.4090  -22.6320 O.3   258  BMA258     -0.3481
     11  O6        -1.6500  -17.9080  -20.0480 O.3   258  BMA258     -0.2176
@<TRIPOS>BOND
     1     1     2    1
     2     1    10    1
     3     2     3    1
     4     2     7    1
     5    10     5    1
     6     3     8    1
     7     3     4    1
     8     5     4    1
     9     5     6    1
    10     4     9    1
    11     6    11    1
