@<TRIPOS>MOLECULE
2phw_MAN_A_1.pdb
 11 11 0 0 0
SMALL
GASTEIGER

@<TRIPOS>ATOM
      1  C1         4.8390   42.2130   26.0170 C.3   253  MAN253      0.1777
      2  C2         3.7570   41.4300   25.2770 C.3   253  MAN253      0.2141
      3  C3         3.1540   40.3710   26.2030 C.3   253  MAN253      0.2173
      4  C4         4.2550   39.4780   26.7840 C.3   253  MAN253      0.2142
      5  C5         5.3390   40.3340   27.4460 C.3   253  MAN253      0.1810
      6  C6         6.5270   39.5130   27.9040 C.3   253  MAN253      0.2141
      7  O2         4.3220   40.7990   24.1390 O.3   253  MAN253     -0.2176
      8  O3         2.2300   39.5780   25.4750 O.3   253  MAN253     -0.2175
      9  O4         3.6970   38.5960   27.7480 O.3   253  MAN253     -0.2176
     10  O5         5.8340   41.3140   26.5070 O.3   253  MAN253     -0.3481
     11  O6         7.1890   38.9240   26.7940 O.3   253  MAN253     -0.2176
@<TRIPOS>BOND
     1     7     2    1
     2     2     1    1
     3     2     3    1
     4     8     3    1
     5     1    10    1
     6     3     4    1
     7    10     5    1
     8     4     5    1
     9     4     9    1
    10    11     6    1
    11     5     6    1
