@<TRIPOS>MOLECULE
2phx_MAN_A_1.pdb
 11 11 0 0 0
SMALL
GASTEIGER

@<TRIPOS>ATOM
      1  C1         4.7100   42.0520   25.4630 C.3   253  MAN253      0.1777
      2  C2         3.6290   41.1600   24.8630 C.3   253  MAN253      0.2141
      3  C3         3.0890   40.2210   25.9480 C.3   253  MAN253      0.2173
      4  C4         4.2380   39.4180   26.5720 C.3   253  MAN253      0.2142
      5  C5         5.2940   40.3820   27.1110 C.3   253  MAN253      0.1810
      6  C6         6.5130   39.6710   27.6720 C.3   253  MAN253      0.2141
      7  O2         4.1780   40.4010   23.7980 O.3   253  MAN253     -0.2176
      8  O3         2.1350   39.3530   25.3760 O.3   253  MAN253     -0.2175
      9  O4         3.7470   38.6410   27.6480 O.3   253  MAN253     -0.2176
     10  O5         5.7430   41.2490   26.0500 O.3   253  MAN253     -0.3481
     11  O6         7.1780   38.9370   26.6530 O.3   253  MAN253     -0.2176
@<TRIPOS>BOND
     1     7     2    1
     2     2     1    1
     3     2     3    1
     4     8     3    1
     5     1    10    1
     6     3     4    1
     7    10     5    1
     8     4     5    1
     9     4     9    1
    10    11     6    1
    11     5     6    1
