@<TRIPOS>MOLECULE
2pi4_GH3_A_1.pdb
 31 33 0 0 0
SMALL
GASTEIGER

@<TRIPOS>ATOM
      1  PG       180.5680   36.4180   50.4720 P.3   901  GH3901      0.5373
      2  O1G      181.0880   35.0180   50.2450 O.3   901  GH3901     -0.1143
      3  O2G      180.2510   37.2550   49.2640 O.2   901  GH3901     -0.2221
      4  O3G      179.1850   36.2670   51.2690 O.3   901  GH3901     -0.1143
      5  O3B      181.6280   37.2230   51.5220 O.3   901  GH3901     -0.2258
      6  PB       181.9810   36.6720   53.0080 P.3   901  GH3901      0.2277
      7  O1B      181.4050   37.6950   53.8830 O.3   901  GH3901     -0.4368
      8  O2B      181.4340   35.3290   53.2220 O.2   901  GH3901     -0.5168
      9  O3A      183.6180   36.6270   53.2480 O.3   901  GH3901     -0.2700
     10  PA       184.6630   35.6830   54.2620 P.3   901  GH3901      0.2189
     11  O1A      183.9990   34.3820   54.6410 O.3   901  GH3901     -0.4371
     12  O2A      186.1070   35.7060   53.9130 O.2   901  GH3901     -0.5170
     13  O5'      184.6560   36.5700   55.6100 O.3   901  GH3901     -0.3113
     14  C5'      183.6230   36.5310   56.6060 C.3   901  GH3901      0.1786
     15  C4'      183.9610   37.5080   57.7250 C.3   901  GH3901      0.1497
     16  O4'      185.3860   37.8310   57.9600 O.3   901  GH3901     -0.3353
     17  C3'      183.1680   38.7940   57.5510 C.3   901  GH3901      0.0695
     18  C2'      184.0420   39.8010   58.3200 C.3   901  GH3901      0.2010
     19  O2'      183.7130   39.9030   59.7550 O.3   901  GH3901     -0.2185
     20  C1'      185.4780   39.2580   58.0950 C.3   901  GH3901      0.2266
     21  N9       186.1660   39.7150   56.8820 N.pl3 901  GH3901     -0.2354
     22  C8       185.7200   39.9830   55.6120 C.3   901  GH3901      0.2246
     23  N7       186.6210   40.3790   54.7430 N.2   901  GH3901     -0.2322
     24  C5       187.7820   40.3640   55.5200 C.2   901  GH3901      0.2182
     25  C6       189.1490   40.6890   55.1960 C.1   901  GH3901      0.2372
     26  O6       189.6200   41.0480   54.1460 O.2   901  GH3901     -0.2069
     27  N1       190.0290   40.5470   56.2710 N.2   901  GH3901     -0.2485
     28  C2       189.6630   40.1360   57.5530 C.1   901  GH3901      0.2531
     29  N2       190.6220   40.0320   58.4800 N.pl3 901  GH3901     -0.0226
     30  N3       188.3880   39.8340   57.8660 N.2   901  GH3901     -0.3074
     31  C4       187.4990   39.9590   56.8150 C.2   901  GH3901      0.2300
@<TRIPOS>BOND
     1     3     1    2
     2     2     1    1
     3     1     4    1
     4     1     5    1
     5     5     6    1
     6     6     8    2
     7     6     9    1
     8     6     7    1
     9     9    10    1
    10    12    10    2
    11    26    25    2
    12    10    11    1
    13    10    13    1
    14    23    24    2
    15    23    22    1
    16    25    24    1
    17    25    27    2
    18    24    31    1
    19    13    14    1
    20    22    21    1
    21    27    28    2
    22    14    15    1
    23    31    21    1
    24    31    30    2
    25    21    20    1
    26    17    15    1
    27    17    18    1
    28    28    30    2
    29    28    29    1
    30    15    16    1
    31    16    20    1
    32    20    18    1
    33    18    19    1
