@<TRIPOS>MOLECULE
2pi6_NAG_A_1.pdb
 14 14 0 0 0
SMALL
GASTEIGER

@<TRIPOS>ATOM
      1  C1       -17.8030   18.1510    7.2930 C.3   363  NAG363      0.1665
      2  C2       -16.9850   18.8100    8.4020 C.3   363  NAG363      0.1576
      3  C3       -17.6620   20.0630    8.9860 C.3   363  NAG363      0.2069
      4  C4       -18.3140   20.9450    7.9170 C.3   363  NAG363      0.2134
      5  C5       -19.0430   20.0720    6.9000 C.3   363  NAG363      0.1809
      6  C6       -19.5930   20.8640    5.7270 C.3   363  NAG363      0.2141
      7  C7       -15.6380   17.3790    9.8030 C.2   363  NAG363      0.2420
      8  C8       -15.6280   16.4150   10.9580 C.3   363  NAG363      0.0964
      9  N2       -16.8150   17.8780    9.4940 N.am  363  NAG363     -0.2019
     10  O3       -16.7010   20.7930    9.7460 O.3   363  NAG363     -0.2184
     11  O4       -19.2460   21.8280    8.5300 O.3   363  NAG363     -0.2176
     12  O5       -18.1190   19.1460    6.3560 O.3   363  NAG363     -0.3489
     13  O6       -18.5320   21.6160    5.2010 O.3   363  NAG363     -0.2176
     14  O7       -14.6080   17.6690    9.1880 O.2   363  NAG363     -0.2733
@<TRIPOS>BOND
     1    13     6    1
     2     6     5    1
     3    12     5    1
     4    12     1    1
     5     5     4    1
     6     1     2    1
     7     4    11    1
     8     4     3    1
     9     2     3    1
    10     2     9    1
    11     3    10    1
    12    14     7    2
    13     9     7   am
    14     7     8    1
