@<TRIPOS>MOLECULE
2pia_FMN_A_1.pdb
 31 33 0 0 0
SMALL
GASTEIGER

@<TRIPOS>ATOM
      1  N1        -0.4750   35.8380    8.2710 N.2   322  FMN322     -0.2890
      2  C2        -1.2930   36.8560    8.7090 C.1   322  FMN322      0.3669
      3  O2        -2.1920   37.3090    8.0210 O.2   322  FMN322     -0.1744
      4  N3        -1.1530   37.4160    9.9740 N.2   322  FMN322     -0.2300
      5  C4        -0.2010   37.0350   10.8560 C.1   322  FMN322      0.2513
      6  O4        -0.0920   37.5670   11.9070 O.2   322  FMN322     -0.2057
      7  C4A        0.7000   35.9510   10.4100 C.2   322  FMN322      0.2700
      8  N5         1.6510   35.5870   11.2080 N.2   322  FMN322     -0.3878
      9  C5A        2.4350   34.5580   10.7610 C.2   322  FMN322      0.1320
     10  C6         3.4920   34.1970   11.6070 C.2   322  FMN322      0.0250
     11  C7         4.4050   33.2680   11.2170 C.2   322  FMN322     -0.0238
     12  C7M        5.5770   33.0360   12.1190 C.3   322  FMN322      0.0308
     13  C8         4.2090   32.5750    9.9590 C.2   322  FMN322     -0.0280
     14  C8M        5.1500   31.5030    9.5170 C.3   322  FMN322      0.0304
     15  C9         3.1750   32.9030    9.1140 C.2   322  FMN322     -0.0041
     16  C9A        2.2730   33.9150    9.4940 C.3   322  FMN322      0.1497
     17  N10        1.2280   34.3460    8.6760 N.pl3 322  FMN322     -0.2691
     18  C10        0.4720   35.4070    9.0650 C.2   322  FMN322      0.2416
     19  C1'        0.9180   33.6610    7.3970 C.3   322  FMN322      0.1294
     20  C2'       -0.1470   32.5730    7.6170 C.3   322  FMN322      0.2044
     21  O2'        0.3680   31.5390    8.4580 O.3   322  FMN322     -0.2185
     22  C3'       -0.5800   31.9590    6.2780 C.3   322  FMN322      0.2164
     23  O3'        0.5650   31.4430    5.5980 O.3   322  FMN322     -0.2175
     24  C4'       -1.2840   32.9990    5.4090 C.3   322  FMN322      0.2147
     25  O4'       -2.4700   33.4490    6.0770 O.3   322  FMN322     -0.2176
     26  C5'       -1.5490   32.4380    4.0100 C.3   322  FMN322      0.1892
     27  O5'       -2.3490   31.2360    4.0630 O.3   322  FMN322     -0.2674
     28  P         -3.3630   30.6930    2.9470 P.3   322  FMN322      0.5327
     29  O1P       -2.2960   30.4420    1.8700 O.2   322  FMN322     -0.2224
     30  O2P       -4.2760   31.7740    2.5480 O.3   322  FMN322     -0.1145
     31  O3P       -3.9020   29.4220    3.4580 O.3   322  FMN322     -0.1145
@<TRIPOS>BOND
     1    29    28    2
     2    30    28    1
     3    28    31    1
     4    28    27    1
     5    26    27    1
     6    26    24    1
     7    24    25    1
     8    24    22    1
     9    23    22    1
    10    22    20    1
    11    19    20    1
    12    19    17    1
    13    20    21    1
    14     3     2    2
    15     1     2    2
    16     1    18    2
    17    17    18    1
    18    17    16    1
    19     2     4    2
    20    18     7    1
    21    15    16    1
    22    15    13    2
    23    16     9    1
    24    14    13    1
    25    13    11    1
    26     4     5    2
    27     7     5    1
    28     7     8    2
    29     9     8    2
    30     9    10    1
    31     5     6    2
    32    11    10    2
    33    11    12    1
