@<TRIPOS>MOLECULE
2pid_YSA_A_1.pdb
 35 38 0 0 0
SMALL
GASTEIGER

@<TRIPOS>ATOM
      1  CD1        4.1700   -0.1780   27.9040 C.ar  384  YSA384     -0.0009
      2  CE1        5.5340   -0.3900   28.0660 C.ar  384  YSA384      0.0417
      3  CZ         6.4380    0.2540   27.2270 C.ar  384  YSA384      0.1957
      4  OH         7.7680   -0.0010   27.3470 O.3   384  YSA384     -0.2866
      5  CE2        5.9750    1.1160   26.2390 C.ar  384  YSA384      0.0417
      6  CD2        4.6100    1.3320   26.0810 C.ar  384  YSA384     -0.0009
      7  CG         3.7060    0.6790   26.9110 C.ar  384  YSA384     -0.0200
      8  CB         2.1980    0.8310   26.7040 C.3   384  YSA384      0.0548
      9  CA         1.7140    2.2830   26.7270 C.3   384  YSA384      0.1753
     10  N          2.1510    2.9520   27.9620 N.3   384  YSA384     -0.1226
     11  C          0.1860    2.2660   26.6510 C.2   384  YSA384      0.2801
     12  O         -0.4670    2.1170   27.6830 O.2   384  YSA384     -0.2701
     13  NAT       -0.3700    2.4040   25.4510 N.am  384  YSA384     -0.0576
     14  SBI       -1.8980    1.8270   25.3670 S.3   384  YSA384      0.0852
     15  OAD       -3.0360    2.7380   25.7160 O.3   384  YSA384     -0.0508
     16  OAE       -2.0480    0.3440   25.5430 O.3   384  YSA384     -0.0508
     17  O5'       -2.0270    1.8290   23.9450 O.3   384  YSA384     -0.2230
     18  C5'       -1.7030    3.0440   23.2780 C.3   384  YSA384      0.2064
     19  C4'       -0.6350    2.8550   22.2010 C.3   384  YSA384      0.1842
     20  O4'       -1.2820    3.1170   20.9440 O.3   384  YSA384     -0.3135
     21  C3'        0.2090    4.1070   22.4400 C.3   384  YSA384      0.2185
     22  O3'        1.2520    4.2110   21.4680 O.3   384  YSA384     -0.2174
     23  C2'       -0.9000    5.1180   22.1670 C.3   384  YSA384      0.2570
     24  O2'       -0.3320    6.4100   21.9550 O.3   384  YSA384     -0.2130
     25  C1'       -1.4670    4.5430   20.8660 C.3   384  YSA384      0.3186
     26  N9        -2.8930    4.9240   20.7670 N.pl3 384  YSA384     -0.1439
     27  C8        -3.8560    4.5860   21.6230 C.3   384  YSA384      0.3377
     28  N7        -5.0030    5.1630   21.2690 N.2   384  YSA384     -0.2095
     29  C5        -4.7690    5.8750   20.1710 C.2   384  YSA384      0.2526
     30  C4        -3.4280    5.7200   19.8480 C.2   384  YSA384      0.3518
     31  N3        -2.9310    6.3490   18.7740 N.2   384  YSA384     -0.0055
     32  C2        -3.7120    7.1120   18.0300 C.3   384  YSA384      0.5254
     33  N1        -4.9920    7.2870   18.3080 N.2   384  YSA384      0.0021
     34  C6        -5.5570    6.6890   19.3670 C.2   384  YSA384      0.4393
     35  N6        -6.8430    6.8760   19.6520 N.pl3 384  YSA384      0.2180
@<TRIPOS>BOND
     1    32    33    1
     2    32    31    1
     3    33    34    2
     4    31    30    2
     5    34    35    1
     6    34    29    1
     7    30    29    1
     8    30    26    1
     9    29    28    2
    10    26    25    1
    11    26    27    1
    12    25    20    1
    13    25    23    1
    14    20    19    1
    15    28    27    1
    16    22    21    1
    17    24    23    1
    18    23    21    1
    19    19    21    1
    20    19    18    1
    21    18    17    1
    22    17    14    1
    23    14    13    1
    24    14    16    1
    25    14    15    1
    26    13    11   am
    27     6     5   ar
    28     6     7   ar
    29     5     3   ar
    30    11     9    1
    31    11    12    2
    32     8     9    1
    33     8     7    1
    34     9    10    1
    35     7     1   ar
    36     3     4    1
    37     3     2   ar
    38     1     2   ar
