@<TRIPOS>MOLECULE
2pin_4HY_A_1.pdb
 21 22 0 0 0
SMALL
GASTEIGER

@<TRIPOS>ATOM
      1  C1        45.8940   -1.3960   34.8530 C.ar  500  4HY500     -0.0099
      2  C2        44.6800   -0.0320   39.7260 C.ar  500  4HY500      0.1460
      3  C3        46.9420   -1.2520   35.8460 C.ar  500  4HY500      0.0051
      4  C4        44.9460   -0.0990   41.0780 C.ar  500  4HY500      0.0465
      5  C5        46.6000   -1.2040   37.2090 C.ar  500  4HY500      0.0647
      6  C6        44.7840    0.9920   41.9030 C.ar  500  4HY500      0.0720
      7  C7        45.2610   -1.2980   37.6400 C.ar  500  4HY500      0.1558
      8  C8        44.3200    2.2310   41.3530 C.ar  500  4HY500      0.2012
      9  C9        44.2440   -1.4470   36.6400 C.ar  500  4HY500      0.0647
     10  C10       44.0390    2.3250   39.9630 C.ar  500  4HY500      0.0456
     11  C11       44.5860   -1.4930   35.2340 C.ar  500  4HY500      0.0051
     12  C12       44.2180    1.1850   39.1430 C.ar  500  4HY500      0.0408
     13  C13       46.2450   -1.4200   33.3980 C.3   500  4HY500      0.1404
     14  C14       46.3060   -2.8400   32.7160 C.2   500  4HY500      0.3692
     15  I1        48.1330   -1.1700   38.6690 I     500  4HY500     -0.0393
     16  I2        45.2010    0.8170   43.9080 I     500  4HY500     -0.0391
     17  I3        42.2160   -1.5150   37.2470 I     500  4HY500     -0.0393
     18  O3        45.6830   -3.7850   33.2700 O.co2 500  4HY500     -0.2453
     19  O2        44.8790   -1.2320   38.9940 O.3   500  4HY500     -0.4526
     20  O1        44.1550    3.3360   42.2030 O.3   500  4HY500     -0.2861
     21  O4        46.9780   -2.9210   31.6580 O.co2 500  4HY500     -0.2453
@<TRIPOS>BOND
     1    21    14   ar
     2    14    18   ar
     3    14    13    1
     4    13     1    1
     5     1    11   ar
     6     1     3   ar
     7    11     9   ar
     8     3     5   ar
     9     9    17    1
    10     9     7   ar
    11     5     7   ar
    12     5    15    1
    13     7    19    1
    14    19     2    1
    15    12     2   ar
    16    12    10   ar
    17     2     4   ar
    18    10     8   ar
    19     4     6   ar
    20     8     6   ar
    21     8    20    1
    22     6    16    1
