@<TRIPOS>MOLECULE
2pin_LEG_A_1.pdb
 16 16 0 0 0
SMALL
GASTEIGER

@<TRIPOS>ATOM
      1  C27       57.6070    8.3440   32.7370 C.3   501  LEG501      0.0000
      2  C24       58.9400    9.0930   32.6070 C.3   501  LEG501      0.0000
      3  C21       58.7250   10.6130   32.6240 C.3   501  LEG501      0.0000
      4  C18       58.0670   11.1250   31.3390 C.3   501  LEG501      0.0003
      5  C15       56.8520   11.9700   31.6710 C.3   501  LEG501      0.0047
      6  C14       55.5760   11.3460   31.0630 C.3   501  LEG501      0.0264
      7  C1        54.3270   12.0910   31.4860 C.ar  501  LEG501     -0.0222
      8  C6        53.8990   13.2310   30.8020 C.ar  501  LEG501     -0.0042
      9  C5        52.7370   13.8760   31.1780 C.ar  501  LEG501      0.0025
     10  C2        53.5560   11.6110   32.5550 C.ar  501  LEG501     -0.0042
     11  C3        52.3990   12.2520   32.9260 C.ar  501  LEG501      0.0025
     12  C4        51.9610   13.4000   32.2320 C.ar  501  LEG501      0.0347
     13  C11       50.6920   14.1230   32.6370 C.2   501  LEG501      0.1730
     14  O13       50.7040   15.3170   32.9010 O.2   501  LEG501     -0.2913
     15  C12       49.4820   13.4250   32.7050 C.3   501  LEG501      0.0692
     16  C33       48.6050   13.6420   33.7530 C.3   501  LEG501      0.0086
@<TRIPOS>BOND
     1     8     9   ar
     2     8     7   ar
     3     6     7    1
     4     6     5    1
     5     9    12   ar
     6     4     5    1
     7     4     3    1
     8     7    10   ar
     9    12    13    1
    10    12    11   ar
    11    10    11   ar
    12     2     3    1
    13     2     1    1
    14    13    15    1
    15    13    14    2
    16    15    16    1
