@<TRIPOS>MOLECULE
2pio_2MI_A_1.pdb
 10 11 0 0 0
SMALL
GASTEIGER

@<TRIPOS>ATOM
      1  CAJ       59.5380    9.4020   21.0940 C.3   933  2MI933      0.0664
      2  CAG       60.1870    8.6740   19.9150 C.2   933  2MI933      0.1095
      3  CAC       59.6120    7.6920   19.2260 C.2   933  2MI933      0.0301
      4  CAA       60.4830    7.3090   18.2960 C.ar  933  2MI933      0.0318
      5  CAD       60.4330    6.3320   17.3060 C.ar  933  2MI933      0.0026
      6  CAH       61.5220    6.1450   16.4600 C.ar  933  2MI933      0.0002
      7  CAI       62.6600    6.9340   16.6020 C.ar  933  2MI933      0.0026
      8  CAF       62.7110    7.9120   17.5910 C.ar  933  2MI933      0.0320
      9  CAB       61.6220    8.0980   18.4380 C.ar  933  2MI933      0.1310
     10  NAE       61.4050    8.9340   19.4500 N.2   933  2MI933     -0.4062
@<TRIPOS>BOND
     1     6     7   ar
     2     6     5   ar
     3     7     8   ar
     4     5     4   ar
     5     8     9   ar
     6     4     9   ar
     7     4     3    2
     8     9    10    2
     9     3     2    1
    10    10     2    2
    11     2     1    1
