@<TRIPOS>MOLECULE
2pio_DHT_A_1.pdb
 21 24 0 0 0
SMALL
GASTEIGER

@<TRIPOS>ATOM
      1  C1        54.4100    5.2380    4.4960 C.3   931  DHT931      0.0078
      2  C2        53.5740    6.4490    4.9260 C.3   931  DHT931      0.0645
      3  C3        52.1690    6.2570    4.2850 C.2   931  DHT931      0.1506
      4  O3        51.7100    7.1580    3.6200 O.2   931  DHT931     -0.2961
      5  C4        51.4750    4.9470    4.4970 C.3   931  DHT931      0.0645
      6  C5        52.3640    3.7660    4.0300 C.3   931  DHT931      0.0073
      7  C6        51.6810    2.3810    4.2450 C.3   931  DHT931      0.0004
      8  C7        52.6060    1.2580    3.7400 C.3   931  DHT931      0.0000
      9  C8        54.0030    1.2540    4.4560 C.3   931  DHT931      0.0001
     10  C9        54.6800    2.6510    4.2500 C.3   931  DHT931      0.0000
     11  C10       53.7850    3.8440    4.7830 C.3   931  DHT931      0.0008
     12  C11       56.0900    2.6110    4.9260 C.3   931  DHT931      0.0001
     13  C12       57.0230    1.4790    4.4970 C.3   931  DHT931      0.0024
     14  C13       56.3480    0.0850    4.5870 C.3   931  DHT931      0.0282
     15  C14       54.9340    0.1530    3.9040 C.3   931  DHT931      0.0024
     16  C15       54.4540   -1.3130    4.0170 C.3   931  DHT931      0.0027
     17  C16       55.7210   -2.1030    3.6440 C.3   931  DHT931      0.0329
     18  C17       56.8810   -1.0740    3.7420 C.3   931  DHT931      0.1519
     19  O17       58.0170   -1.7290    4.3080 O.3   931  DHT931     -0.2232
     20  C18       56.2500   -0.3260    6.1200 C.3   931  DHT931      0.0025
     21  C19       53.5830    3.6850    6.3450 C.3   931  DHT931      0.0000
@<TRIPOS>BOND
     1     4     3    2
     2    17    18    1
     3    17    16    1
     4     8     7    1
     5     8     9    1
     6    18    19    1
     7    18    14    1
     8    15    16    1
     9    15     9    1
    10    15    14    1
    11     6     7    1
    12     6     5    1
    13     6    11    1
    14    10     9    1
    15    10    11    1
    16    10    12    1
    17     3     5    1
    18     3     2    1
    19     1    11    1
    20     1     2    1
    21    13    14    1
    22    13    12    1
    23    14    20    1
    24    11    21    1
