@<TRIPOS>MOLECULE
2pip_ICO_L_1.pdb
 12 13 0 0 0
SMALL
GASTEIGER

@<TRIPOS>ATOM
      1  CAA       16.1120   50.6690   28.6390 C.2   935  ICO935      0.0216
      2  CAD       15.0590   51.5690   28.7480 C.2   935  ICO935     -0.0197
      3  CAI       14.8730   52.2610   29.9440 C.3   935  ICO935      0.0521
      4  CAJ       15.7380   52.0470   31.0120 C.2   935  ICO935     -0.0199
      5  CAF       16.7890   51.1440   30.8940 C.2   935  ICO935      0.0149
      6  CAB       16.9780   50.4490   29.7040 C.2   935  ICO935      0.0809
      7  NAE       17.8790   49.5480   29.3170 N.2   935  ICO935     -0.2436
      8  CAG       17.6380   49.1700   28.0610 C.2   935  ICO935      0.1054
      9  CAC       16.5710   49.8380   27.6250 C.2   935  ICO935      0.1000
     10  CAH       15.9470   49.6780   26.2400 C.2   935  ICO935      0.3893
     11  OAL       16.4640   48.9540   25.4020 O.co2 935  ICO935     -0.2405
     12  OAK       14.9030   50.2840   25.9490 O.co2 935  ICO935     -0.2405
@<TRIPOS>BOND
     1    11    10   ar
     2    12    10   ar
     3    10     9    1
     4     9     8    2
     5     9     1    1
     6     8     7    1
     7     1     2    2
     8     1     6    1
     9     2     3    1
    10     7     6    2
    11     6     5    1
    12     3     4    1
    13     5     4    2
