@<TRIPOS>MOLECULE
2pip_K10_L_1.pdb
 23 25 0 0 0
SMALL
GASTEIGER

@<TRIPOS>ATOM
      1  N1        31.8710   39.5110   19.1520 N.pl3 936  K10936      0.2118
      2  C1        32.9070   39.8130   18.3750 C.2   936  K10936      0.4078
      3  N2        33.1130   39.1490   17.2330 N.2   936  K10936     -0.0027
      4  C2        34.1350   39.4420   16.4400 C.3   936  K10936      0.5248
      5  N3        34.9830   40.3990   16.7410 N.2   936  K10936     -0.0088
      6  C3        34.8370   41.1130   17.8810 C.2   936  K10936      0.3400
      7  C4        33.7790   40.8210   18.7280 C.3   936  K10936      0.2601
      8  C5        33.9240   41.7120   19.7900 C.2   936  K10936      0.1047
      9  N4        34.9950   42.4460   19.5290 N.2   936  K10936     -0.0955
     10  N5        35.5060   42.1020   18.4470 N.pl3 936  K10936     -0.0880
     11  C6        36.7340   42.7410   17.8860 C.3   936  K10936      0.1509
     12  C7        36.3680   43.4850   16.5930 C.3   936  K10936      0.0491
     13  C8        37.3010   43.7330   18.9040 C.3   936  K10936      0.0491
     14  C9        37.7900   41.6610   17.5950 C.3   936  K10936      0.0491
     15  C10       33.0470   41.7880   21.0410 C.3   936  K10936      0.0721
     16  C11       33.4390   42.9700   21.9240 C.ar  936  K10936     -0.0206
     17  C12       34.5110   42.7740   22.7960 C.ar  936  K10936     -0.0085
     18  C13       34.9490   43.7880   23.6350 C.ar  936  K10936     -0.0222
     19  C14       34.3110   45.0190   23.6190 C.ar  936  K10936     -0.0046
     20  C15       33.2360   45.2210   22.7560 C.ar  936  K10936     -0.0049
     21  C16       32.8080   44.2040   21.9190 C.ar  936  K10936     -0.0255
     22  C17       31.6260   44.4820   20.9910 C.3   936  K10936      0.0307
     23  C18       36.1220   43.5510   24.5890 C.3   936  K10936      0.0310
@<TRIPOS>BOND
     1     4     5    1
     2     4     3    1
     3    12    11    1
     4     5     6    2
     5     3     2    2
     6    14    11    1
     7     6    10    1
     8     6     7    1
     9    11    10    1
    10    11    13    1
    11     2     7    1
    12     2     1    1
    13    10     9    1
    14     7     8    1
    15     9     8    2
    16     8    15    1
    17    22    21    1
    18    15    16    1
    19    21    16   ar
    20    21    20   ar
    21    16    17   ar
    22    20    19   ar
    23    17    18   ar
    24    19    18   ar
    25    18    23    1
