@<TRIPOS>MOLECULE
2pip_DHT_L_1.pdb
 21 24 0 0 0
SMALL
GASTEIGER

@<TRIPOS>ATOM
      1  C1        27.2870   38.3910    4.4340 C.3   931  DHT931      0.0078
      2  C2        26.5160   39.5900    4.9190 C.3   931  DHT931      0.0645
      3  C3        25.1030   39.5520    4.2340 C.2   931  DHT931      0.1506
      4  O3        24.6840   40.4420    3.6490 O.2   931  DHT931     -0.2961
      5  C4        24.3540   38.2590    4.4510 C.3   931  DHT931      0.0645
      6  C5        25.1810   37.0320    3.9930 C.3   931  DHT931      0.0073
      7  C6        24.4290   35.6530    4.2100 C.3   931  DHT931      0.0004
      8  C7        25.3110   34.4760    3.7010 C.3   931  DHT931      0.0000
      9  C8        26.7200   34.3990    4.3670 C.3   931  DHT931      0.0001
     10  C9        27.4230   35.7740    4.1370 C.3   931  DHT931      0.0000
     11  C10       26.5990   37.0290    4.7100 C.3   931  DHT931      0.0008
     12  C11       28.8600   35.6520    4.8220 C.3   931  DHT931      0.0001
     13  C12       29.7310   34.4990    4.3320 C.3   931  DHT931      0.0024
     14  C13       28.9950   33.1350    4.4310 C.3   931  DHT931      0.0282
     15  C14       27.5820   33.2610    3.7730 C.3   931  DHT931      0.0024
     16  C15       27.0460   31.8290    3.9240 C.3   931  DHT931      0.0027
     17  C16       28.2820   30.9810    3.5140 C.3   931  DHT931      0.0329
     18  C17       29.4900   31.9680    3.5730 C.3   931  DHT931      0.1519
     19  O17       30.5980   31.3190    4.1530 O.3   931  DHT931     -0.2232
     20  C18       28.9180   32.7160    5.9710 C.3   931  DHT931      0.0025
     21  C19       26.4110   36.8800    6.2820 C.3   931  DHT931      0.0000
@<TRIPOS>BOND
     1    17    18    1
     2    17    16    1
     3    18    19    1
     4    18    14    1
     5     4     3    2
     6     8     7    1
     7     8     9    1
     8    15    16    1
     9    15     9    1
    10    15    14    1
    11     6     7    1
    12     6     5    1
    13     6    11    1
    14    10     9    1
    15    10    11    1
    16    10    12    1
    17     3     5    1
    18     3     2    1
    19    13    14    1
    20    13    12    1
    21    14    20    1
    22     1    11    1
    23     1     2    1
    24    11    21    1
