@<TRIPOS>MOLECULE
2piq_RB1_A_1.pdb
 22 24 0 0 0
SMALL
GASTEIGER

@<TRIPOS>ATOM
      1  C20      -37.4290  -11.5860   18.0660 C.3   933  RB1933      0.0491
      2  C19      -37.3320  -10.2990   17.2410 C.3   933  RB1933      0.1509
      3  C21      -36.8680  -10.6270   15.8200 C.3   933  RB1933      0.0491
      4  C22      -38.6980   -9.6050   17.2020 C.3   933  RB1933      0.0491
      5  N7       -36.3440   -9.3910   17.8880 N.pl3 933  RB1933     -0.0880
      6  N8       -35.7330   -9.6750   18.9210 N.2   933  RB1933     -0.0955
      7  C3       -35.9980   -8.1920   17.4170 C.2   933  RB1933      0.3400
      8  N2       -36.3620   -7.4630   16.3500 N.2   933  RB1933     -0.0088
      9  C1       -35.8290   -6.2660   16.1430 C.3   933  RB1933      0.5248
     10  N6       -34.9270   -5.7650   16.9700 N.2   933  RB1933     -0.0027
     11  C5       -34.5140   -6.4410   18.0510 C.2   933  RB1933      0.4078
     12  N10      -33.6130   -5.9170   18.8760 N.pl3 933  RB1933      0.2118
     13  C4       -35.0530   -7.6960   18.3060 C.3   933  RB1933      0.2601
     14  C9       -34.9120   -8.6840   19.2710 C.2   933  RB1933      0.1047
     15  C11      -33.9780   -8.6690   20.4860 C.3   933  RB1933      0.0725
     16  C12      -34.5730   -9.4920   21.6250 C.ar  933  RB1933     -0.0132
     17  C13      -34.4150  -10.8770   21.6560 C.ar  933  RB1933      0.0381
     18  C17      -35.2690   -8.8540   22.6470 C.ar  933  RB1933     -0.0037
     19  C16      -35.7960   -9.5930   23.7030 C.ar  933  RB1933      0.0030
     20  C15      -35.6330  -10.9750   23.7370 C.ar  933  RB1933      0.0420
     21  C14      -34.9480  -11.6170   22.7110 C.ar  933  RB1933      0.1954
     22  O18      -34.8000  -12.9700   22.7350 O.3   933  RB1933     -0.2866
@<TRIPOS>BOND
     1     3     2    1
     2     9     8    1
     3     9    10    1
     4     8     7    2
     5    10    11    2
     6     4     2    1
     7     2     5    1
     8     2     1    1
     9     7     5    1
    10     7    13    1
    11     5     6    1
    12    11    13    1
    13    11    12    1
    14    13    14    1
    15     6    14    2
    16    14    15    1
    17    15    16    1
    18    16    17   ar
    19    16    18   ar
    20    17    21   ar
    21    18    19   ar
    22    21    22    1
    23    21    20   ar
    24    19    20   ar
