@<TRIPOS>MOLECULE
2piq_DHT_A_1.pdb
 21 24 0 0 0
SMALL
GASTEIGER

@<TRIPOS>ATOM
      1  C1       -27.5040   -5.3390    4.9390 C.3   931  DHT931      0.0078
      2  C2       -26.7440   -6.5900    5.4340 C.3   931  DHT931      0.0645
      3  C3       -25.3240   -6.4850    4.8170 C.2   931  DHT931      0.1506
      4  O3       -24.9030   -7.4850    4.1920 O.2   931  DHT931     -0.2961
      5  C4       -24.5530   -5.2140    4.9830 C.3   931  DHT931      0.0645
      6  C5       -25.3810   -3.9800    4.4530 C.3   931  DHT931      0.0073
      7  C6       -24.6420   -2.6160    4.6220 C.3   931  DHT931      0.0004
      8  C7       -25.4990   -1.4710    4.0600 C.3   931  DHT931      0.0000
      9  C8       -26.9050   -1.3760    4.7400 C.3   931  DHT931      0.0001
     10  C9       -27.6550   -2.7400    4.5840 C.3   931  DHT931      0.0000
     11  C10      -26.8170   -3.9570    5.1780 C.3   931  DHT931      0.0008
     12  C11      -29.0810   -2.6110    5.2240 C.3   931  DHT931      0.0001
     13  C12      -29.9500   -1.4530    4.7350 C.3   931  DHT931      0.0024
     14  C13      -29.2170   -0.0770    4.7810 C.3   931  DHT931      0.0282
     15  C14      -27.7840   -0.2520    4.1010 C.3   931  DHT931      0.0024
     16  C15      -27.2240    1.1890    4.1960 C.3   931  DHT931      0.0027
     17  C16      -28.4720    2.0490    3.8170 C.3   931  DHT931      0.0329
     18  C17      -29.6750    1.0620    3.9030 C.3   931  DHT931      0.1519
     19  O17      -30.8160    1.7810    4.4220 O.3   931  DHT931     -0.2232
     20  C18      -29.1350    0.3690    6.2990 C.3   931  DHT931      0.0025
     21  C19      -26.6330   -3.7240    6.7300 C.3   931  DHT931      0.0000
@<TRIPOS>BOND
     1    17    18    1
     2    17    16    1
     3    18    19    1
     4    18    14    1
     5     8     7    1
     6     8     9    1
     7    15    16    1
     8    15     9    1
     9    15    14    1
    10     4     3    2
    11     6     7    1
    12     6     5    1
    13     6    11    1
    14    10     9    1
    15    10    11    1
    16    10    12    1
    17    13    14    1
    18    13    12    1
    19    14    20    1
    20     3     5    1
    21     3     2    1
    22     1    11    1
    23     1     2    1
    24    11    21    1
