@<TRIPOS>MOLECULE
2pir_DHT_A_1.pdb
 21 24 0 0 0
SMALL
GASTEIGER

@<TRIPOS>ATOM
      1  C1        27.6800   38.4660    4.4150 C.3   931  DHT931      0.0078
      2  C2        26.8850   39.6620    4.8620 C.3   931  DHT931      0.0645
      3  C3        25.4800   39.5470    4.2050 C.2   931  DHT931      0.1506
      4  O3        25.0140   40.4650    3.6720 O.2   931  DHT931     -0.2961
      5  C4        24.7140   38.3030    4.4630 C.3   931  DHT931      0.0645
      6  C5        25.4990   37.0790    4.0090 C.3   931  DHT931      0.0073
      7  C6        24.7850   35.7040    4.2590 C.3   931  DHT931      0.0004
      8  C7        25.6580   34.5340    3.6870 C.3   931  DHT931      0.0000
      9  C8        27.0990   34.4510    4.3050 C.3   931  DHT931      0.0001
     10  C9        27.8040   35.8350    4.0950 C.3   931  DHT931      0.0000
     11  C10       26.9710   37.0830    4.6840 C.3   931  DHT931      0.0008
     12  C11       29.2530   35.7370    4.7040 C.3   931  DHT931      0.0001
     13  C12       30.1510   34.5650    4.2340 C.3   931  DHT931      0.0024
     14  C13       29.4040   33.2000    4.3280 C.3   931  DHT931      0.0282
     15  C14       27.9670   33.3100    3.7110 C.3   931  DHT931      0.0024
     16  C15       27.4350   31.9000    3.8690 C.3   931  DHT931      0.0027
     17  C16       28.6400   31.0490    3.4350 C.3   931  DHT931      0.0329
     18  C17       29.8670   32.0190    3.4730 C.3   931  DHT931      0.1519
     19  O17       31.0320   31.3410    3.9980 O.3   931  DHT931     -0.2232
     20  C18       29.3320   32.7730    5.8270 C.3   931  DHT931      0.0025
     21  C19       26.8540   36.8690    6.2490 C.3   931  DHT931      0.0000
@<TRIPOS>BOND
     1    17    18    1
     2    17    16    1
     3    18    19    1
     4    18    14    1
     5     4     3    2
     6     8     7    1
     7     8     9    1
     8    15    16    1
     9    15     9    1
    10    15    14    1
    11     6     7    1
    12     6     5    1
    13     6    11    1
    14    10     9    1
    15    10    11    1
    16    10    12    1
    17     3     5    1
    18     3     2    1
    19    13    14    1
    20    13    12    1
    21    14    20    1
    22     1    11    1
    23     1     2    1
    24    11    21    1
