@<TRIPOS>MOLECULE
2pit_4HY_A_1.pdb
 21 22 0 0 0
SMALL
GASTEIGER

@<TRIPOS>ATOM
      1  C1        15.2970   19.9200   27.3220 C.ar  933  4HY933     -0.0099
      2  C2        17.8360   16.5120   29.8760 C.ar  933  4HY933      0.1460
      3  C3        15.3180   19.8530   28.7120 C.ar  933  4HY933      0.0051
      4  C4        18.8420   17.4350   29.5940 C.ar  933  4HY933      0.0465
      5  C5        15.7900   18.7100   29.3500 C.ar  933  4HY933      0.0647
      6  C6        20.0310   17.4240   30.3200 C.ar  933  4HY933      0.0720
      7  C7        16.2470   17.6280   28.6000 C.ar  933  4HY933      0.1558
      8  C8        20.2240   16.4780   31.3220 C.ar  933  4HY933      0.2012
      9  C9        16.2190   17.6950   27.2080 C.ar  933  4HY933      0.0647
     10  C10       19.2250   15.5520   31.6060 C.ar  933  4HY933      0.0456
     11  C11       15.7480   18.8380   26.5700 C.ar  933  4HY933      0.0051
     12  C12       18.0350   15.5740   30.8850 C.ar  933  4HY933      0.0408
     13  C13       14.7880   21.1820   26.6220 C.3   933  4HY933      0.1404
     14  C14       13.2620   21.2560   26.7210 C.2   933  4HY933      0.3692
     15  I1        15.7720   18.6270   31.4440 I     933  4HY933     -0.0393
     16  I2        21.4930   18.8920   30.0040 I     933  4HY933     -0.0391
     17  I3        16.7480   16.0190   26.0680 I     933  4HY933     -0.0393
     18  O3        12.6090   20.8810   25.7240 O.co2 933  4HY933     -0.2453
     19  O2        16.6510   16.4750   29.2020 O.3   933  4HY933     -0.4526
     20  O1        21.3940   16.4490   32.0150 O.3   933  4HY933     -0.2861
     21  O4        12.7840   21.6870   27.7930 O.co2 933  4HY933     -0.2453
@<TRIPOS>BOND
     1    18    14   ar
     2    17     9    1
     3    11     9   ar
     4    11     1   ar
     5    13    14    1
     6    13     1    1
     7    14    21   ar
     8     9     7   ar
     9     1     3   ar
    10     7    19    1
    11     7     5   ar
    12     3     5   ar
    13    19     2    1
    14     5    15    1
    15     4     2   ar
    16     4     6   ar
    17     2    12   ar
    18    16     6    1
    19     6     8   ar
    20    12    10   ar
    21     8    10   ar
    22     8    20    1
