@<TRIPOS>MOLECULE
2pit_DHT_A_1.pdb
 21 24 0 0 0
SMALL
GASTEIGER

@<TRIPOS>ATOM
      1  C1        27.3270    5.3110    4.5490 C.3   931  DHT931      0.0078
      2  C2        26.5320    6.5610    4.9710 C.3   931  DHT931      0.0645
      3  C3        25.1010    6.4010    4.3720 C.2   931  DHT931      0.1506
      4  O3        24.6240    7.3320    3.7400 O.2   931  DHT931     -0.2961
      5  C4        24.3850    5.1050    4.5920 C.3   931  DHT931      0.0645
      6  C5        25.2300    3.8930    4.1140 C.3   931  DHT931      0.0073
      7  C6        24.5070    2.5260    4.3440 C.3   931  DHT931      0.0004
      8  C7        25.3890    1.3820    3.8150 C.3   931  DHT931      0.0000
      9  C8        26.7980    1.3420    4.5080 C.3   931  DHT931      0.0001
     10  C9        27.5110    2.7250    4.3050 C.3   931  DHT931      0.0000
     11  C10       26.6560    3.9360    4.8490 C.3   931  DHT931      0.0008
     12  C11       28.9280    2.6530    4.9720 C.3   931  DHT931      0.0001
     13  C12       29.8290    1.5060    4.5220 C.3   931  DHT931      0.0024
     14  C13       29.1190    0.1300    4.5830 C.3   931  DHT931      0.0282
     15  C14       27.7020    0.2320    3.9230 C.3   931  DHT931      0.0024
     16  C15       27.1980   -1.2270    4.0150 C.3   931  DHT931      0.0027
     17  C16       28.4760   -2.0310    3.6270 C.3   931  DHT931      0.0329
     18  C17       29.6390   -1.0050    3.7180 C.3   931  DHT931      0.1519
     19  O17       30.8040   -1.6410    4.2560 O.3   931  DHT931     -0.2232
     20  C18       29.0190   -0.3200    6.0970 C.3   931  DHT931      0.0025
     21  C19       26.4720    3.7720    6.4150 C.3   931  DHT931      0.0000
@<TRIPOS>BOND
     1    17    18    1
     2    17    16    1
     3    18    19    1
     4    18    14    1
     5     4     3    2
     6     8     7    1
     7     8     9    1
     8    15    16    1
     9    15     9    1
    10    15    14    1
    11     6     7    1
    12     6     5    1
    13     6    11    1
    14    10     9    1
    15    10    11    1
    16    10    12    1
    17     3     5    1
    18     3     2    1
    19    13    14    1
    20    13    12    1
    21     1    11    1
    22     1     2    1
    23    14    20    1
    24    11    21    1
