@<TRIPOS>MOLECULE
2piu_4HY_A_1.pdb
 21 22 0 0 0
SMALL
GASTEIGER

@<TRIPOS>ATOM
      1  C1        36.8740   13.8270   18.5900 C.ar  932  4HY932     -0.0099
      2  C2        36.8160    8.6510   17.5000 C.ar  932  4HY932      0.1460
      3  C3        36.5810   13.2570   17.2850 C.ar  932  4HY932      0.0051
      4  C4        35.7280    8.3870   18.2950 C.ar  932  4HY932      0.0465
      5  C5        36.8100   11.8900   17.0560 C.ar  932  4HY932      0.0647
      6  C6        34.8220    7.4320   17.9480 C.ar  932  4HY932      0.0720
      7  C7        37.3290   11.0440   18.0780 C.ar  932  4HY932      0.1558
      8  C8        34.9830    6.6950   16.7480 C.ar  932  4HY932      0.2012
      9  C9        37.5990   11.6280   19.3550 C.ar  932  4HY932      0.0647
     10  C10       36.1000    6.9370   15.9150 C.ar  932  4HY932      0.0456
     11  C11       37.3620   13.0430   19.5940 C.ar  932  4HY932      0.0051
     12  C12       37.0270    7.9270   16.3000 C.ar  932  4HY932      0.0408
     13  C13       36.6760   15.2870   18.8230 C.3   932  4HY932      0.1404
     14  C14       35.1800   15.7530   18.9160 C.2   932  4HY932      0.3692
     15  I1        36.3260   11.1090   15.1610 I     932  4HY932     -0.0393
     16  I2        33.2530    7.0280   19.1980 I     932  4HY932     -0.0391
     17  I3        38.3280   10.3960   20.8990 I     932  4HY932     -0.0393
     18  O3        34.5930   15.9870   17.8360 O.co2 932  4HY932     -0.2453
     19  O2        37.6740    9.6840   17.9090 O.3   932  4HY932     -0.4526
     20  O1        33.9990    5.7740   16.4010 O.3   932  4HY932     -0.2861
     21  O4        34.6910   15.8560   20.0640 O.co2 932  4HY932     -0.2453
@<TRIPOS>BOND
     1    15     5    1
     2    10    12   ar
     3    10     8   ar
     4    12     2   ar
     5    20     8    1
     6     8     6   ar
     7     5     3   ar
     8     5     7   ar
     9     3     1   ar
    10     2    19    1
    11     2     4   ar
    12    18    14   ar
    13    19     7    1
    14     6     4   ar
    15     6    16    1
    16     7     9   ar
    17     1    13    1
    18     1    11   ar
    19    13    14    1
    20    14    21   ar
    21     9    11   ar
    22     9    17    1
