@<TRIPOS>MOLECULE
2piv_T3_A_1.pdb
 23 24 0 0 0
SMALL
GASTEIGER

@<TRIPOS>ATOM
      1  C1        15.7980   19.6190   28.5680 C.ar  933  T3933      -0.0191
      2  C2        18.7510   16.2990   31.2010 C.ar  933  T3933       0.1460
      3  C3        15.9500   19.6120   30.0030 C.ar  933  T3933       0.0047
      4  C4        19.8260   17.0430   30.7450 C.ar  933  T3933       0.0465
      5  C5        16.5360   18.5160   30.6170 C.ar  933  T3933       0.0647
      6  C6        20.9610   17.1750   31.4820 C.ar  933  T3933       0.0720
      7  C7        17.0000   17.4090   29.8530 C.ar  933  T3933       0.1558
      8  C8        21.0620   16.5130   32.7410 C.ar  933  T3933       0.2012
      9  C9        16.8430   17.4460   28.4320 C.ar  933  T3933       0.0647
     10  C10       19.9720   15.7400   33.2270 C.ar  933  T3933       0.0456
     11  C11       16.2320   18.5860   27.7940 C.ar  933  T3933       0.0047
     12  C12       18.8050   15.6300   32.4420 C.ar  933  T3933       0.0408
     13  C13       15.4480   20.8250   27.8300 C.3   933  T3933       0.0570
     14  C15       14.0970   21.3590   28.1890 C.3   933  T3933       0.1986
     15  C17       13.8280   22.5360   27.2960 C.2   933  T3933       0.3822
     16  I1        16.6950   18.5010   32.7250 I     933  T3933      -0.0393
     17  I2        22.4970   18.3920   30.7830 I     933  T3933      -0.0391
     18  I3        17.5090   15.7980   27.2810 I     933  T3933      -0.0393
     19  N1        13.0830   20.3370   28.2000 N.3   933  T3933      -0.1205
     20  O1        22.2440   16.6420   33.4820 O.3   933  T3933      -0.2861
     21  O2        17.6020   16.2710   30.4030 O.3   933  T3933      -0.4526
     22  O3        13.0090   22.3590   26.2840 O.co2 933  T3933      -0.2440
     23  O4        14.2920   23.6830   27.5170 O.co2 933  T3933      -0.2440
@<TRIPOS>BOND
     1    22    15   ar
     2    18     9    1
     3    15    23   ar
     4    15    14    1
     5    11     9   ar
     6    11     1   ar
     7    13    14    1
     8    13     1    1
     9    14    19    1
    10     9     7   ar
    11     1     3   ar
    12     7    21    1
    13     7     5   ar
    14     3     5   ar
    15    21     2    1
    16     5    16    1
    17     4     2   ar
    18     4     6   ar
    19    17     6    1
    20     2    12   ar
    21     6     8   ar
    22    12    10   ar
    23     8    10   ar
    24     8    20    1
