@<TRIPOS>MOLECULE
2piw_T3_A_1.pdb
 23 24 0 0 0
SMALL
GASTEIGER

@<TRIPOS>ATOM
      1  C1        36.1040   13.9030   18.6820 C.ar  932  T3932      -0.0191
      2  C2        37.2200    8.9170   17.9310 C.ar  932  T3932       0.1460
      3  C3        36.3570   13.3010   17.3950 C.ar  932  T3932       0.0047
      4  C4        35.8760    8.6800   18.1620 C.ar  932  T3932       0.0465
      5  C5        36.9160   12.0340   17.3380 C.ar  932  T3932       0.0647
      6  C6        35.2230    7.6510   17.5590 C.ar  932  T3932       0.0720
      7  C7        37.2290   11.3170   18.5260 C.ar  932  T3932       0.1558
      8  C8        35.9390    6.7780   16.6900 C.ar  932  T3932       0.2012
      9  C9        36.9610   11.9350   19.7870 C.ar  932  T3932       0.0647
     10  C10       37.3220    6.9990   16.4410 C.ar  932  T3932       0.0456
     11  C11       36.3800   13.2540   19.8460 C.ar  932  T3932       0.0047
     12  C12       37.9680    8.0810   17.0750 C.ar  932  T3932       0.0408
     13  C13       35.2820   15.0960   18.8330 C.3   932  T3932       0.0570
     14  C15       35.8600   16.2950   18.1480 C.3   932  T3932       0.1986
     15  C17       34.9690   17.4630   18.4600 C.2   932  T3932       0.3822
     16  I1        37.3340   11.1960   15.4420 I     932  T3932      -0.0393
     17  I2        33.1790    7.4160   17.8710 I     932  T3932      -0.0391
     18  I3        37.4400   10.8900   21.5660 I     932  T3932      -0.0393
     19  N1        37.2580   16.4780   18.4400 N.3   932  T3932      -0.1205
     20  O1        35.2590    5.7100   16.0900 O.3   932  T3932      -0.2861
     21  O2        37.7930   10.0360   18.5460 O.3   932  T3932      -0.4526
     22  O3        35.3830   18.3210   19.3650 O.co2 932  T3932      -0.2440
     23  O4        33.8940   17.6860   17.8490 O.co2 932  T3932      -0.2440
@<TRIPOS>BOND
     1    16     5    1
     2    20     8    1
     3    10     8   ar
     4    10    12   ar
     5     8     6   ar
     6    12     2   ar
     7     5     3   ar
     8     5     7   ar
     9     3     1   ar
    10     6    17    1
    11     6     4   ar
    12    23    15   ar
    13     2     4   ar
    14     2    21    1
    15    14    19    1
    16    14    15    1
    17    14    13    1
    18    15    22   ar
    19     7    21    1
    20     7     9   ar
    21     1    13    1
    22     1    11   ar
    23     9    11   ar
    24     9    18    1
