@<TRIPOS>MOLECULE
2pix_FLF_A_1.pdb
 20 21 0 0 0
SMALL
GASTEIGER

@<TRIPOS>ATOM
      1  C1        20.0840   15.6620   31.3940 C.ar  2386  FLF2386     0.0950
      2  O1        20.7420   17.9120   30.9340 O.co2 2386  FLF2386    -0.2405
      3  C2        20.4610   14.5320   32.0990 C.ar  2386  FLF2386     0.0079
      4  C3        20.0280   13.2680   31.6900 C.ar  2386  FLF2386     0.0003
      5  O2        20.9050   17.1950   33.0240 O.co2 2386  FLF2386    -0.2405
      6  C4        19.2190   13.1490   30.5710 C.ar  2386  FLF2386     0.0013
      7  C5        18.8420   14.2980   29.8580 C.ar  2386  FLF2386     0.0167
      8  C6        19.2770   15.5480   30.2630 C.ar  2386  FLF2386     0.0768
      9  C7        20.6290   17.0320   31.8100 C.2   2386  FLF2386     0.3890
     10  N         18.8600   16.6720   29.6640 N.pl3 2386  FLF2386    -0.2123
     11  C1'       18.0940   16.7380   28.5810 C.ar  2386  FLF2386     0.0704
     12  C2'       17.7060   17.9870   28.1380 C.ar  2386  FLF2386     0.0204
     13  C3'       16.8600   18.1200   27.0270 C.ar  2386  FLF2386     0.0727
     14  C4'       16.4150   16.9870   26.3610 C.ar  2386  FLF2386     0.0039
     15  C5'       16.8050   15.7290   26.8100 C.ar  2386  FLF2386     0.0013
     16  C6'       17.6330   15.6030   27.9090 C.ar  2386  FLF2386     0.0165
     17  C7'       16.4090   19.5190   26.5820 C.3   2386  FLF2386     0.4186
     18  F1        16.0240   20.2380   27.6370 F     2386  FLF2386    -0.1659
     19  F2        15.3890   19.4190   25.7300 F     2386  FLF2386    -0.1659
     20  F3        17.4240   20.1340   25.9760 F     2386  FLF2386    -0.1659
@<TRIPOS>BOND
     1    19    17    1
     2    20    17    1
     3    14    15   ar
     4    14    13   ar
     5    17    13    1
     6    17    18    1
     7    15    16   ar
     8    13    12   ar
     9    16    11   ar
    10    12    11   ar
    11    11    10    1
    12    10     8    1
    13     7     8   ar
    14     7     6   ar
    15     8     1   ar
    16     6     4   ar
    17     2     9   ar
    18     1     9    1
    19     1     3   ar
    20     4     3   ar
    21     9     5   ar
