@<TRIPOS>MOLECULE
2piy_528_A_1.pdb
 33 34 0 0 0
SMALL
GASTEIGER

@<TRIPOS>ATOM
      1  C37       39.2930   14.7300   68.2480 C.ar  401  528401     -0.0043
      2  C38       40.5210   15.4400   68.2960 C.ar  401  528401     -0.0003
      3  C41       41.6140   15.0210   67.4950 C.ar  401  528401     -0.0000
      4  C40       41.4810   13.8940   66.6460 C.ar  401  528401     -0.0003
      5  C39       40.2540   13.1820   66.5960 C.ar  401  528401     -0.0043
      6  C36       39.1560   13.5980   67.3970 C.ar  401  528401     -0.0221
      7  C35       37.8210   12.8160   67.3520 C.3   401  528401      0.0282
      8  C34       36.6920   13.6000   66.6520 C.3   401  528401      0.0318
      9  C33       36.9240   13.7190   65.1400 C.3   401  528401      0.1709
     10  S32       35.7810   14.8830   64.3390 S.O2  401  528401      0.0578
     11  O32       34.3600   14.4580   64.5980 O.2   401  528401     -0.1561
     12  O33       36.0000   16.2510   64.9040 O.2   401  528401     -0.1561
     13  N31       36.0790   14.9090   62.7190 N.3   401  528401     -0.0735
     14  C27       35.0830   14.6060   61.7260 C.3   401  528401      0.1765
     15  C28       34.8910   15.7800   60.7300 C.3   401  528401      0.0274
     16  C30       36.1750   16.1800   59.9940 C.3   401  528401      0.0021
     17  C29       34.3310   17.0000   61.4690 C.3   401  528401      0.0021
     18  P24       35.3560   12.9430   60.9630 P.3   401  528401      0.2715
     19  O25       34.4320   12.7930   59.8150 O.2   401  528401     -0.2854
     20  O26       35.2360   11.9750   62.0800 O.3   401  528401     -0.1664
     21  C15       37.0720   12.9060   60.3390 C.3   401  528401      0.1064
     22  C1        37.4970   11.4490   60.0160 C.3   401  528401      0.1354
     23  C2        37.7360   10.6200   61.3020 C.2   401  528401      0.3689
     24  O14       37.3990    9.4200   61.2670 O.co2 401  528401     -0.2453
     25  O13       38.2560   11.2070   62.2820 O.co2 401  528401     -0.2453
     26  C3        38.7870   11.4110   59.1630 C.ar  401  528401     -0.0115
     27  C8        38.8010   10.6340   57.9820 C.ar  401  528401     -0.0065
     28  C4        39.9820   12.0610   59.5900 C.ar  401  528401     -0.0037
     29  C5        41.1750   11.9180   58.8420 C.ar  401  528401     -0.0006
     30  C6        41.1830   11.1330   57.6660 C.ar  401  528401     -0.0028
     31  C7        39.9950   10.4920   57.2370 C.ar  401  528401     -0.0035
     32  C9        40.0030    9.6280   55.9820 C.3   401  528401      0.1356
     33  N10       40.1050    8.2160   56.3740 N.3   401  528401     -0.1262
@<TRIPOS>BOND
     1    32    33    1
     2    32    31    1
     3    31    30   ar
     4    31    27   ar
     5    30    29   ar
     6    27    26   ar
     7    29    28   ar
     8    26    28   ar
     9    26    22    1
    10    19    18    2
    11    16    15    1
    12    22    21    1
    13    22    23    1
    14    21    18    1
    15    15    17    1
    16    15    14    1
    17    18    14    1
    18    18    20    1
    19    24    23   ar
    20    23    25   ar
    21    14    13    1
    22    13    10    1
    23    10    11    2
    24    10    12    2
    25    10     9    1
    26     9     8    1
    27     5     4   ar
    28     5     6   ar
    29     4     3   ar
    30     8     7    1
    31     7     6    1
    32     6     1   ar
    33     3     2   ar
    34     1     2   ar
