@<TRIPOS>MOLECULE
2piz_606_A_1.pdb
 27 28 0 0 0
SMALL
GASTEIGER

@<TRIPOS>ATOM
      1  C29       35.5980   18.5350   63.3690 C.ar  401  606401     -0.0043
      2  C30       36.3650   19.4500   64.1340 C.ar  401  606401     -0.0003
      3  C31       37.3160   20.2890   63.4910 C.ar  401  606401     -0.0000
      4  C32       37.4970   20.2130   62.0860 C.ar  401  606401     -0.0003
      5  C33       36.7290   19.2980   61.3210 C.ar  401  606401     -0.0043
      6  C28       35.7800   18.4590   61.9600 C.ar  401  606401     -0.0222
      7  C27       34.9430   17.4830   61.1210 C.3   401  606401      0.0269
      8  C26       35.4510   16.0480   61.2680 C.3   401  606401      0.0150
      9  C25       34.6780   15.0870   60.3590 C.3   401  606401      0.0898
     10  P24       35.1990   13.3660   60.6110 P.3   401  606401      0.2550
     11  O34       34.4640   12.5380   59.6320 O.2   401  606401     -0.2869
     12  O35       35.0350   13.0660   62.0440 O.3   401  606401     -0.1678
     13  C23       36.9470   13.3740   60.1230 C.3   401  606401      0.1051
     14  C1        37.5990   12.0100   60.4580 C.3   401  606401      0.1354
     15  C2        37.9090   11.8860   61.9770 C.2   401  606401      0.3689
     16  O14       37.7350   10.7690   62.4900 O.co2 401  606401     -0.2453
     17  O13       38.3360   12.9090   62.5830 O.co2 401  606401     -0.2453
     18  C3        38.9200   11.8050   59.6840 C.ar  401  606401     -0.0084
     19  C8        39.2110   10.5120   59.1750 C.ar  401  606401      0.0334
     20  C4        39.8950   12.8430   59.5750 C.ar  401  606401     -0.0035
     21  C5        41.1480   12.5730   58.9690 C.ar  401  606401      0.0027
     22  C6        41.4360   11.2760   58.4710 C.ar  401  606401      0.0371
     23  C7        40.4680   10.2450   58.5780 C.ar  401  606401      0.1589
     24  N9        40.7780    8.9930   58.1990 N.pl3 401  606401     -0.0605
     25  C10       40.4850    8.4880   56.9870 C.cat 401  606401      0.5393
     26  N12       39.8920    9.2310   56.0480 N.pl3 401  606401      0.1358
     27  N11       40.8210    7.2290   56.7200 N.pl3 401  606401      0.1358
@<TRIPOS>BOND
     1    26    25    1
     2    27    25    1
     3    25    24    2
     4    24    23    1
     5    22    23   ar
     6    22    21   ar
     7    23    19   ar
     8    21    20   ar
     9    19    18   ar
    10    20    18   ar
    11    11    10    2
    12    18    14    1
    13    13    14    1
    14    13    10    1
    15     9    10    1
    16     9     8    1
    17    14    15    1
    18    10    12    1
    19     7     8    1
    20     7     6    1
    21     5     6   ar
    22     5     4   ar
    23     6     1   ar
    24    15    16   ar
    25    15    17   ar
    26     4     3   ar
    27     1     2   ar
    28     3     2   ar
