@<TRIPOS>MOLECULE
2pj0_922_A_1.pdb
 33 34 0 0 0
SMALL
GASTEIGER

@<TRIPOS>ATOM
      1  C37       38.6870   14.5670   67.3650 C.ar  401  922401     -0.0007
      2  C38       39.9380   14.1510   67.9020 C.ar  401  922401     -0.0002
      3  C39       40.8610   13.4390   67.0930 C.ar  401  922401     -0.0000
      4  C40       40.5370   13.1390   65.7450 C.ar  401  922401     -0.0002
      5  C41       39.2900   13.5520   65.2080 C.ar  401  922401     -0.0007
      6  C36       38.3600   14.2720   66.0150 C.ar  401  922401      0.0213
      7  C33       37.1500   14.7290   65.4560 C.3   401  922401      0.2368
      8  O32       37.1350   15.0010   64.0360 O.3   401  922401     -0.4285
      9  C30       35.9480   14.8540   63.3630 C.2   401  922401      0.4220
     10  O31       34.8630   14.7340   63.9620 O.2   401  922401     -0.2245
     11  N29       36.0470   14.9570   62.0370 N.am  401  922401     -0.1579
     12  C25       34.9080   14.8150   61.1230 C.3   401  922401      0.2039
     13  C26       34.8860   15.9870   60.1150 C.3   401  922401      0.0321
     14  C28       34.5090   17.2870   60.8440 C.3   401  922401      0.0024
     15  C27       36.2170   16.1610   59.3750 C.3   401  922401      0.0024
     16  P24       34.9480   13.1490   60.3520 P.3   401  922401      0.3895
     17  O34       33.8970   13.0710   59.3160 O.2   401  922401     -0.2537
     18  O35       34.8880   12.1920   61.4770 O.3   401  922401     -0.1383
     19  O23       36.3790   13.0070   59.6460 O.3   401  922401     -0.2778
     20  C1        36.7480   11.7020   59.1790 C.3   401  922401      0.2486
     21  C2        37.3180   10.8640   60.3320 C.2   401  922401      0.3961
     22  O14       36.9740    9.6620   60.3670 O.co2 401  922401     -0.2426
     23  O13       38.0490   11.4480   61.1630 O.co2 401  922401     -0.2426
     24  C3        37.7330   11.7600   57.9850 C.ar  401  922401      0.0189
     25  C8        38.3780   10.5760   57.5780 C.ar  401  922401      0.0357
     26  C4        37.9610   12.9650   57.2590 C.ar  401  922401     -0.0012
     27  C5        38.8320   12.9580   56.1380 C.ar  401  922401      0.0028
     28  C6        39.4780   11.7550   55.7410 C.ar  401  922401      0.0371
     29  C7        39.2510   10.5580   56.4650 C.ar  401  922401      0.1589
     30  N9        39.8550    9.4010   56.0920 N.pl3 401  922401     -0.0605
     31  C10       40.5250    8.5940   56.9590 C.cat 401  922401      0.5393
     32  N12       40.9510    9.0460   58.1490 N.pl3 401  922401      0.1358
     33  N11       40.7940    7.3350   56.6140 N.pl3 401  922401      0.1358
@<TRIPOS>BOND
     1    28    27   ar
     2    28    29   ar
     3    30    29    1
     4    30    31    2
     5    27    26   ar
     6    29    25   ar
     7    33    31    1
     8    31    32    1
     9    26    24   ar
    10    25    24   ar
    11    24    20    1
    12    20    19    1
    13    20    21    1
    14    17    16    2
    15    15    13    1
    16    19    16    1
    17    13    14    1
    18    13    12    1
    19    21    22   ar
    20    21    23   ar
    21    16    12    1
    22    16    18    1
    23    12    11    1
    24    11     9   am
    25     9    10    2
    26     9     8    1
    27     8     7    1
    28     5     4   ar
    29     5     6   ar
    30     7     6    1
    31     4     3   ar
    32     6     1   ar
    33     3     2   ar
    34     1     2   ar
