@<TRIPOS>MOLECULE
2pj1_578_A_1.pdb
 31 32 0 0 0
SMALL
GASTEIGER

@<TRIPOS>ATOM
      1  C27       37.1300   13.9940   68.2270 C.ar  401  578401     -0.0007
      2  C28       38.2410   13.7790   69.0820 C.ar  401  578401     -0.0002
      3  C29       39.5270   13.5420   68.5330 C.ar  401  578401     -0.0000
      4  C30       39.7050   13.5180   67.1270 C.ar  401  578401     -0.0002
      5  C31       38.5970   13.7300   66.2720 C.ar  401  578401     -0.0007
      6  C26       37.3050   13.9720   66.8210 C.ar  401  578401      0.0213
      7  C23       36.2190   14.2060   65.9730 C.3   401  578401      0.2368
      8  O22       36.4920   14.4890   64.5840 O.3   401  578401     -0.4285
      9  C20       35.4280   14.4610   63.7320 C.2   401  578401      0.4220
     10  O21       34.2600   14.3610   64.1550 O.2   401  578401     -0.2245
     11  N19       35.7330   14.6320   62.4460 N.am  401  578401     -0.1579
     12  C15       34.7380   14.5980   61.3710 C.3   401  578401      0.2039
     13  C16       34.8130   15.8500   60.4730 C.3   401  578401      0.0321
     14  C18       34.3290   17.0910   61.2340 C.3   401  578401      0.0024
     15  C17       36.2030   16.0850   59.9080 C.3   401  578401      0.0024
     16  P14       34.9330   13.0080   60.4730 P.3   401  578401      0.3895
     17  O24       34.0740   12.9980   59.2740 O.2   401  578401     -0.2537
     18  O25       34.7230   11.9800   61.5200 O.3   401  578401     -0.1383
     19  O13       36.4850   12.8930   60.0060 O.3   401  578401     -0.2778
     20  C1        36.9680   11.5790   59.6210 C.3   401  578401      0.2485
     21  C2        37.2800   10.7090   60.8490 C.2   401  578401      0.3961
     22  O12       37.0430    9.4900   60.7430 O.co2 401  578401     -0.2426
     23  O11       37.7540   11.2840   61.8520 O.co2 401  578401     -0.2426
     24  C3        38.2310   11.6470   58.7620 C.ar  401  578401      0.0157
     25  C8        38.3740   10.7410   57.6840 C.ar  401  578401     -0.0042
     26  C4        39.3080   12.4920   59.1280 C.ar  401  578401     -0.0014
     27  C5        40.5320   12.4170   58.4250 C.ar  401  578401     -0.0005
     28  C6        40.6810   11.5060   57.3510 C.ar  401  578401     -0.0028
     29  C7        39.5980   10.6690   56.9800 C.ar  401  578401     -0.0034
     30  C9        39.7540    9.6830   55.8280 C.3   401  578401      0.1356
     31  N10       40.3870    8.4490   56.3170 N.3   401  578401     -0.1262
@<TRIPOS>BOND
     1    30    31    1
     2    30    29    1
     3    29    28   ar
     4    29    25   ar
     5    28    27   ar
     6    25    24   ar
     7    27    26   ar
     8    24    26   ar
     9    24    20    1
    10    17    16    2
    11    20    19    1
    12    20    21    1
    13    15    13    1
    14    19    16    1
    15    16    12    1
    16    16    18    1
    17    13    14    1
    18    13    12    1
    19    22    21   ar
    20    21    23   ar
    21    12    11    1
    22    11     9   am
    23     9    10    2
    24     9     8    1
    25     8     7    1
    26     7     6    1
    27     5     6   ar
    28     5     4   ar
    29     6     1   ar
    30     4     3   ar
    31     1     2   ar
    32     3     2   ar
