@<TRIPOS>MOLECULE
2pj2_864_A_1.pdb
 31 32 0 0 0
SMALL
GASTEIGER

@<TRIPOS>ATOM
      1  C1        37.1570   11.2900   59.7160 C.3   401  864401      0.1354
      2  C2        37.2910   10.5750   61.0050 C.2   401  864401      0.3689
      3  C3        38.4500   11.2270   58.9360 C.ar  401  864401     -0.0115
      4  C4        39.6360   12.0320   59.2630 C.ar  401  864401     -0.0037
      5  C5        40.8790   11.9450   58.5420 C.ar  401  864401     -0.0006
      6  C6        40.9260   11.0080   57.4480 C.ar  401  864401     -0.0028
      7  C7        39.7870   10.1910   57.0740 C.ar  401  864401     -0.0035
      8  C8        38.5530   10.3010   57.8190 C.ar  401  864401     -0.0065
      9  C9        39.8590    9.2460   55.9530 C.3   401  864401      0.1356
     10  N10       39.9850    7.8380   56.3680 N.3   401  864401     -0.1262
     11  O13       37.6870   11.1330   62.0610 O.co2 401  864401     -0.2453
     12  O14       37.0180    9.3580   61.0390 O.co2 401  864401     -0.2453
     13  C15       36.6050   12.7390   60.0370 C.3   401  864401      0.1067
     14  P24       35.0440   12.9250   60.6430 P.3   401  864401      0.2735
     15  C25       34.8300   14.3630   61.4890 C.3   401  864401      0.1778
     16  C26       34.9330   15.7110   60.6910 C.3   401  864401      0.0297
     17  C27       36.3250   16.2340   60.2970 C.3   401  864401      0.0023
     18  C28       34.2450   16.8510   61.4660 C.3   401  864401      0.0023
     19  N29       35.7230   14.3150   62.6340 N.am  401  864401     -0.1604
     20  C30       35.3160   14.2320   63.9310 C.2   401  864401      0.4219
     21  O31       34.0980   14.2100   64.2660 O.2   401  864401     -0.2245
     22  O32       36.3170   14.1540   64.8440 O.3   401  864401     -0.4285
     23  C33       36.1950   13.9520   66.2620 C.3   401  864401      0.2368
     24  O34       34.0960   12.8650   59.5580 O.2   401  864401     -0.2852
     25  O35       34.7870   11.8600   61.5730 O.3   401  864401     -0.1661
     26  C36       37.4950   13.9730   66.9450 C.ar  401  864401      0.0213
     27  C37       37.5960   14.6960   68.2040 C.ar  401  864401     -0.0007
     28  C38       38.8670   14.7330   68.9040 C.ar  401  864401     -0.0002
     29  C39       40.0070   14.0410   68.3220 C.ar  401  864401     -0.0000
     30  C40       39.9210   13.3150   67.0650 C.ar  401  864401     -0.0002
     31  C41       38.6480   13.2800   66.3680 C.ar  401  864401     -0.0007
@<TRIPOS>BOND
     1     9    10    1
     2     9     7    1
     3     7     6   ar
     4     7     8   ar
     5     6     5   ar
     6     8     3   ar
     7     5     4   ar
     8     3     4   ar
     9     3     1    1
    10    24    14    2
    11     1    13    1
    12     1     2    1
    13    13    14    1
    14    17    16    1
    15    14    15    1
    16    14    25    1
    17    16    18    1
    18    16    15    1
    19     2    12   ar
    20     2    11   ar
    21    15    19    1
    22    19    20   am
    23    20    21    2
    24    20    22    1
    25    22    23    1
    26    23    26    1
    27    31    26   ar
    28    31    30   ar
    29    26    27   ar
    30    30    29   ar
    31    27    28   ar
    32    29    28   ar
