@<TRIPOS>MOLECULE
2pj3_86A_A_1.pdb
 33 34 0 0 0
SMALL
GASTEIGER

@<TRIPOS>ATOM
      1  C37       37.5110   13.3620   67.7130 C.ar  401  86A401     -0.0043
      2  C38       38.3310   13.4990   68.8630 C.ar  401  86A401     -0.0003
      3  C39       39.7370   13.6230   68.7210 C.ar  401  86A401     -0.0000
      4  C40       40.3240   13.6090   67.4290 C.ar  401  86A401     -0.0003
      5  C41       39.5050   13.4710   66.2780 C.ar  401  86A401     -0.0043
      6  C36       38.0960   13.3480   66.4190 C.ar  401  86A401     -0.0217
      7  C33       37.2050   13.1890   65.1740 C.3   401  86A401      0.0360
      8  C24       36.8910   14.5440   64.5310 C.3   401  86A401      0.0915
      9  C30       35.7230   14.4280   63.5520 C.2   401  86A401      0.2422
     10  O31       34.5630   14.3310   63.9640 O.2   401  86A401     -0.2733
     11  N29       36.0650   14.4490   62.2550 N.am  401  86A401     -0.1946
     12  C25       35.0500   14.3490   61.1890 C.3   401  86A401      0.2005
     13  C26       35.1060   15.5550   60.2250 C.3   401  86A401      0.0320
     14  C28       34.5730   16.8140   60.9250 C.3   401  86A401      0.0024
     15  C27       36.5070   15.8110   59.6650 C.3   401  86A401      0.0024
     16  P24       35.1690   12.7100   60.3590 P.3   401  86A401      0.3894
     17  O34       34.1830   12.6440   59.2580 O.2   401  86A401     -0.2537
     18  O35       35.0810   11.7110   61.4490 O.3   401  86A401     -0.1383
     19  O23       36.6410   12.6290   59.7360 O.3   401  86A401     -0.2778
     20  C1        37.0580   11.3380   59.2780 C.3   401  86A401      0.2486
     21  C2        37.6470   10.5010   60.4460 C.2   401  86A401      0.3961
     22  O14       37.3920    9.2760   60.4400 O.co2 401  86A401     -0.2426
     23  O13       38.3080   11.1060   61.3170 O.co2 401  86A401     -0.2426
     24  C3        38.0310   11.4280   58.0800 C.ar  401  86A401      0.0189
     25  C8        38.7260   10.2690   57.6830 C.ar  401  86A401      0.0357
     26  C4        38.2100   12.6350   57.3500 C.ar  401  86A401     -0.0012
     27  C5        39.0880   12.6590   56.2290 C.ar  401  86A401      0.0028
     28  C6        39.7870   11.4770   55.8430 C.ar  401  86A401      0.0371
     29  C7        39.6030   10.2780   56.5770 C.ar  401  86A401      0.1589
     30  N9        40.2250    9.1390   56.2240 N.pl3 401  86A401     -0.0605
     31  C10       41.0350    8.4510   57.0590 C.cat 401  86A401      0.5393
     32  N12       41.3580    8.9280   58.2760 N.pl3 401  86A401      0.1358
     33  N11       41.5490    7.2950   56.6570 N.pl3 401  86A401      0.1358
@<TRIPOS>BOND
     1    28    27   ar
     2    28    29   ar
     3    30    29    1
     4    30    31    2
     5    27    26   ar
     6    29    25   ar
     7    33    31    1
     8    31    32    1
     9    26    24   ar
    10    25    24   ar
    11    24    20    1
    12    17    16    2
    13    20    19    1
    14    20    21    1
    15    15    13    1
    16    19    16    1
    17    13    14    1
    18    13    12    1
    19    16    12    1
    20    16    18    1
    21    22    21   ar
    22    21    23   ar
    23    12    11    1
    24    11     9   am
    25     9    10    2
    26     9     8    1
    27     8     7    1
    28     7     6    1
    29     5     6   ar
    30     5     4   ar
    31     6     1   ar
    32     4     3   ar
    33     1     2   ar
    34     3     2   ar
