@<TRIPOS>MOLECULE
2pj4_414_A_1.pdb
 36 38 0 0 0
SMALL
GASTEIGER

@<TRIPOS>ATOM
      1  C37       16.9760   29.0750   53.7340 C.ar  401  414401     -0.0007
      2  C38       17.7730   29.6590   52.7110 C.ar  401  414401     -0.0002
      3  C39       17.5700   29.2940   51.3520 C.ar  401  414401     -0.0000
      4  C40       16.5720   28.3450   51.0090 C.ar  401  414401     -0.0002
      5  C41       15.7790   27.7610   52.0260 C.ar  401  414401     -0.0007
      6  C36       15.9780   28.1250   53.3940 C.ar  401  414401      0.0213
      7  C33       15.1820   27.5530   54.3940 C.3   401  414401      0.2368
      8  O32       14.0510   26.7610   53.9850 O.3   401  414401     -0.4285
      9  C30       13.3160   26.1490   54.9620 C.2   401  414401      0.4220
     10  O31       13.5840   26.2940   56.1690 O.2   401  414401     -0.2245
     11  N29       12.2940   25.4240   54.5090 N.am  401  414401     -0.1579
     12  C25       11.3640   24.6830   55.3540 C.3   401  414401      0.2039
     13  C50        9.9250   25.1990   55.1520 C.3   401  414401      0.0321
     14  C51        9.5290   25.2320   53.6380 C.3   401  414401      0.0023
     15  C52        8.1430   25.8960   53.4270 C.3   401  414401      0.0001
     16  C53        8.1130   27.3300   54.0180 C.3   401  414401      0.0000
     17  C54        8.4320   27.2930   55.5290 C.3   401  414401      0.0001
     18  C55        9.8110   26.6400   55.7700 C.3   401  414401      0.0023
     19  P24       11.6220   22.8870   55.0740 P.3   401  414401      0.3895
     20  O34       10.6250   22.1200   55.8550 O.3   401  414401     -0.1383
     21  O35       13.0650   22.7290   55.3710 O.2   401  414401     -0.2537
     22  O23       11.4380   22.5860   53.4970 O.3   401  414401     -0.2778
     23  C1        12.0010   21.3350   53.0080 C.3   401  414401      0.2486
     24  C2        13.4800   21.5180   52.5770 C.2   401  414401      0.3961
     25  O14       14.2250   20.5080   52.6610 O.co2 401  414401     -0.2426
     26  O13       13.8430   22.6640   52.2340 O.co2 401  414401     -0.2426
     27  C3        11.1250   20.6930   51.8910 C.ar  401  414401      0.0189
     28  C8        11.6540   19.6620   51.0710 C.ar  401  414401      0.0357
     29  C4         9.7640   21.0790   51.7210 C.ar  401  414401     -0.0012
     30  C5         8.9540   20.4370   50.7440 C.ar  401  414401      0.0028
     31  C6         9.4940   19.4080   49.9270 C.ar  401  414401      0.0371
     32  C7        10.8470   19.0180   50.0850 C.ar  401  414401      0.1589
     33  N9        11.3580   18.0210   49.3240 N.pl3 401  414401     -0.0605
     34  C10       12.4600   18.1640   48.5580 C.cat 401  414401      0.5393
     35  N12       13.0860   19.3460   48.4420 N.pl3 401  414401      0.1358
     36  N11       12.9160   17.1110   47.8910 N.pl3 401  414401      0.1358
@<TRIPOS>BOND
     1    36    34    1
     2    35    34    1
     3    34    33    2
     4    33    32    1
     5    31    32   ar
     6    31    30   ar
     7    32    28   ar
     8    30    29   ar
     9     4     3   ar
    10     4     5   ar
    11    28    27   ar
    12     3     2   ar
    13    29    27   ar
    14    27    23    1
    15     5     6   ar
    16    26    24   ar
    17    24    25   ar
    18    24    23    1
    19     2     1   ar
    20    23    22    1
    21     6     1   ar
    22     6     7    1
    23    15    14    1
    24    15    16    1
    25    22    19    1
    26    14    13    1
    27     8     7    1
    28     8     9    1
    29    16    17    1
    30    11     9   am
    31    11    12    1
    32     9    10    2
    33    19    12    1
    34    19    21    2
    35    19    20    1
    36    13    12    1
    37    13    18    1
    38    17    18    1
