@<TRIPOS>MOLECULE
2pj5_11B_A_1.pdb
 35 36 0 0 0
SMALL
GASTEIGER

@<TRIPOS>ATOM
      1  C39       39.0030   13.9720   66.6010 C.ar  401  11B401     -0.0007
      2  C40       39.9780   13.8570   67.6070 C.ar  401  11B401     -0.0002
      3  C41       39.5870   13.6950   68.9470 C.ar  401  11B401     -0.0000
      4  C42       38.2220   13.6480   69.2790 C.ar  401  11B401     -0.0002
      5  C43       37.2460   13.7630   68.2730 C.ar  401  11B401     -0.0007
      6  C38       37.6340   13.9250   66.9330 C.ar  401  11B401      0.0213
      7  C35       36.6650   14.0440   65.9340 C.3   401  11B401      0.2368
      8  O34       37.0690   14.0330   64.5460 O.3   401  11B401     -0.4285
      9  C32       36.0370   14.2140   63.6620 C.2   401  11B401      0.4220
     10  O33       34.8720   14.3090   64.0730 O.2   401  11B401     -0.2245
     11  N31       36.3650   14.2810   62.3700 N.am  401  11B401     -0.1579
     12  C25       35.3790   14.3660   61.2820 C.3   401  11B401      0.2040
     13  C26       35.8670   15.3800   60.2280 C.3   401  11B401      0.0344
     14  C27       36.2600   16.7290   60.8540 C.3   401  11B401      0.0024
     15  C28       35.0760   17.4290   61.5370 C.3   401  11B401      0.0001
     16  C29       35.5270   18.7070   62.2640 C.3   401  11B401      0.0000
     17  C30       36.0990   19.7490   61.2950 C.3   401  11B401      0.0000
     18  P24       35.2350   12.6980   60.5390 P.3   401  11B401      0.3895
     19  O36       34.1810   12.7180   59.5050 O.2   401  11B401     -0.2537
     20  O37       35.1050   11.7340   61.6590 O.3   401  11B401     -0.1383
     21  O23       36.6630   12.4820   59.8220 O.3   401  11B401     -0.2778
     22  C1        37.0150   11.1670   59.3810 C.3   401  11B401      0.2486
     23  C2        37.6150   10.3610   60.5500 C.2   401  11B401      0.3961
     24  O14       37.3390    9.1420   60.5920 O.co2 401  11B401     -0.2426
     25  O13       38.3260   10.9810   61.3730 O.co2 401  11B401     -0.2426
     26  C3        38.0050   11.2240   58.1950 C.ar  401  11B401      0.0189
     27  C8        38.6800   10.0600   57.8080 C.ar  401  11B401      0.0357
     28  C4        38.2210   12.4210   57.4840 C.ar  401  11B401     -0.0012
     29  C5        39.1130   12.4390   56.3920 C.ar  401  11B401      0.0028
     30  C6        39.7900   11.2620   56.0110 C.ar  401  11B401      0.0371
     31  C7        39.5720   10.0680   56.7230 C.ar  401  11B401      0.1589
     32  N9        40.1890    8.9300   56.3630 N.pl3 401  11B401     -0.0605
     33  C10       41.0020    8.2540   57.2030 C.cat 401  11B401      0.5393
     34  N12       41.2940    8.7300   58.4190 N.pl3 401  11B401      0.1358
     35  N11       41.5440    7.1060   56.8080 N.pl3 401  11B401      0.1358
@<TRIPOS>BOND
     1    30    29   ar
     2    30    31   ar
     3    32    31    1
     4    32    33    2
     5    29    28   ar
     6    31    27   ar
     7    35    33    1
     8    33    34    1
     9    28    26   ar
    10    27    26   ar
    11    26    22    1
    12    22    21    1
    13    22    23    1
    14    19    18    2
    15    21    18    1
    16    13    14    1
    17    13    12    1
    18    18    12    1
    19    18    20    1
    20    23    24   ar
    21    23    25   ar
    22    14    15    1
    23    12    11    1
    24    17    16    1
    25    15    16    1
    26    11     9   am
    27     9    10    2
    28     9     8    1
    29     8     7    1
    30     7     6    1
    31     1     6   ar
    32     1     2   ar
    33     6     5   ar
    34     2     3   ar
    35     5     4   ar
    36     3     4   ar
