@<TRIPOS>MOLECULE
2pj6_059_A_1.pdb
 32 33 0 0 0
SMALL
GASTEIGER

@<TRIPOS>ATOM
      1  C36       -1.9620    5.3260    9.0040 C.ar  401  059401     -0.0042
      2  C37       -3.0020    4.4860    8.5380 C.ar  401  059401     -0.0003
      3  C38       -3.8640    3.8520    9.4690 C.ar  401  059401     -0.0000
      4  C39       -3.6840    4.0570   10.8630 C.ar  401  059401     -0.0003
      5  C40       -2.6420    4.8980   11.3290 C.ar  401  059401     -0.0042
      6  C35       -1.7810    5.5350   10.4000 C.ar  401  059401     -0.0204
      7  C34       -0.6870    6.4880   10.8930 C.3   401  059401      0.0534
      8  C33        0.7170    5.8860   10.7420 C.3   401  059401      0.1752
      9  S32        1.3320    4.9780   12.1980 S.O2  401  059401      0.0581
     10  O32        1.4110    5.9170   13.3640 O.2   401  059401     -0.1561
     11  O33        0.4190    3.8330   12.5390 O.2   401  059401     -0.1561
     12  N31        2.8550    4.3800   11.8300 N.3   401  059401     -0.0735
     13  C27        4.0560    4.7340   12.5080 C.3   401  059401      0.1765
     14  C28        4.7760    3.4800   13.0620 C.3   401  059401      0.0274
     15  C30        5.0130    2.4010   11.9970 C.3   401  059401      0.0021
     16  C29        3.9670    2.8770   14.2180 C.3   401  059401      0.0021
     17  P24        5.1200    5.8930   11.5190 P.3   401  059401      0.2715
     18  O25        6.3790    6.0750   12.2640 O.3   401  059401     -0.1664
     19  O26        4.2540    7.0860   11.2700 O.2   401  059401     -0.2854
     20  C15        5.4670    5.0790    9.9140 C.3   401  059401      0.1064
     21  C1         5.9220    6.1310    8.8610 C.3   401  059401      0.1354
     22  C2         4.7560    7.0510    8.4310 C.2   401  059401      0.3689
     23  O14        5.0420    8.2430    8.1780 O.co2 401  059401     -0.2453
     24  O13        3.6150    6.5320    8.3450 O.co2 401  059401     -0.2453
     25  C3         6.4690    5.4620    7.5900 C.ar  401  059401     -0.0115
     26  C8         7.6900    5.9200    7.0540 C.ar  401  059401     -0.0065
     27  C4         5.6950    4.5000    6.8810 C.ar  401  059401     -0.0037
     28  C5         6.1470    4.0180    5.6320 C.ar  401  059401     -0.0006
     29  C6         7.3680    4.4870    5.0940 C.ar  401  059401     -0.0028
     30  C7         8.1380    5.4350    5.8030 C.ar  401  059401     -0.0035
     31  C9         9.4400    5.9540    5.2130 C.3   401  059401      0.1356
     32  N10        9.1720    7.1880    4.4600 N.3   401  059401     -0.1262
@<TRIPOS>BOND
     1    32    31    1
     2    29    28   ar
     3    29    30   ar
     4    31    30    1
     5    28    27   ar
     6    30    26   ar
     7    27    25   ar
     8    26    25   ar
     9    25    21    1
    10    23    22   ar
    11    24    22   ar
    12    22    21    1
    13     2     1   ar
    14     2     3   ar
    15    21    20    1
    16     1     6   ar
    17     3     4   ar
    18    20    17    1
    19     6     7    1
    20     6     5   ar
    21     8     7    1
    22     8     9    1
    23     4     5   ar
    24    19    17    2
    25    17    18    1
    26    17    13    1
    27    12     9    1
    28    12    13    1
    29    15    14    1
    30     9    11    2
    31     9    10    2
    32    13    14    1
    33    14    16    1
