@<TRIPOS>MOLECULE
2pj7_235_A_1.pdb
 30 31 0 0 0
SMALL
GASTEIGER

@<TRIPOS>ATOM
      1  C35       37.2300   15.1860   66.6110 C.ar  401  235401      0.0200
      2  C36       38.2480   14.6620   67.4490 C.ar  401  235401      0.0014
      3  C37       38.8750   13.4330   67.1150 C.ar  401  235401      0.0001
      4  C38       38.4810   12.7310   65.9460 C.ar  401  235401      0.0014
      5  C39       37.4620   13.2550   65.1090 C.ar  401  235401      0.0200
      6  C34       36.8360   14.4820   65.4390 C.ar  401  235401      0.1236
      7  S32       35.5540   15.1160   64.4230 S.O2  401  235401      0.0773
      8  O33       35.3940   16.5210   64.6840 O.2   401  235401     -0.1516
      9  O32       34.2800   14.4000   64.7500 O.2   401  235401     -0.1516
     10  N31       35.9210   14.8990   62.8200 N.3   401  235401     -0.0693
     11  C27       34.9680   14.6850   61.7940 C.3   401  235401      0.1769
     12  C28       34.8830   15.9040   60.8280 C.3   401  235401      0.0274
     13  C30       36.2390   16.3130   60.2520 C.3   401  235401      0.0021
     14  C29       34.2530   17.1110   61.5340 C.3   401  235401      0.0021
     15  P24       35.3140   13.0850   60.9520 P.3   401  235401      0.2715
     16  O25       34.3560   12.9700   59.8270 O.2   401  235401     -0.2854
     17  O26       35.2040   12.0790   62.0410 O.3   401  235401     -0.1664
     18  C15       36.9960   12.9580   60.2460 C.3   401  235401      0.1064
     19  C1        37.4150   11.4940   59.9560 C.3   401  235401      0.1354
     20  C2        37.6140   10.6570   61.2440 C.2   401  235401      0.3689
     21  O14       37.3410    9.4440   61.1640 O.co2 401  235401     -0.2453
     22  O13       38.0610   11.2440   62.2600 O.co2 401  235401     -0.2453
     23  C3        38.7380   11.4520   59.1610 C.ar  401  235401     -0.0115
     24  C8        38.8040   10.6690   57.9880 C.ar  401  235401     -0.0065
     25  C4        39.9140   12.1050   59.6440 C.ar  401  235401     -0.0037
     26  C5        41.1400   11.9570   58.9560 C.ar  401  235401     -0.0006
     27  C6        41.1990   11.1650   57.7830 C.ar  401  235401     -0.0028
     28  C7        40.0320   10.5220   57.3000 C.ar  401  235401     -0.0035
     29  C9        40.0960    9.6560   56.0420 C.3   401  235401      0.1356
     30  N10       40.2620    8.2470   56.4340 N.3   401  235401     -0.1262
@<TRIPOS>BOND
     1    29    30    1
     2    29    28    1
     3    28    27   ar
     4    28    24   ar
     5    27    26   ar
     6    24    23   ar
     7    26    25   ar
     8    23    25   ar
     9    23    19    1
    10    16    15    2
    11    19    18    1
    12    19    20    1
    13    18    15    1
    14    13    12    1
    15    12    14    1
    16    12    11    1
    17    15    11    1
    18    15    17    1
    19    21    20   ar
    20    20    22   ar
    21    11    10    1
    22    10     7    1
    23     7     8    2
    24     7     9    2
    25     7     6    1
    26     5     6   ar
    27     5     4   ar
    28     6     1   ar
    29     4     3   ar
    30     1     2   ar
    31     3     2   ar
