@<TRIPOS>MOLECULE
2pj8_17A_A_1.pdb
 36 38 0 0 0
SMALL
GASTEIGER

@<TRIPOS>ATOM
      1  C41       37.9700   20.7890   67.0120 C.ar  401  17A401      0.0000
      2  C42       38.2610   22.1410   67.3150 C.ar  401  17A401      0.0000
      3  C43       37.3650   23.1660   66.9150 C.ar  401  17A401      0.0000
      4  C44       36.1760   22.8430   66.2140 C.ar  401  17A401      0.0000
      5  C45       35.8780   21.4910   65.9110 C.ar  401  17A401      0.0000
      6  C40       36.7720   20.4420   66.3030 C.ar  401  17A401      0.0000
      7  C37       36.5350   19.0920   65.8900 C.ar  401  17A401      0.0001
      8  C38       37.6270   18.1870   65.7000 C.ar  401  17A401      0.0014
      9  C39       37.4030   16.8830   65.1930 C.ar  401  17A401      0.0200
     10  C36       35.2130   18.6490   65.5610 C.ar  401  17A401      0.0014
     11  C35       34.9950   17.3440   65.0590 C.ar  401  17A401      0.0200
     12  C34       36.0880   16.4610   64.8730 C.ar  401  17A401      0.1236
     13  S32       35.8260   14.8600   64.2220 S.O2  401  17A401      0.0773
     14  O33       34.4730   14.4310   64.4930 O.2   401  17A401     -0.1516
     15  O32       36.7910   13.8970   64.8550 O.2   401  17A401     -0.1516
     16  N31       36.0960   14.8830   62.5540 N.3   401  17A401     -0.0693
     17  C27       35.1050   14.6150   61.6080 C.3   401  17A401      0.1769
     18  C28       34.9730   15.7960   60.6120 C.3   401  17A401      0.0274
     19  C30       36.2980   16.1720   59.9370 C.3   401  17A401      0.0021
     20  C29       34.4130   17.0280   61.3310 C.3   401  17A401      0.0021
     21  P24       35.4090   12.9730   60.8180 P.3   401  17A401      0.2715
     22  O25       34.4720   12.8420   59.6940 O.2   401  17A401     -0.2854
     23  O26       35.2840   12.0120   61.9370 O.3   401  17A401     -0.1664
     24  C15       37.0920   12.8170   60.1310 C.3   401  17A401      0.1064
     25  C1        37.4830   11.3520   59.8260 C.3   401  17A401      0.1354
     26  C2        37.6630   10.5060   61.1070 C.2   401  17A401      0.3689
     27  O14       37.4150    9.2870   61.0100 O.co2 401  17A401     -0.2453
     28  O13       38.0700   11.0950   62.1370 O.co2 401  17A401     -0.2453
     29  C3        38.8130   11.3210   59.0480 C.ar  401  17A401     -0.0115
     30  C8        38.8790   10.6190   57.8270 C.ar  401  17A401     -0.0065
     31  C4        39.9840   11.9380   59.5740 C.ar  401  17A401     -0.0037
     32  C5        41.2090   11.8450   58.8780 C.ar  401  17A401     -0.0006
     33  C6        41.2730   11.1380   57.6570 C.ar  401  17A401     -0.0028
     34  C7        40.1080   10.5210   57.1340 C.ar  401  17A401     -0.0035
     35  C9        40.1930    9.6890   55.8660 C.3   401  17A401      0.1356
     36  N10       40.3000    8.2700   56.2430 N.3   401  17A401     -0.1262
@<TRIPOS>BOND
     1    35    36    1
     2    35    34    1
     3    34    33   ar
     4    34    30   ar
     5    33    32   ar
     6    30    29   ar
     7    32    31   ar
     8    29    31   ar
     9    29    25    1
    10    22    21    2
    11    25    24    1
    12    25    26    1
    13    19    18    1
    14    24    21    1
    15    18    20    1
    16    18    17    1
    17    21    17    1
    18    21    23    1
    19    27    26   ar
    20    26    28   ar
    21    17    16    1
    22    16    13    1
    23    13    14    2
    24    13    15    2
    25    13    12    1
    26    12    11   ar
    27    12     9   ar
    28    11    10   ar
    29     9     8   ar
    30    10     7   ar
    31     8     7   ar
    32     7     6    1
    33     5     4   ar
    34     5     6   ar
    35     4     3   ar
    36     6     1   ar
    37     3     2   ar
    38     1     2   ar
