@<TRIPOS>MOLECULE
2pj9_281_A_1.pdb
 33 35 0 0 0
SMALL
GASTEIGER

@<TRIPOS>ATOM
      1  C35       36.0790   -0.3050   11.9830 C.ar  401  281401      0.1274
      2  N42       35.9360   -0.2240   10.6480 N.ar  401  281401     -0.1888
      3  S41       37.1970   -1.0250    9.9890 S.2   401  281401      0.1165
      4  N40       37.9750   -1.5090   11.3210 N.ar  401  281401     -0.1901
      5  C36       37.2710   -1.0600   12.3800 C.ar  401  281401      0.1102
      6  C37       37.5440   -1.2350   13.7610 C.ar  401  281401      0.0214
      7  C38       36.6950   -0.6970   14.7510 C.ar  401  281401      0.0030
      8  C39       35.5490    0.0310   14.3660 C.ar  401  281401      0.0216
      9  C34       35.2450    0.2260   12.9940 C.ar  401  281401      0.1433
     10  S32       33.8470    1.1770   12.5480 S.O2  401  281401      0.0788
     11  O33       33.0380    1.3950   13.7090 O.2   401  281401     -0.1515
     12  O32       33.0690    0.4400   11.5090 O.2   401  281401     -0.1515
     13  N31       34.3680    2.6370   11.8830 N.3   401  281401     -0.0692
     14  C27       34.1670    3.8000   12.6880 C.3   401  281401      0.1769
     15  C28       35.4720    4.4780   13.1930 C.3   401  281401      0.0274
     16  C30       36.5390    4.5740   12.0940 C.3   401  281401      0.0021
     17  C29       36.0480    3.7090   14.3870 C.3   401  281401      0.0021
     18  P24       33.0080    4.9770   11.8120 P.3   401  281401      0.2715
     19  O25       32.9090    6.2580   12.5460 O.3   401  281401     -0.1664
     20  O26       31.7780    4.1760   11.6140 O.2   401  281401     -0.2854
     21  C15       33.7640    5.3250   10.1760 C.3   401  281401      0.1064
     22  C1        32.7010    5.8290    9.1440 C.3   401  281401      0.1354
     23  C2        31.7270    4.7090    8.7190 C.2   401  281401      0.3689
     24  O14       30.5630    5.0550    8.4360 O.co2 401  281401     -0.2453
     25  O13       32.1730    3.5360    8.6650 O.co2 401  281401     -0.2453
     26  C3        33.3820    6.3710    7.8630 C.ar  401  281401     -0.0115
     27  C8        32.9480    7.6060    7.3190 C.ar  401  281401     -0.0065
     28  C4        34.3660    5.6040    7.1700 C.ar  401  281401     -0.0037
     29  C5        34.9000    6.0660    5.9440 C.ar  401  281401     -0.0006
     30  C6        34.4600    7.2960    5.3990 C.ar  401  281401     -0.0028
     31  C7        33.4860    8.0680    6.0840 C.ar  401  281401     -0.0035
     32  C9        33.0240    9.3970    5.4940 C.3   401  281401      0.1356
     33  N10       31.9970    9.1470    4.4700 N.3   401  281401     -0.1262
@<TRIPOS>BOND
     1    33    32    1
     2    30    29   ar
     3    30    31   ar
     4    32    31    1
     5    29    28   ar
     6    31    27   ar
     7    28    26   ar
     8    27    26   ar
     9    26    22    1
    10    24    23   ar
    11    25    23   ar
    12    23    22    1
    13    22    21    1
    14     3     2   ar
    15     3     4   ar
    16    21    18    1
    17     2     1   ar
    18     4     5   ar
    19    12    10    2
    20    20    18    2
    21    18    19    1
    22    18    14    1
    23    13    10    1
    24    13    14    1
    25     1     5   ar
    26     1     9   ar
    27    16    15    1
    28     5     6   ar
    29    10     9    1
    30    10    11    2
    31    14    15    1
    32     9     8   ar
    33    15    17    1
    34     6     7   ar
    35     8     7   ar
