@<TRIPOS>MOLECULE
2pja_33Z_A_1.pdb
 44 46 0 0 0
SMALL
GASTEIGER

@<TRIPOS>ATOM
      1  C49       38.6150   18.6500   62.7230 C.ar  401  33Z401     -0.0007
      2  C50       39.2120   19.0240   61.4920 C.ar  401  33Z401     -0.0002
      3  C51       38.4880   19.8240   60.5720 C.ar  401  33Z401     -0.0000
      4  C52       37.1710   20.2520   60.8830 C.ar  401  33Z401     -0.0002
      5  C53       36.5720   19.8780   62.1130 C.ar  401  33Z401     -0.0007
      6  C48       37.2930   19.0750   63.0330 C.ar  401  33Z401      0.0213
      7  C47       36.6920   18.6520   64.2160 C.3   401  33Z401      0.2368
      8  O46       36.6780   17.2330   64.4840 O.3   401  33Z401     -0.4285
      9  C44       36.2220   16.8260   65.7200 C.2   401  33Z401      0.4219
     10  O45       35.7640   17.6420   66.5300 O.2   401  33Z401     -0.2245
     11  N43       36.2440   15.5040   65.9630 N.am  401  33Z401     -0.1607
     12  C34       36.7060   14.5200   64.9480 C.3   401  33Z401      0.1804
     13  C35       36.9430   13.1520   65.5970 C.3   401  33Z401      0.0575
     14  C36       38.0730   13.2020   66.6370 C.ar  401  33Z401     -0.0200
     15  C37       39.4280   13.2920   66.2200 C.ar  401  33Z401     -0.0042
     16  C38       40.4670   13.3240   67.1840 C.ar  401  33Z401     -0.0003
     17  C41       40.1550   13.2670   68.5670 C.ar  401  33Z401     -0.0000
     18  C40       38.8030   13.1780   68.9880 C.ar  401  33Z401     -0.0003
     19  C39       37.7610   13.1460   68.0210 C.ar  401  33Z401     -0.0042
     20  C32       35.6220   14.3890   63.8690 C.2   401  33Z401      0.2621
     21  O33       34.4360   14.2730   64.1940 O.2   401  33Z401     -0.2715
     22  N31       36.0590   14.4750   62.6060 N.am  401  33Z401     -0.1957
     23  C27       35.1310   14.3760   61.4610 C.3   401  33Z401      0.1744
     24  C28       35.1290   15.6530   60.5720 C.3   401  33Z401      0.0296
     25  C30       36.5270   16.1410   60.1890 C.3   401  33Z401      0.0023
     26  C29       34.3790   16.7840   61.2860 C.3   401  33Z401      0.0023
     27  P24       35.3390   12.7860   60.5610 P.3   401  33Z401      0.2734
     28  O25       34.3460   12.7440   59.4610 O.2   401  33Z401     -0.2852
     29  O26       35.2660   11.7410   61.6140 O.3   401  33Z401     -0.1661
     30  C23       36.9980   12.7710   59.8450 C.3   401  33Z401      0.1067
     31  C1        37.3210   11.3250   59.4110 C.3   401  33Z401      0.1355
     32  C2        37.7640   10.4740   60.6340 C.2   401  33Z401      0.3689
     33  O14       38.3810   11.0550   61.5600 O.co2 401  33Z401     -0.2453
     34  O13       37.4200    9.2710   60.6330 O.co2 401  33Z401     -0.2453
     35  C3        38.3740   11.2740   58.2440 C.ar  401  33Z401     -0.0084
     36  C8        38.9010   10.0250   57.8250 C.ar  401  33Z401      0.0334
     37  C4        38.7300   12.4470   57.5110 C.ar  401  33Z401     -0.0035
     38  C5        39.5880   12.3610   56.3860 C.ar  401  33Z401      0.0027
     39  C6        40.1060   11.1060   55.9740 C.ar  401  33Z401      0.0371
     40  C7        39.7650    9.9360   56.6890 C.ar  401  33Z401      0.1589
     41  N9        40.2380    8.7380   56.2920 N.pl3 401  33Z401     -0.0605
     42  C10       41.1140    8.0350   57.0370 C.cat 401  33Z401      0.5393
     43  N12       41.5800    8.5270   58.1910 N.pl3 401  33Z401      0.1358
     44  N11       41.5400    6.8470   56.6080 N.pl3 401  33Z401      0.1358
@<TRIPOS>BOND
     1    39    38   ar
     2    39    40   ar
     3    41    40    1
     4    41    42    2
     5    38    37   ar
     6    44    42    1
     7    40    36   ar
     8    42    43    1
     9    37    35   ar
    10    36    35   ar
    11    35    31    1
    12    31    30    1
    13    31    32    1
    14    28    27    2
    15    30    27    1
    16    25    24    1
    17    27    23    1
    18    27    29    1
    19     3     4   ar
    20     3     2   ar
    21    24    26    1
    22    24    23    1
    23    34    32   ar
    24    32    33   ar
    25     4     5   ar
    26    23    22    1
    27     2     1   ar
    28     5     6   ar
    29    22    20   am
    30     1     6   ar
    31     6     7    1
    32    20    21    2
    33    20    12    1
    34     7     8    1
    35     8     9    1
    36    12    13    1
    37    12    11    1
    38    13    14    1
    39     9    11   am
    40     9    10    2
    41    15    14   ar
    42    15    16   ar
    43    14    19   ar
    44    16    17   ar
    45    19    18   ar
    46    17    18   ar
