@<TRIPOS>MOLECULE
2pjb_983_A_1.pdb
 44 46 0 0 0
SMALL
GASTEIGER

@<TRIPOS>ATOM
      1  C49       37.7940   19.6870   63.2180 C.ar  401  983401     -0.0007
      2  C50       36.7250   20.5490   62.8660 C.ar  401  983401     -0.0002
      3  C51       36.5290   20.9100   61.5110 C.ar  401  983401     -0.0000
      4  C52       37.4010   20.4100   60.5090 C.ar  401  983401     -0.0002
      5  C53       38.4690   19.5470   60.8570 C.ar  401  983401     -0.0007
      6  C48       38.6680   19.1830   62.2130 C.ar  401  983401      0.0213
      7  C47       39.7220   18.3260   62.5570 C.3   401  983401      0.2368
      8  O46       39.5900   17.4050   63.6810 O.3   401  983401     -0.4285
      9  C44       39.0100   16.1800   63.3880 C.2   401  983401      0.4215
     10  O45       38.6750   15.8940   62.2230 O.2   401  983401     -0.2246
     11  N43       38.8440   15.3430   64.4150 N.am  401  983401     -0.1683
     12  C34       38.2610   13.9890   64.2860 C.3   401  983401      0.1283
     13  C35       39.1050   12.9850   65.0850 C.3   401  983401      0.0500
     14  C36       40.5600   12.8390   64.5750 C.ar  401  983401     -0.0204
     15  C37       40.8990   13.0350   63.1980 C.ar  401  983401     -0.0042
     16  C38       42.2300   12.8310   62.7550 C.ar  401  983401     -0.0003
     17  C41       43.2270   12.4320   63.6780 C.ar  401  983401     -0.0000
     18  C40       42.8980   12.2400   65.0450 C.ar  401  983401     -0.0003
     19  C39       41.5680   12.4450   65.4930 C.ar  401  983401     -0.0042
     20  C33       36.8220   13.9470   64.8050 C.3   401  983401      0.1925
     21  S32       35.6810   15.0550   63.9130 S.O2  401  983401      0.0595
     22  O32       34.2720   14.6290   64.1990 O.2   401  983401     -0.1560
     23  O33       35.8880   16.4640   64.3830 O.2   401  983401     -0.1560
     24  N31       35.9690   14.9650   62.3010 N.3   401  983401     -0.0735
     25  C27       34.9830   14.6650   61.3290 C.3   401  983401      0.1765
     26  C28       34.8030   15.8310   60.3180 C.3   401  983401      0.0274
     27  C30       36.1110   16.2600   59.6420 C.3   401  983401      0.0021
     28  C29       34.1790   17.0430   61.0270 C.3   401  983401      0.0021
     29  P24       35.2460   12.9850   60.5990 P.3   401  983401      0.2715
     30  O25       34.3460   12.8190   59.4470 O.2   401  983401     -0.2854
     31  O26       35.1120   12.0490   61.7410 O.3   401  983401     -0.1664
     32  C15       36.9770   12.9540   60.0040 C.3   401  983401      0.1064
     33  C1        37.4180   11.4940   59.7180 C.3   401  983401      0.1354
     34  C2        37.5980   10.6660   61.0090 C.2   401  983401      0.3689
     35  O14       37.3250    9.4520   60.9320 O.co2 401  983401     -0.2453
     36  O13       38.0190   11.2580   62.0270 O.co2 401  983401     -0.2453
     37  C3        38.7430   11.4490   58.9300 C.ar  401  983401     -0.0115
     38  C8        38.7910   10.6840   57.7440 C.ar  401  983401     -0.0065
     39  C4        39.9290   12.0800   59.4190 C.ar  401  983401     -0.0037
     40  C5        41.1480   11.9260   58.7160 C.ar  401  983401     -0.0006
     41  C6        41.1880   11.1510   57.5290 C.ar  401  983401     -0.0028
     42  C7        40.0080   10.5310   57.0450 C.ar  401  983401     -0.0035
     43  C9        40.0470    9.6830   55.7750 C.3   401  983401      0.1356
     44  N10       40.0900    8.2580   56.1390 N.3   401  983401     -0.1262
@<TRIPOS>BOND
     1    43    44    1
     2    43    42    1
     3    42    41   ar
     4    42    38   ar
     5    41    40   ar
     6    38    37   ar
     7    40    39   ar
     8    37    39   ar
     9    37    33    1
    10    30    29    2
    11    27    26    1
    12    33    32    1
    13    33    34    1
    14    32    29    1
    15    26    28    1
    16    26    25    1
    17     4     5   ar
    18     4     3   ar
    19    29    25    1
    20    29    31    1
    21     5     6   ar
    22    35    34   ar
    23    34    36   ar
    24    25    24    1
    25     3     2   ar
    26     6     7    1
    27     6     1   ar
    28    10     9    2
    29    24    21    1
    30     7     8    1
    31    16    15   ar
    32    16    17   ar
    33     2     1   ar
    34    15    14   ar
    35     9     8    1
    36     9    11   am
    37    17    18   ar
    38    21    22    2
    39    21    23    2
    40    21    20    1
    41    12    11    1
    42    12    20    1
    43    12    13    1
    44    14    13    1
    45    14    19   ar
    46    18    19   ar
