@<TRIPOS>MOLECULE
2pjc_343_A_1.pdb
 45 47 0 0 0
SMALL
GASTEIGER

@<TRIPOS>ATOM
      1  C49       38.6540   18.7540   62.5460 C.ar  401  343401     -0.0007
      2  C50       39.2400   19.1450   61.3150 C.ar  401  343401     -0.0002
      3  C51       38.4780   19.8840   60.3730 C.ar  401  343401     -0.0000
      4  C52       37.1320   20.2310   60.6670 C.ar  401  343401     -0.0002
      5  C53       36.5450   19.8390   61.8990 C.ar  401  343401     -0.0007
      6  C48       37.3040   19.0980   62.8380 C.ar  401  343401      0.0213
      7  C47       36.7170   18.6490   64.0210 C.3   401  343401      0.2368
      8  O46       36.6480   17.2210   64.2190 O.3   401  343401     -0.4285
      9  C44       36.3140   16.7610   65.4760 C.2   401  343401      0.4219
     10  O45       35.8750   17.5300   66.3410 O.2   401  343401     -0.2245
     11  N43       36.4250   15.4380   65.6820 N.am  401  343401     -0.1607
     12  C34       36.8610   14.4960   64.6090 C.3   401  343401      0.1804
     13  C35       37.2080   13.1160   65.1980 C.3   401  343401      0.0575
     14  C36       38.2660   13.1990   66.3110 C.ar  401  343401     -0.0198
     15  C37       39.6440   13.2870   65.9880 C.ar  401  343401     -0.0009
     16  C38       40.6120   13.3450   67.0260 C.ar  401  343401      0.0417
     17  C41       40.2000   13.3150   68.3870 C.ar  401  343401      0.1957
     18  O42       41.1260   13.3630   69.3840 O.3   401  343401     -0.2866
     19  C40       38.8220   13.2280   68.7090 C.ar  401  343401      0.0417
     20  C39       37.8570   13.1710   67.6720 C.ar  401  343401     -0.0009
     21  C32       35.7070   14.3360   63.6040 C.2   401  343401      0.2622
     22  O33       34.5440   14.2470   64.0040 O.2   401  343401     -0.2715
     23  N31       36.0590   14.3730   62.3130 N.am  401  343401     -0.1932
     24  C27       35.0540   14.2310   61.2460 C.3   401  343401      0.2006
     25  C28       35.0520   15.4360   60.2750 C.3   401  343401      0.0320
     26  C30       36.4460   15.7650   59.7360 C.3   401  343401      0.0024
     27  C29       34.4410   16.6630   60.9650 C.3   401  343401      0.0024
     28  P24       35.2150   12.6100   60.4240 P.3   401  343401      0.3894
     29  O25       34.1780   12.5100   59.3670 O.2   401  343401     -0.2537
     30  O26       35.2020   11.5980   61.5000 O.3   401  343401     -0.1383
     31  O23       36.6570   12.5710   59.7280 O.3   401  343401     -0.2778
     32  C1        37.1060   11.2820   59.2760 C.3   401  343401      0.2486
     33  C2        37.7510   10.4920   60.4550 C.2   401  343401      0.3961
     34  O14       37.5080    9.2660   60.5130 O.co2 401  343401     -0.2426
     35  O13       38.4380   11.1350   61.2760 O.co2 401  343401     -0.2426
     36  C3        38.0760   11.3860   58.0600 C.ar  401  343401      0.0189
     37  C8        38.7480   10.2240   57.6390 C.ar  401  343401      0.0357
     38  C4        38.2960   12.6110   57.3670 C.ar  401  343401     -0.0012
     39  C5        39.1980   12.6460   56.2620 C.ar  401  343401      0.0028
     40  C6        39.8770   11.4570   55.8510 C.ar  401  343401      0.0371
     41  C7        39.6450   10.2420   56.5470 C.ar  401  343401      0.1589
     42  N9        40.2290    9.0850   56.1750 N.pl3 401  343401     -0.0605
     43  C10       41.0720    8.4010   56.9830 C.cat 401  343401      0.5393
     44  N12       41.4540    8.8930   58.1670 N.pl3 401  343401      0.1358
     45  N11       41.5820    7.2480   56.5740 N.pl3 401  343401      0.1358
@<TRIPOS>BOND
     1    40    39   ar
     2    40    41   ar
     3    42    41    1
     4    42    43    2
     5    39    38   ar
     6    41    37   ar
     7    45    43    1
     8    43    44    1
     9    38    36   ar
    10    37    36   ar
    11    36    32    1
    12    32    31    1
    13    32    33    1
    14    29    28    2
    15    31    28    1
    16    26    25    1
    17    25    27    1
    18    25    24    1
    19     3     4   ar
    20     3     2   ar
    21    28    24    1
    22    28    30    1
    23    33    34   ar
    24    33    35   ar
    25     4     5   ar
    26    24    23    1
    27     2     1   ar
    28     5     6   ar
    29    23    21   am
    30     1     6   ar
    31     6     7    1
    32    21    22    2
    33    21    12    1
    34     7     8    1
    35     8     9    1
    36    12    13    1
    37    12    11    1
    38    13    14    1
    39     9    11   am
    40     9    10    2
    41    15    14   ar
    42    15    16   ar
    43    14    20   ar
    44    16    17   ar
    45    20    19   ar
    46    17    19   ar
    47    17    18    1
