@<TRIPOS>MOLECULE
2pjl_047_A_1.pdb
 25 28 0 0 0
SMALL
GASTEIGER

@<TRIPOS>ATOM
      1  N1       -10.7060   -8.1570    7.7670 N.ar  600  047600     -0.3052
      2  C2       -11.4770   -7.3940    8.5860 C.ar  600  047600      0.0638
      3  C3       -12.7810   -7.8860    8.5740 C.ar  600  047600      0.0150
      4  C4       -12.6940   -9.0680    7.6420 C.ar  600  047600      0.0142
      5  C5       -11.4160   -9.1330    7.2320 C.ar  600  047600      0.0772
      6  C7       -13.8280   -9.9920    7.2580 C.3   600  047600      0.1165
      7  N10      -14.8930   -9.3050    6.4870 N.3   600  047600     -0.2132
      8  C12      -14.5360   -8.8910    5.1120 C.3   600  047600      0.0890
      9  C15      -15.3780   -7.6800    4.6040 C.3   600  047600      0.0174
     10  C17      -16.8840   -8.0390    4.3870 C.3   600  047600      0.0014
     11  C20      -17.6740   -6.8420    3.7910 C.3   600  047600      0.0000
     12  C23      -17.4510   -5.5250    4.5910 C.3   600  047600      0.0000
     13  C26      -15.9300   -5.2290    4.8000 C.3   600  047600      0.0000
     14  C29      -15.2500   -6.4300    5.5240 C.3   600  047600      0.0014
     15  C32      -13.8120   -7.3010    9.3180 C.ar  600  047600      0.0012
     16  C34      -13.4690   -6.1870   10.0890 C.ar  600  047600      0.0001
     17  C36      -12.1600   -5.6780   10.1020 C.ar  600  047600      0.0015
     18  C38      -11.1390   -6.2790    9.3600 C.ar  600  047600      0.0175
     19  C40       -9.3690   -8.0080    7.5380 C.ar  600  047600      0.0640
     20  C41       -8.5690   -9.1470    7.6630 C.ar  600  047600      0.0172
     21  C43       -7.1920   -9.0840    7.4430 C.ar  600  047600     -0.0028
     22  C45       -6.5890   -7.8740    7.0880 C.ar  600  047600     -0.0218
     23  C46       -7.3820   -6.7210    6.9490 C.ar  600  047600     -0.0028
     24  C48       -8.7680   -6.7900    7.1700 C.ar  600  047600      0.0172
     25  C50       -5.0710   -7.8710    6.8660 C.3   600  047600      0.0310
@<TRIPOS>BOND
     1    11    10    1
     2    11    12    1
     3    10     9    1
     4    12    13    1
     5     9     8    1
     6     9    14    1
     7    13    14    1
     8     8     7    1
     9     7     6    1
    10    25    22    1
    11    23    22   ar
    12    23    24   ar
    13    22    21   ar
    14    24    19   ar
    15     5     4   ar
    16     5     1   ar
    17     6     4    1
    18    21    20   ar
    19    19    20   ar
    20    19     1    1
    21     4     3   ar
    22     1     2   ar
    23     3     2   ar
    24     3    15   ar
    25     2    18   ar
    26    15    16   ar
    27    18    17   ar
    28    16    17   ar
