@<TRIPOS>MOLECULE
2pjt_347_A_1.pdb
 32 33 0 0 0
SMALL
GASTEIGER

@<TRIPOS>ATOM
      1  C1        -0.7000   23.1420  142.4390 C.3   401  347401      0.0900
      2  C2         0.4050   23.9370  141.9070 C.1   401  347401     -0.0882
      3  C3         1.3020   24.5920  141.4500 C.1   401  347401     -0.0671
      4  C4         2.3900   25.3920  140.8830 C.3   401  347401      0.1873
      5  N1         3.6160   25.2210  141.6370 N.pl3 401  347401     -0.2234
      6  C5         4.8950   25.5680  141.1760 C.ar  401  347401      0.0665
      7  C6         5.1840   26.6780  140.3210 C.ar  401  347401      0.0174
      8  C7         6.5050   26.9700  139.8810 C.ar  401  347401      0.0197
      9  C8         7.5860   26.1490  140.3020 C.ar  401  347401      0.1058
     10  C9         7.3580   25.0490  141.1630 C.ar  401  347401      0.0197
     11  C10        6.0060   24.7710  141.6010 C.ar  401  347401      0.0174
     12  S1         9.2450   26.5060  139.7250 S.O2  401  347401      0.0090
     13  O1         9.1490   27.8240  139.0970 O.2   401  347401     -0.1686
     14  O2         9.6760   25.3840  138.8880 O.2   401  347401     -0.1686
     15  C11       10.3310   26.5730  141.1660 C.3   401  347401      0.1618
     16  C12       10.6240   27.9440  141.8120 C.3   401  347401      0.0658
     17  C13       11.2660   28.9460  140.7420 C.3   401  347401      0.0293
     18  C14       11.8260   30.2290  141.3650 C.3   401  347401      0.0972
     19  N2        12.8100   29.9030  142.3710 N.am  401  347401     -0.2460
     20  C15       12.3240   29.0390  143.5040 C.3   401  347401      0.0972
     21  C16       11.6870   27.7160  142.9650 C.3   401  347401      0.0293
     22  C17       14.1440   30.4000  142.3700 C.2   401  347401      0.4046
     23  O3        14.5870   31.2360  141.5390 O.2   401  347401     -0.2262
     24  O4        14.8810   29.8010  143.4070 O.3   401  347401     -0.4418
     25  C18       16.3260   29.8210  143.7790 C.3   401  347401      0.1378
     26  C19       16.7710   28.3700  143.6880 C.3   401  347401      0.0437
     27  C20       17.1630   30.6070  142.7450 C.3   401  347401      0.0437
     28  C21       16.5440   30.3750  145.1820 C.3   401  347401      0.0437
     29  C22        9.3050   28.5230  142.4020 C.2   401  347401      0.0879
     30  O5         8.7170   27.9500  143.3330 O.2   401  347401     -0.5395
     31  N3         8.8000   29.6390  141.7640 N.am  401  347401     -0.2029
     32  O6         7.6260   30.2010  142.2610 O.3   401  347401     -0.4026
@<TRIPOS>BOND
     1    14    12    2
     2    13    12    2
     3    12     9    1
     4    12    15    1
     5     8     9   ar
     6     8     7   ar
     7     9    10   ar
     8     7     6   ar
     9    17    18    1
    10    17    16    1
    11     4     3    1
    12     4     5    1
    13    10    11   ar
    14    15    16    1
    15     6    11   ar
    16     6     5    1
    17    18    19    1
    18     3     2    3
    19    23    22    2
    20    31    32    1
    21    31    29   am
    22    16    29    1
    23    16    21    1
    24     2     1    1
    25    22    19   am
    26    22    24    1
    27    19    20    1
    28    29    30    2
    29    27    25    1
    30    21    20    1
    31    24    25    1
    32    26    25    1
    33    25    28    1
