@<TRIPOS>MOLECULE
2pk3_GDD_A_1.pdb
 39 42 0 0 0
SMALL
GASTEIGER

@<TRIPOS>ATOM
      1  N2        20.1920   17.6720   33.6040 N.pl3 410  GDD410     -0.0226
      2  C2        20.3630   16.6750   34.5110 C.1   410  GDD410      0.2531
      3  N1        19.3060   16.1750   35.1930 N.2   410  GDD410     -0.2485
      4  N3        21.5850   16.1750   34.7260 N.2   410  GDD410     -0.3074
      5  C4        21.7660   15.1680   35.6240 C.2   410  GDD410      0.2300
      6  C5        20.6960   14.6310   36.3360 C.2   410  GDD410      0.2182
      7  C6        19.4360   15.1660   36.0960 C.1   410  GDD410      0.2372
      8  O6        18.4110   14.7450   36.6860 O.2   410  GDD410     -0.2069
      9  N7        21.1830   13.6550   37.1440 N.2   410  GDD410     -0.2322
     10  C8        22.5160   13.5960   36.9510 C.3   410  GDD410      0.2246
     11  N9        22.8570   14.5220   36.0190 N.pl3 410  GDD410     -0.2354
     12  C1'       24.2330   14.7620   35.5320 C.3   410  GDD410      0.2293
     13  C2'       24.4100   14.7440   34.0170 C.3   410  GDD410      0.2310
     14  O2'       24.3610   13.4270   33.4520 O.3   410  GDD410     -0.2158
     15  C3'       25.7720   15.3880   33.8990 C.3   410  GDD410      0.2158
     16  O3'       26.7760   14.4230   34.1950 O.3   410  GDD410     -0.2175
     17  C4'       25.7930   16.4160   35.0350 C.3   410  GDD410      0.1799
     18  O4'       24.7110   16.0520   35.9130 O.3   410  GDD410     -0.3326
     19  C5'       25.5950   17.8280   34.4930 C.3   410  GDD410      0.1813
     20  O5'       24.5490   17.7850   33.5160 O.3   410  GDD410     -0.3112
     21  PA        23.7750   19.1020   32.9990 P.3   410  GDD410      0.2189
     22  O1A       23.4940   19.9810   34.2080 O.3   410  GDD410     -0.4371
     23  O2A       22.6110   18.7270   32.1270 O.2   410  GDD410     -0.5170
     24  O3A       24.8910   19.9110   32.1530 O.3   410  GDD410     -0.2703
     25  PB        26.0600   19.2950   31.2200 P.3   410  GDD410      0.2208
     26  O2B       27.3590   19.0830   32.0050 O.3   410  GDD410     -0.4371
     27  O3B       25.5100   18.1470   30.3910 O.2   410  GDD410     -0.5170
     28  O1B       26.2600   20.6130   30.2970 O.3   410  GDD410     -0.2857
     29  C11       26.3450   21.8950   30.9100 C.3   410  GDD410      0.2742
     30  O51       27.7130   22.2850   31.1420 O.3   410  GDD410     -0.3254
     31  C51       28.4760   22.5240   29.9420 C.3   410  GDD410      0.1835
     32  C61       29.8630   22.9950   30.3460 C.3   410  GDD410      0.2142
     33  O6A       30.6290   21.8490   30.6920 O.3   410  GDD410     -0.2176
     34  C21       25.6030   22.8900   30.0270 C.3   410  GDD410      0.2409
     35  O21       25.4590   24.1070   30.7820 O.3   410  GDD410     -0.2149
     36  C31       26.4030   23.1680   28.7420 C.3   410  GDD410      0.2198
     37  O31       25.7310   24.1480   27.9570 O.3   410  GDD410     -0.2174
     38  C41       27.8080   23.6090   29.1010 C.3   410  GDD410      0.2144
     39  O41       28.6530   23.8440   27.9470 O.3   410  GDD410     -0.2176
@<TRIPOS>BOND
     1    39    38    1
     2    37    36    1
     3    36    38    1
     4    36    34    1
     5    38    31    1
     6    31    32    1
     7    31    30    1
     8    34    35    1
     9    34    29    1
    10    28    29    1
    11    28    25    1
    12    32    33    1
    13    27    25    2
    14    29    30    1
    15    25    26    1
    16    25    24    1
    17    23    21    2
    18    24    21    1
    19    21    20    1
    20    21    22    1
    21    14    13    1
    22    20    19    1
    23     1     2    1
    24    15    13    1
    25    15    16    1
    26    15    17    1
    27    13    12    1
    28    19    17    1
    29     2     4    2
    30     2     3    2
    31     4     5    2
    32    17    18    1
    33     3     7    2
    34    12    18    1
    35    12    11    1
    36     5    11    1
    37     5     6    1
    38    11    10    1
    39     7     6    1
    40     7     8    2
    41     6     9    2
    42    10     9    1
