@<TRIPOS>MOLECULE
2pk3_A2R_A_1.pdb
 40 43 0 0 0
SMALL
GASTEIGER

@<TRIPOS>ATOM
      1  OP3       14.6310   30.0530   24.1650 O.3   401  A2R401     -0.1145
      2  P2'       14.9620   30.3550   22.7130 P.3   401  A2R401      0.5328
      3  OP1       14.0650   31.3620   22.0290 O.3   401  A2R401     -0.1145
      4  OP2       15.2200   29.1340   21.8440 O.2   401  A2R401     -0.2224
      5  O2'       16.3700   31.1390   22.8630 O.3   401  A2R401     -0.2630
      6  C2'       17.6150   30.4920   23.1040 C.3   401  A2R401      0.2314
      7  C1'       18.6110   31.0860   22.1190 C.3   401  A2R401      0.3158
      8  N9        18.4820   30.4500   20.8020 N.pl3 401  A2R401     -0.1439
      9  C4        18.3330   31.1670   19.6780 C.2   401  A2R401      0.3518
     10  N3        18.3290   32.5210   19.4430 N.2   401  A2R401     -0.0055
     11  C2        18.1670   32.9770   18.1900 C.3   401  A2R401      0.5254
     12  N1        18.0200   32.1350   17.1530 N.2   401  A2R401      0.0021
     13  C6        18.0160   30.7710   17.3530 C.2   401  A2R401      0.4393
     14  N6        17.8560   29.9210   16.3150 N.pl3 401  A2R401      0.2180
     15  C5        18.1770   30.2670   18.6410 C.2   401  A2R401      0.2526
     16  N7        18.2130   29.0150   19.1780 N.2   401  A2R401     -0.2095
     17  C8        18.4200   29.1190   20.5130 C.3   401  A2R401      0.3377
     18  O4'       19.8570   30.9920   22.7400 O.3   401  A2R401     -0.3136
     19  C3'       18.2080   30.8540   24.4500 C.3   401  A2R401      0.2157
     20  O3'       17.5610   32.0050   25.0300 O.3   401  A2R401     -0.2175
     21  C4'       19.6640   31.1930   24.1290 C.3   401  A2R401      0.1820
     22  C5'       20.6120   30.2690   24.8680 C.3   401  A2R401      0.1813
     23  O5'       20.3880   30.4620   26.2570 O.3   401  A2R401     -0.3112
     24  P         20.3390   29.2240   27.2950 P.3   401  A2R401      0.2189
     25  O1        19.8120   28.0060   26.5840 O.2   401  A2R401     -0.5170
     26  O2        19.5940   29.6990   28.5210 O.3   401  A2R401     -0.4371
     27  O3        21.8850   28.9310   27.5670 O.3   401  A2R401     -0.2703
     28  P1        22.9140   29.7370   28.4770 P.3   401  A2R401      0.2189
     29  O11       23.1220   28.9060   29.7210 O.3   401  A2R401     -0.4371
     30  O12       22.5820   31.2060   28.4580 O.2   401  A2R401     -0.5170
     31 O15'       24.2610   29.5690   27.5930 O.3   401  A2R401     -0.3112
     32 C15'       24.8150   30.6400   26.8100 C.3   401  A2R401      0.1813
     33 C14'       26.0040   30.1140   25.9900 C.3   401  A2R401      0.1807
     34 C13'       25.5690   29.1460   24.8930 C.3   401  A2R401      0.2168
     35 O13'       26.5030   29.2180   23.7820 O.3   401  A2R401     -0.2175
     36 C12'       25.6830   27.7770   25.5720 C.3   401  A2R401      0.2433
     37 O12'       25.8060   26.7010   24.6320 O.3   401  A2R401     -0.2148
     38 C11'       26.9430   27.9860   26.4130 C.3   401  A2R401      0.3023
     39 O14'       26.8820   29.3550   26.8480 O.3   401  A2R401     -0.3237
     40 O11'       27.0110   27.0970   27.5270 O.3   401  A2R401     -0.1869
@<TRIPOS>BOND
     1    14    13    1
     2    12    13    2
     3    12    11    1
     4    13    15    1
     5    11    10    1
     6    15    16    2
     7    15     9    1
     8    16    17    1
     9    10     9    2
    10     9     8    1
    11    17     8    1
    12     8     7    1
    13     4     2    2
    14     3     2    1
    15     7    18    1
    16     7     6    1
    17     2     5    1
    18     2     1    1
    19    18    21    1
    20     5     6    1
    21     6    19    1
    22    35    34    1
    23    21    19    1
    24    21    22    1
    25    19    20    1
    26    37    36    1
    27    22    23    1
    28    34    36    1
    29    34    33    1
    30    36    38    1
    31    33    32    1
    32    33    39    1
    33    23    24    1
    34    38    39    1
    35    38    40    1
    36    25    24    2
    37    32    31    1
    38    24    27    1
    39    24    26    1
    40    27    28    1
    41    31    28    1
    42    30    28    2
    43    28    29    1
