@<TRIPOS>MOLECULE
2pkk_2FA_A_1.pdb
 20 22 0 0 0
SMALL
GASTEIGER

@<TRIPOS>ATOM
      1  O5'       14.6790   60.0210   21.8800 O.3   501  2FA501     -0.2176
      2  C5'       13.3850   60.5850   22.2540 C.3   501  2FA501      0.2142
      3  C4'       12.9640   60.0180   23.6050 C.3   501  2FA501      0.1828
      4  O4'       13.2260   58.6290   23.7810 O.3   501  2FA501     -0.3325
      5  C1'       12.2350   58.0110   24.6610 C.3   501  2FA501      0.2293
      6  N9        13.0200   57.3580   25.7410 N.pl3 501  2FA501     -0.2359
      7  C4        13.1010   56.0520   25.9740 C.2   501  2FA501      0.2224
      8  N3        12.5280   54.9530   25.4050 N.2   501  2FA501     -0.3001
      9  C2        12.8150   53.7420   25.9050 C.1   501  2FA501      0.2998
     10  F         12.2740   52.6720   25.3280 F     501  2FA501     -0.0976
     11  N1        13.6500   53.5270   26.9570 N.2   501  2FA501     -0.2971
     12  C6        14.2870   54.5220   27.5780 C.2   501  2FA501      0.2545
     13  N6        15.0990   54.2730   28.6320 N.pl3 501  2FA501     -0.0903
     14  C5        14.0190   55.8880   27.1110 C.2   501  2FA501      0.1707
     15  N7        14.4340   57.1160   27.4700 N.2   501  2FA501     -0.2401
     16  C8        13.8380   57.9930   26.6210 C.3   501  2FA501      0.2238
     17  C2'       11.3280   59.1410   25.1620 C.3   501  2FA501      0.2310
     18  O2'        9.9460   58.7900   25.2100 O.3   501  2FA501     -0.2158
     19  C3'       11.5930   60.3410   24.2390 C.3   501  2FA501      0.2159
     20  O3'       10.4960   60.6540   23.3650 O.3   501  2FA501     -0.2175
@<TRIPOS>BOND
     1     1     2    1
     2     2     3    1
     3    20    19    1
     4     3     4    1
     5     3    19    1
     6     4     5    1
     7    19    17    1
     8     5    17    1
     9     5     6    1
    10    17    18    1
    11    10     9    1
    12     8     9    2
    13     8     7    2
    14     6     7    1
    15     6    16    1
    16     9    11    2
    17     7    14    1
    18    16    15    1
    19    11    12    2
    20    14    15    2
    21    14    12    1
    22    12    13    1
