@<TRIPOS>MOLECULE
2pkl_III_B_1.pdb
 36 36 0 0 0
SMALL
GASTEIGER

@<TRIPOS>ATOM
      1  N         38.4490    9.5300   22.6930 N.3   924  LYS924     -0.1231
      2  CA        39.5920    8.8870   22.0440 C.3   924  LYS924      0.1693
      3  C         39.8900    9.4820   20.6640 C.2   924  LYS924      0.2592
      4  O         39.3160   10.5070   20.2940 O.2   924  LYS924     -0.2718
      5  CB        39.3550    7.3770   21.9050 C.3   924  LYS924      0.0285
      6  CG        39.5600    6.5520   23.1780 C.3   924  LYS924      0.0035
      7  CD        39.4740    5.0620   22.8410 C.3   924  LYS924      0.0206
      8  CE        39.8980    4.1540   24.0050 C.3   924  LYS924      0.1093
      9  NZ        40.0080    2.7140   23.5380 N.3   924  LYS924     -0.1314
     10  N         40.7870    8.8200   19.9240 N.am  925  LEU925     -0.1966
     11  CA        41.2210    9.2280   18.5750 C.3   925  LEU925      0.1728
     12  C         40.1890   10.0940   17.8490 C.2   925  LEU925      0.2616
     13  O         40.5540   11.0720   17.1840 O.2   925  LEU925     -0.2715
     14  CB        41.5440    7.9910   17.7160 C.3   925  LEU925      0.0311
     15  CG        42.2800    8.2180   16.3860 C.3   925  LEU925      0.0022
     16  CD1       43.7210    8.6380   16.6630 C.3   925  LEU925      0.0001
     17  CD2       42.2580    6.9430   15.5510 C.3   925  LEU925      0.0001
     18  N         38.9100    9.7200   17.9670 N.am  926  LEU926     -0.1963
     19  CA        37.8050   10.4660   17.3550 C.3   926  LEU926      0.1728
     20  C         36.6580   10.5610   18.3620 C.2   926  LEU926      0.2616
     21  O         35.6530    9.8410   18.2660 O.2   926  LEU926     -0.2715
     22  CB        37.3330    9.7830   16.0610 C.3   926  LEU926      0.0311
     23  CG        36.2820   10.4580   15.1630 C.3   926  LEU926      0.0022
     24  CD1       34.9160    9.8530   15.4180 C.3   926  LEU926      0.0001
     25  CD2       36.2720   11.9560   15.3920 C.3   926  LEU926      0.0001
     26  N         36.8330   11.4490   19.3390 N.am  927  PHE927     -0.1974
     27  CA        35.8350   11.6560   20.3760 C.3   927  PHE927      0.1639
     28  C         36.0250   13.0170   21.0470 C.2   927  PHE927      0.2290
     29  O         36.2610   13.1040   22.2530 O.2   927  PHE927     -0.2864
     30  CB        35.9240   10.5420   21.4230 C.3   927  PHE927      0.0560
     31  CG        34.6320   10.2860   22.1310 C.ar  927  PHE927     -0.0200
     32  CD1       33.5860    9.6500   21.4700 C.ar  927  PHE927     -0.0042
     33  CD2       34.4390   10.7260   23.4410 C.ar  927  PHE927     -0.0042
     34  CE1       32.3680    9.4570   22.0960 C.ar  927  PHE927     -0.0003
     35  CE2       33.2200   10.5380   24.0800 C.ar  927  PHE927     -0.0003
     36  CZ        32.1810    9.9030   23.4060 C.ar  927  PHE927     -0.0000
@<TRIPOS>BOND
     1    23    25    1
     2    23    24    1
     3    23    22    1
     4    17    15    1
     5    22    19    1
     6    15    16    1
     7    15    14    1
     8    13    12    2
     9    19    18    1
    10    19    20    1
    11    14    11    1
    12    12    18   am
    13    12    11    1
    14    21    20    2
    15    20    26   am
    16    11    10    1
    17    26    27    1
    18    10     3   am
    19     4     3    2
    20    27    28    1
    21    27    30    1
    22     3     2    1
    23    28    29    2
    24    30    31    1
    25    32    34   ar
    26    32    31   ar
    27     5     2    1
    28     5     6    1
    29     2     1    1
    30    34    36   ar
    31    31    33   ar
    32     7     6    1
    33     7     8    1
    34    36    35   ar
    35    33    35   ar
    36     9     8    1
