@<TRIPOS>MOLECULE
2pkl_4HY_A_1.pdb
 21 22 0 0 0
SMALL
GASTEIGER

@<TRIPOS>ATOM
      1  C1        14.9830   19.6850   28.4580 C.ar  932  4HY932     -0.0099
      2  C2        18.2380   16.2650   30.8160 C.ar  932  4HY932      0.1460
      3  C3        15.1440   19.6080   29.9000 C.ar  932  4HY932      0.0051
      4  C4        19.1680   17.2530   30.5110 C.ar  932  4HY932      0.0465
      5  C5        15.7880   18.4950   30.4660 C.ar  932  4HY932      0.0647
      6  C6        20.4180   17.2760   31.0850 C.ar  932  4HY932      0.0720
      7  C7        16.2850   17.4450   29.6760 C.ar  932  4HY932      0.1558
      8  C8        20.7790   16.2480   32.0210 C.ar  932  4HY932      0.2012
      9  C9        16.1100   17.5280   28.2680 C.ar  932  4HY932      0.0647
     10  C10       19.8420   15.2310   32.3440 C.ar  932  4HY932      0.0456
     11  C11       15.4450   18.6770   27.6610 C.ar  932  4HY932      0.0051
     12  C12       18.5670   15.2430   31.7370 C.ar  932  4HY932      0.0408
     13  C13       14.3500   20.8930   27.8440 C.3   932  4HY932      0.1404
     14  C14       12.7780   20.9490   27.9060 C.2   932  4HY932      0.3692
     15  I1        15.9820   18.3620   32.5500 I     932  4HY932     -0.0393
     16  I2        21.7370   18.8190   30.6100 I     932  4HY932     -0.0391
     17  I3        16.7730   15.9190   27.0990 I     932  4HY932     -0.0393
     18  O3        12.1730   21.0120   26.8080 O.co2 932  4HY932     -0.2453
     19  O2        16.9540   16.3110   30.1950 O.3   932  4HY932     -0.4526
     20  O1        22.0570   16.2590   32.5980 O.3   932  4HY932     -0.2861
     21  O4        12.2460   20.9320   29.0470 O.co2 932  4HY932     -0.2453
@<TRIPOS>BOND
     1    18    14   ar
     2    17     9    1
     3    11     9   ar
     4    11     1   ar
     5    13    14    1
     6    13     1    1
     7    14    21   ar
     8     9     7   ar
     9     1     3   ar
    10     7    19    1
    11     7     5   ar
    12     3     5   ar
    13    19     2    1
    14     5    15    1
    15     4     2   ar
    16     4     6   ar
    17    16     6    1
    18     2    12   ar
    19     6     8   ar
    20    12    10   ar
    21     8    10   ar
    22     8    20    1
