@<TRIPOS>MOLECULE
2pkm_ADN_A_1.pdb
 19 21 0 0 0
SMALL
GASTEIGER

@<TRIPOS>ATOM
      1  O5'       21.2590    2.5030   21.9360 O.3   501  ADN501     -0.2176
      2  C5'       22.4800    1.8520   22.3980 C.3   501  ADN501      0.2143
      3  C4'       22.8990    2.4200   23.7520 C.3   501  ADN501      0.1851
      4  O4'       22.7120    3.8270   23.8460 O.3   501  ADN501     -0.3134
      5  C3'       24.2830    2.0750   24.3600 C.3   501  ADN501      0.2186
      6  O3'       25.3980    1.7980   23.4920 O.3   501  ADN501     -0.2174
      7  C2'       24.5990    3.2650   25.2470 C.3   501  ADN501      0.2570
      8  O2'       26.0020    3.5700   25.2480 O.3   501  ADN501     -0.2130
      9  C1'       23.7600    4.3930   24.6730 C.3   501  ADN501      0.3186
     10  N9        22.9790    5.0240   25.7270 N.pl3 501  ADN501     -0.1439
     11  C8        22.1490    4.4250   26.6100 C.3   501  ADN501      0.3377
     12  N7        21.5710    5.3260   27.4130 N.2   501  ADN501     -0.2095
     13  C5        22.0450    6.5110   27.0170 C.2   501  ADN501      0.2526
     14  C6        21.8460    7.8820   27.4250 C.2   501  ADN501      0.4393
     15  N6        21.0130    8.1230   28.4430 N.pl3 501  ADN501      0.2180
     16  N1        22.5190    8.8430   26.7640 N.2   501  ADN501      0.0021
     17  C2        23.3480    8.6080   25.7360 C.3   501  ADN501      0.5254
     18  N3        23.5800    7.3730   25.2870 N.2   501  ADN501     -0.0055
     19  C4        22.9610    6.3200   25.9010 C.2   501  ADN501      0.3518
@<TRIPOS>BOND
     1     1     2    1
     2     2     3    1
     3     6     5    1
     4     3     4    1
     5     3     5    1
     6     4     9    1
     7     5     7    1
     8     9     7    1
     9     9    10    1
    10     7     8    1
    11    18    17    1
    12    18    19    2
    13    10    19    1
    14    10    11    1
    15    17    16    1
    16    19    13    1
    17    11    12    1
    18    16    14    2
    19    13    12    2
    20    13    14    1
    21    14    15    1
