@<TRIPOS>MOLECULE
2pkn_ACP_A_1.pdb
 31 33 0 0 0
SMALL
GASTEIGER

@<TRIPOS>ATOM
      1  PG        18.5460   67.0430   12.2540 P.3   325  ACP325      0.1295
      2  O1G       17.5470   66.9650   13.3930 O.3   325  ACP325     -0.3567
      3  O2G       19.2890   65.7440   12.0490 O.2   325  ACP325     -0.4595
      4  O3G       19.4070   68.2900   12.2390 O.3   325  ACP325     -0.3567
      5  PB        15.8820   66.7950   10.8560 P.3   325  ACP325      0.3815
      6  O1B       15.7530   65.2990   10.6470 O.2   325  ACP325     -0.2547
      7  O2B       15.2980   67.3860   12.1220 O.3   325  ACP325     -0.1391
      8  C3B       17.6240   67.2610   10.7090 C.3   325  ACP325      0.1768
      9  PA        15.2790   67.2580    8.0730 P.3   325  ACP325      0.2209
     10  O1A       16.4010   66.2800    7.8140 O.3   325  ACP325     -0.4371
     11  O2A       13.8680   66.9240    7.6320 O.2   325  ACP325     -0.5170
     12  O3A       15.1550   67.5920    9.6490 O.3   325  ACP325     -0.2483
     13  O5'       15.7480   68.6560    7.4140 O.3   325  ACP325     -0.3111
     14  C5'       15.0500   69.8830    7.6480 C.3   325  ACP325      0.1813
     15  C4'       15.0030   70.7140    6.3690 C.3   325  ACP325      0.1821
     16  O4'       16.3140   70.9050    5.8280 O.3   325  ACP325     -0.3135
     17  C3'       14.1970   70.0900    5.2280 C.3   325  ACP325      0.2184
     18  O3'       12.7900   70.3190    5.3520 O.3   325  ACP325     -0.2174
     19  C2'       14.8210   70.7560    4.0080 C.3   325  ACP325      0.2570
     20  O2'       14.2660   72.0630    3.7550 O.3   325  ACP325     -0.2130
     21  C1'       16.2940   70.8930    4.3940 C.3   325  ACP325      0.3186
     22  N9        17.0260   69.7300    3.7960 N.pl3 325  ACP325     -0.1439
     23  C8        17.1760   68.4950    4.3280 C.3   325  ACP325      0.3377
     24  N7        17.8670   67.6690    3.4910 N.2   325  ACP325     -0.2095
     25  C5        18.1670   68.3770    2.3860 C.2   325  ACP325      0.2526
     26  C6        18.8740   68.1210    1.1020 C.2   325  ACP325      0.4393
     27  N6        19.4290   66.9070    0.8310 N.pl3 325  ACP325      0.2180
     28  N1        18.9580   69.1430    0.2100 N.2   325  ACP325      0.0021
     29  C2        18.4300   70.3560    0.4590 C.3   325  ACP325      0.5254
     30  N3        17.7750   70.6540    1.6020 N.2   325  ACP325     -0.0055
     31  C4        17.6100   69.7300    2.5870 C.2   325  ACP325      0.3518
@<TRIPOS>BOND
     1    28    29    1
     2    28    26    2
     3    29    30    1
     4    27    26    1
     5    26    25    1
     6    30    31    2
     7    25    31    1
     8    25    24    2
     9    31    22    1
    10    24    23    1
    11    20    19    1
    12    22    23    1
    13    22    21    1
    14    19    21    1
    15    19    17    1
    16    21    16    1
    17    17    18    1
    18    17    15    1
    19    16    15    1
    20    15    14    1
    21    13    14    1
    22    13     9    1
    23    11     9    2
    24    10     9    1
    25     9    12    1
    26    12     5    1
    27     6     5    2
    28     8     5    1
    29     8     1    1
    30     5     7    1
    31     3     1    2
    32     4     1    1
    33     1     2    1
