@<TRIPOS>MOLECULE
2pkq_NDP_O_1.pdb
 48 52 0 0 0
SMALL
GASTEIGER

@<TRIPOS>ATOM
      1  PA        44.9510   -5.3730   17.1820 P.3   363  NDP363      0.2189
      2  O1A       44.1070   -6.5670   17.0240 O.3   363  NDP363     -0.4371
      3  O2A       46.0050   -5.0860   16.1950 O.2   363  NDP363     -0.5170
      4  O5B       45.6640   -5.3590   18.6440 O.3   363  NDP363     -0.3112
      5  C5B       45.0810   -5.8220   19.8820 C.3   363  NDP363      0.1813
      6  C4B       46.1030   -6.7510   20.5560 C.3   363  NDP363      0.1820
      7  O4B       45.7270   -7.1120   21.9040 O.3   363  NDP363     -0.3136
      8  C3B       46.3160   -8.0790   19.8600 C.3   363  NDP363      0.2157
      9  O3B       47.6780   -8.4620   19.8090 O.3   363  NDP363     -0.2175
     10  C2B       45.6330   -9.0560   20.7790 C.3   363  NDP363      0.2314
     11  O2B       46.0960  -10.3930   20.6350 O.3   363  NDP363     -0.2630
     12  C1B       45.9850   -8.5020   22.1030 C.3   363  NDP363      0.3158
     13  N9A       45.1210   -9.0030   23.1670 N.pl3 363  NDP363     -0.1439
     14  C8A       43.8110   -9.3200   23.0940 C.3   363  NDP363      0.3377
     15  N7A       43.3250   -9.5980   24.3110 N.2   363  NDP363     -0.2095
     16  C5A       44.3670   -9.4550   25.1070 C.2   363  NDP363      0.2526
     17  C6A       44.3390   -9.6610   26.4760 C.2   363  NDP363      0.4393
     18  N6A       43.2340  -10.0380   27.0870 N.pl3 363  NDP363      0.2180
     19  N1A       45.5000   -9.4590   27.1320 N.2   363  NDP363      0.0021
     20  C2A       46.5960   -9.0690   26.4630 C.3   363  NDP363      0.5254
     21  N3A       46.6310   -8.8670   25.1310 N.2   363  NDP363     -0.0055
     22  C4A       45.5040   -9.0700   24.4300 C.2   363  NDP363      0.3518
     23  O3        44.0450   -4.0950   17.2510 O.3   363  NDP363     -0.2703
     24  PN        44.1780   -2.6020   16.7460 P.3   363  NDP363      0.2189
     25  O1N       43.5160   -2.4310   15.4190 O.2   363  NDP363     -0.5170
     26  O2N       45.5960   -2.2030   16.8920 O.3   363  NDP363     -0.4371
     27  O5D       43.3720   -1.7020   17.7740 O.3   363  NDP363     -0.3112
     28  C5D       43.6510   -1.8060   19.1710 C.3   363  NDP363      0.1813
     29  C4D       42.7220   -0.8470   19.9080 C.3   363  NDP363      0.1799
     30  O4D       42.9680    0.5070   19.5000 O.3   363  NDP363     -0.3327
     31  C3D       41.2360   -1.0460   19.6570 C.3   363  NDP363      0.2158
     32  O3D       40.4990   -0.4810   20.7590 O.3   363  NDP363     -0.2175
     33  C2D       40.9430   -0.1290   18.4890 C.3   363  NDP363      0.2309
     34  O2D       39.5560    0.2640   18.4150 O.3   363  NDP363     -0.2158
     35  C1D       41.8030    1.0490   18.8720 C.3   363  NDP363      0.2263
     36  N1N       42.1830    1.8920   17.7220 N.pl3 363  NDP363     -0.2787
     37  C2N       42.4650    1.3270   16.4420 C.3   363  NDP363      0.1244
     38  C3N       42.8030    2.1490   15.3560 C.2   363  NDP363      0.0544
     39  C7N       43.3880    1.6100   14.0230 C.2   363  NDP363      0.2818
     40  O7N       43.4690    2.3690   13.0540 O.2   363  NDP363     -0.2670
     41  N7N       43.5960    0.2960   13.9070 N.am  363  NDP363     -0.0839
     42  C4N       42.7970    3.5300   15.5750 C.2   363  NDP363      0.0033
     43  C5N       42.4940    4.0860   16.8240 C.2   363  NDP363      0.0157
     44  C6N       42.1940    3.2760   17.9120 C.2   363  NDP363      0.0633
     45  P2B       45.0110  -11.4730   20.0990 P.3   363  NDP363      0.5328
     46  O1X       43.8740  -11.7550   21.2140 O.3   363  NDP363     -0.1145
     47  O2X       44.2630  -10.9100   18.7820 O.2   363  NDP363     -0.2224
     48  O3X       45.7090  -12.7310   19.7650 O.3   363  NDP363     -0.1145
@<TRIPOS>BOND
     1    40    39    2
     2    41    39   am
     3    39    38    1
     4    38    42    2
     5    38    37    1
     6    25    24    2
     7    42    43    1
     8     3     1    2
     9    37    36    1
    10    24    26    1
    11    24    23    1
    12    24    27    1
    13    43    44    2
    14     2     1    1
    15     1    23    1
    16     1     4    1
    17    36    44    1
    18    36    35    1
    19    27    28    1
    20    34    33    1
    21    33    35    1
    22    33    31    1
    23     4     5    1
    24    47    45    2
    25    35    30    1
    26    28    29    1
    27    30    29    1
    28    31    29    1
    29    31    32    1
    30    48    45    1
    31     9     8    1
    32     8     6    1
    33     8    10    1
    34     5     6    1
    35    45    11    1
    36    45    46    1
    37     6     7    1
    38    11    10    1
    39    10    12    1
    40     7    12    1
    41    12    13    1
    42    14    13    1
    43    14    15    1
    44    13    22    1
    45    15    16    2
    46    22    16    1
    47    22    21    2
    48    16    17    1
    49    21    20    1
    50    20    19    1
    51    17    18    1
    52    17    19    2
