@<TRIPOS>MOLECULE
2pkr_NDP_A_1.pdb
 48 51 0 0 0
SMALL
GASTEIGER

@<TRIPOS>ATOM
      1  PA        28.5170 -111.9620   33.2330 P.3   376  NDP376      0.2189
      2  O1A       29.1150 -113.3520   32.9690 O.3   376  NDP376     -0.4371
      3  O2A       29.6770 -111.0300   32.8090 O.2   376  NDP376     -0.5170
      4  O5B       28.1820 -111.4500   34.9310 O.3   376  NDP376     -0.3112
      5  C5B       28.4030 -112.0120   36.1730 C.3   376  NDP376      0.1813
      6  C4B       29.3040 -113.1160   36.2470 C.3   376  NDP376      0.1820
      7  O4B       29.0980 -114.0540   37.5700 O.3   376  NDP376     -0.3136
      8  C3B       30.9540 -113.1240   36.1430 C.3   376  NDP376      0.2157
      9  O3B       31.6670 -111.8080   36.4710 O.3   376  NDP376     -0.2175
     10  C2B       31.1110 -114.5590   36.8490 C.3   376  NDP376      0.2314
     11  O2B       31.8650 -115.7110   36.9580 O.3   376  NDP376     -0.2630
     12  C1B       30.0210 -115.0480   37.5060 C.3   376  NDP376      0.3158
     13  N9A       29.5590 -116.0080   38.5760 N.pl3 376  NDP376     -0.1439
     14  C8A       29.0520 -117.2640   38.1490 C.3   376  NDP376      0.3377
     15  N7A       28.8170 -118.1800   38.9370 N.2   376  NDP376     -0.2095
     16  C5A       29.1380 -117.5500   40.2140 C.2   376  NDP376      0.2526
     17  C6A       29.0570 -118.1650   41.5040 C.2   376  NDP376      0.4393
     18  N6A       28.6420 -119.4050   41.6960 N.pl3 376  NDP376      0.2180
     19  N1A       29.4440 -117.2600   42.6190 N.2   376  NDP376      0.0021
     20  C2A       29.8860 -116.0320   42.3450 C.3   376  NDP376      0.5254
     21  N3A       30.0160 -115.3900   41.0640 N.2   376  NDP376     -0.0055
     22  C4A       29.5800 -116.1920   39.9950 C.2   376  NDP376      0.3518
     23  O3        27.2950 -111.3760   32.8270 O.3   376  NDP376     -0.2703
     24  PN        26.0580 -110.3890   32.8620 P.3   376  NDP376      0.2189
     25  O1N       25.8060 -110.0650   31.4740 O.2   376  NDP376     -0.5170
     26  O2N       26.3050 -109.3040   34.0290 O.3   376  NDP376     -0.4371
     27  O5D       24.7690 -111.4840   33.2630 O.3   376  NDP376     -0.3112
     28  C5D       24.1330 -111.7100   34.6830 C.3   376  NDP376      0.1817
     29  C4D       22.7650 -111.7640   34.4970 C.3   376  NDP376      0.1849
     30  O4D       21.9310 -110.7280   34.8510 O.3   376  NDP376     -0.3311
     31  C3D       21.8160 -112.7530   34.4320 C.3   376  NDP376      0.2453
     32  O3D       22.3910 -114.0700   34.1360 O.3   376  NDP376     -0.2119
     33  C2D       20.9520 -111.7560   33.3350 C.2   376  NDP376      0.2426
     34  O2D       20.5180 -111.8200   32.2950 O.2   376  NDP376     -0.2854
     35  C1D       21.8060 -109.9090   33.4030 C.3   376  NDP376      0.2407
     36  N1N       21.0410 -109.8490   32.1470 N.pl3 376  NDP376     -0.2774
     37  C2N       22.0400 -109.2560   31.2630 C.3   376  NDP376      0.1244
     38  C3N       22.0700 -107.8930   30.8110 C.2   376  NDP376      0.0544
     39  C7N       23.1380 -107.4750   29.8500 C.2   376  NDP376      0.2818
     40  O7N       22.8570 -106.6240   28.9830 O.2   376  NDP376     -0.2670
     41  N7N       24.3600 -108.2040   30.0550 N.am  376  NDP376     -0.0839
     42  C4N       20.9550 -106.9170   31.1940 C.2   376  NDP376      0.0033
     43  C5N       19.9510 -107.7020   32.0800 C.2   376  NDP376      0.0157
     44  C6N       20.0300 -108.9650   32.4570 C.2   376  NDP376      0.0634
     45  P2B       32.5270 -116.6930   35.8040 P.3   376  NDP376      0.5328
     46  O1X       32.9940 -118.0820   36.1080 O.3   376  NDP376     -0.1145
     47  O2X       31.7770 -116.5190   34.5060 O.2   376  NDP376     -0.2224
     48  O3X       33.8480 -115.7100   35.8350 O.3   376  NDP376     -0.1145
@<TRIPOS>BOND
     1    40    39    2
     2    39    41   am
     3    39    38    1
     4    38    42    2
     5    38    37    1
     6    42    43    1
     7    37    36    1
     8    25    24    2
     9    43    44    2
    10    36    44    1
    11    36    35    1
    12    34    33    2
    13     3     1    2
    14    23    24    1
    15    23     1    1
    16    24    27    1
    17    24    26    1
    18     2     1    1
    19     1     4    1
    20    27    28    1
    21    33    31    1
    22    35    30    1
    23    32    31    1
    24    31    29    1
    25    29    28    1
    26    29    30    1
    27    47    45    2
    28     4     5    1
    29    45    48    1
    30    45    46    1
    31    45    11    1
    32     8     6    1
    33     8     9    1
    34     8    10    1
    35     5     6    1
    36     6     7    1
    37    10    11    1
    38    10    12    1
    39    12     7    1
    40    12    13    1
    41    14    13    1
    42    14    15    1
    43    13    22    1
    44    15    16    2
    45    22    16    1
    46    22    21    2
    47    16    17    1
    48    21    20    1
    49    17    18    1
    50    17    19    2
    51    20    19    1
