@<TRIPOS>MOLECULE
2pks_G44_C_1.pdb
 26 28 0 0 0
SMALL
GASTEIGER

@<TRIPOS>ATOM
      1  C1        22.0150  -16.8170   25.3410 C.3   101  G44101      0.0310
      2  C2        20.9810  -15.7310   25.1810 C.ar  101  G44101     -0.0217
      3  C3        21.2030  -14.5120   25.7950 C.ar  101  G44101     -0.0043
      4  C4        20.2950  -13.4690   25.6770 C.ar  101  G44101     -0.0002
      5  C5        19.1560  -13.6290   24.9310 C.ar  101  G44101      0.0032
      6  C6        18.9040  -14.8360   24.2890 C.ar  101  G44101      0.0386
      7  C7        19.8460  -15.8960   24.4080 C.ar  101  G44101     -0.0011
      8  C8        17.7730  -14.9360   23.3280 C.2   101  G44101      0.1957
      9  O9        17.0110  -15.8760   23.2620 O.2   101  G44101     -0.2866
     10  C10       17.7900  -13.9210   22.2090 C.ar  101  G44101      0.0433
     11  C11       19.0200  -13.8330   21.5050 C.ar  101  G44101      0.0240
     12  C12       19.1680  -12.9380   20.4520 C.ar  101  G44101      0.1005
     13  N13       18.1160  -12.1930   20.0650 N.ar  101  G44101     -0.2277
     14  C14       16.8820  -12.2300   20.5930 C.ar  101  G44101      0.1479
     15  N15       15.9380  -11.3030   20.0160 N.pl3 101  G44101     -0.2154
     16  C16       14.4800  -11.3670   19.5900 C.3   101  G44101      0.1402
     17  C17       13.5440  -11.0210   20.7270 C.ar  101  G44101     -0.0006
     18  C18       13.0530  -12.1060   21.3700 C.ar  101  G44101     -0.0023
     19  C19       12.2680  -11.9940   22.4790 C.ar  101  G44101      0.0077
     20  C20       11.9900  -10.7340   22.9680 C.ar  101  G44101      0.0975
     21  C21       12.4470   -9.5790   22.3270 C.ar  101  G44101      0.0077
     22  C22       13.2390   -9.7420   21.1740 C.ar  101  G44101     -0.0023
     23  C23       11.1130  -10.7450   24.1410 C.2   101  G44101      0.4766
     24  N24       10.6740  -11.8900   24.5390 N.pl3 101  G44101      0.2047
     25  N25       10.7470   -9.6140   24.8540 N.pl3 101  G44101      0.2047
     26  C26       16.7140  -13.0930   21.7440 C.ar  101  G44101      0.0390
@<TRIPOS>BOND
     1    16    15    1
     2    16    17    1
     3    15    14    1
     4    13    12   ar
     5    13    14   ar
     6    12    11   ar
     7    14    26   ar
     8    17    22   ar
     9    17    18   ar
    10    22    21   ar
    11    18    19   ar
    12    11    10   ar
    13    26    10   ar
    14    10     8    1
    15    21    20   ar
    16    19    20   ar
    17    20    23    1
    18     9     8    2
    19     8     6    1
    20    23    24    2
    21    23    25    1
    22     6     7   ar
    23     6     5   ar
    24     7     2   ar
    25     5     4   ar
    26     2     1    1
    27     2     3   ar
    28     4     3   ar
