@<TRIPOS>MOLECULE
2pl0_STI_A_1.pdb
 37 41 0 0 0
SMALL
GASTEIGER

@<TRIPOS>ATOM
      1  C1        29.5530   18.3180    4.0590 C.ar  200  STI200      0.0208
      2  C6        28.6700   17.7700    5.0050 C.ar  200  STI200      0.0057
      3  C5        29.0870   16.6420    5.7800 C.ar  200  STI200      0.0497
      4  C4        30.3950   16.1200    5.5550 C.ar  200  STI200      0.1014
      5  N3        31.1990   16.6850    4.6360 N.ar  200  STI200     -0.2422
      6  C2        30.8250   17.7460    3.8980 C.ar  200  STI200      0.0989
      7  C7        28.1590   16.0470    6.7960 C.2   200  STI200      0.1472
      8  C12       28.3950   14.7670    7.3770 C.2   200  STI200      0.0546
      9  C11       27.4620   14.3000    8.3220 C.2   200  STI200      0.1144
     10  N10       26.3970   15.0630    8.6440 N.2   200  STI200     -0.1683
     11  C9        26.2060   16.2690    8.0720 C.1   200  STI200      0.1696
     12  N8        27.0670   16.7450    7.1750 N.2   200  STI200     -0.3361
     13  N13       25.1030   17.0500    8.3970 N.pl3 200  STI200     -0.1360
     14  C14       24.1300   16.6660    9.3360 C.ar  200  STI200      0.0799
     15  C19       23.1110   15.7050    9.0180 C.ar  200  STI200     -0.0057
     16  C18       22.1550   15.3590    9.9920 C.ar  200  STI200     -0.0016
     17  C17       22.1930   15.9500   11.2730 C.ar  200  STI200      0.0164
     18  C16       23.1950   16.9040   11.6020 C.ar  200  STI200      0.0750
     19  C15       24.1620   17.2540   10.6200 C.ar  200  STI200      0.0336
     20  N21       23.1750   17.4890   12.9100 N.am  200  STI200     -0.1754
     21  C22       24.1680   18.2310   13.5100 C.2   200  STI200      0.2690
     22  C23       23.9360   18.7710   14.8790 C.ar  200  STI200      0.0554
     23  C25       23.0740   18.0890   15.7900 C.ar  200  STI200      0.0043
     24  C26       22.8580   18.6090   17.0850 C.ar  200  STI200     -0.0028
     25  C27       23.4980   19.8080   17.4860 C.ar  200  STI200     -0.0061
     26  C28       24.3530   20.4900   16.5850 C.ar  200  STI200     -0.0028
     27  C29       24.5750   19.9810   15.2930 C.ar  200  STI200      0.0043
     28  C46       23.2760   20.3770   18.8800 C.3   200  STI200      0.0992
     29  N48       23.4910   19.3560   19.9290 N.3   200  STI200     -0.2665
     30  C53       24.9350   19.0940   20.1820 C.3   200  STI200      0.0899
     31  C52       25.0660   17.9330   21.1920 C.3   200  STI200      0.0897
     32  N51       24.3330   18.2690   22.4410 N.3   200  STI200     -0.2691
     33  C54       24.4670   17.1930   23.4340 C.3   200  STI200      0.0897
     34  C50       22.9000   18.5900   22.2030 C.3   200  STI200      0.0897
     35  C49       22.7870   19.7400   21.1780 C.3   200  STI200      0.0899
     36  O29       25.2280   18.4670   12.9470 O.2   200  STI200     -0.2680
     37  C20       23.0360   15.0570    7.6520 C.3   200  STI200      0.0324
@<TRIPOS>BOND
     1     6     1   ar
     2     6     5   ar
     3     1     2   ar
     4     5     4   ar
     5     2     3   ar
     6     4     3   ar
     7     3     7    1
     8     7    12    2
     9     7     8    1
    10    12    11    2
    11     8     9    2
    12    37    15    1
    13    11    13    1
    14    11    10    2
    15     9    10    1
    16    13    14    1
    17    15    14   ar
    18    15    16   ar
    19    14    19   ar
    20    16    17   ar
    21    19    18   ar
    22    17    18   ar
    23    18    20    1
    24    20    21   am
    25    36    21    2
    26    21    22    1
    27    22    27   ar
    28    22    23   ar
    29    27    26   ar
    30    23    24   ar
    31    26    25   ar
    32    24    25   ar
    33    25    28    1
    34    28    29    1
    35    29    30    1
    36    29    35    1
    37    30    31    1
    38    35    34    1
    39    31    32    1
    40    34    32    1
    41    32    33    1
