@<TRIPOS>MOLECULE
2pl3_ADP_A_1.pdb
 27 29 0 0 0
SMALL
GASTEIGER

@<TRIPOS>ATOM
      1  PB       -21.0900  -12.6870    9.6730 P.3   300  ADP300      0.5373
      2  O1B      -19.8190  -13.0780   10.4120 O.3   300  ADP300     -0.1143
      3  O2B      -20.8210  -11.9540    8.3730 O.2   300  ADP300     -0.2221
      4  O3B      -22.0110  -11.8980   10.5510 O.3   300  ADP300     -0.1143
      5  PA       -21.7570  -15.5260    9.5300 P.3   300  ADP300      0.2231
      6  O1A      -20.4790  -15.9850    8.9300 O.2   300  ADP300     -0.5169
      7  O2A      -21.8250  -15.6880   11.0020 O.3   300  ADP300     -0.4370
      8  O3A      -21.9800  -13.9440    9.1900 O.3   300  ADP300     -0.2261
      9  O5'      -22.9690  -16.1370    8.7080 O.3   300  ADP300     -0.3111
     10  C5'      -24.2800  -15.7060    9.0930 C.3   300  ADP300      0.1813
     11  C4'      -25.3510  -16.7860    8.9590 C.3   300  ADP300      0.1821
     12  O4'      -25.5120  -17.1530    7.5960 O.3   300  ADP300     -0.3135
     13  C3'      -25.0410  -18.0800    9.6790 C.3   300  ADP300      0.2184
     14  O3'      -26.2780  -18.6810   10.0230 O.3   300  ADP300     -0.2174
     15  C2'      -24.4080  -18.9410    8.6220 C.3   300  ADP300      0.2570
     16  O2'      -24.5530  -20.3450    8.8480 O.3   300  ADP300     -0.2130
     17  C1'      -25.1620  -18.5180    7.3760 C.3   300  ADP300      0.3186
     18  N9       -24.3470  -18.7050    6.1510 N.pl3 300  ADP300     -0.1439
     19  C8       -23.0630  -18.3340    5.9380 C.3   300  ADP300      0.3377
     20  N7       -22.6600  -18.6530    4.6940 N.2   300  ADP300     -0.2095
     21  C5       -23.7260  -19.2410    4.1030 C.2   300  ADP300      0.2526
     22  C6       -24.0170  -19.8420    2.7920 C.2   300  ADP300      0.4393
     23  N6       -23.0560  -19.8600    1.8640 N.pl3 300  ADP300      0.2180
     24  N1       -25.2460  -20.3660    2.5630 N.2   300  ADP300      0.0021
     25  C2       -26.2140  -20.3670    3.4970 C.3   300  ADP300      0.5254
     26  N3       -26.0320  -19.8390    4.7160 N.2   300  ADP300     -0.0055
     27  C4       -24.8220  -19.2950    5.0660 C.2   300  ADP300      0.3518
@<TRIPOS>BOND
     1    23    22    1
     2    24    22    2
     3    24    25    1
     4    22    21    1
     5    25    26    1
     6    21    20    2
     7    21    27    1
     8    20    19    1
     9    26    27    2
    10    27    18    1
    11    19    18    1
    12    18    17    1
    13    17    12    1
    14    17    15    1
    15    12    11    1
    16     3     1    2
    17    15    16    1
    18    15    13    1
    19     9    10    1
    20     9     5    1
    21     6     5    2
    22    11    10    1
    23    11    13    1
    24     8     5    1
    25     8     1    1
    26     5     7    1
    27     1     2    1
    28     1     4    1
    29    13    14    1
