@<TRIPOS>MOLECULE
2pla_NAD_A_1.pdb
 44 48 0 0 0
SMALL
GASTEIGER

@<TRIPOS>ATOM
      1  PA        59.5240  -33.4000   17.9860 P.3   401  NAD401      0.2189
      2  O1A       60.8100  -33.9900   18.3730 O.3   401  NAD401     -0.4371
      3  O2A       59.1480  -33.7600   16.6030 O.2   401  NAD401     -0.5170
      4  O5B       59.5400  -31.8010   17.9040 O.3   401  NAD401     -0.3112
      5  C5B       60.0330  -30.8660   18.8090 C.3   401  NAD401      0.1813
      6  C4B       58.8890  -30.0410   19.4110 C.3   401  NAD401      0.1821
      7  O4B       59.4500  -29.4570   20.5560 O.3   401  NAD401     -0.3135
      8  C3B       58.3180  -28.8630   18.6260 C.3   401  NAD401      0.2184
      9  O3B       57.0320  -29.1470   18.1320 O.3   401  NAD401     -0.2174
     10  C2B       58.2550  -27.6940   19.6130 C.3   401  NAD401      0.2570
     11  O2B       56.9660  -27.1680   19.8620 O.3   401  NAD401     -0.2130
     12  C1B       58.7360  -28.3110   20.8990 C.3   401  NAD401      0.3186
     13  N9A       59.6340  -27.4320   21.6420 N.pl3 401  NAD401     -0.1439
     14  C8A       60.8970  -27.0440   21.2900 C.3   401  NAD401      0.3377
     15  N7A       61.3570  -26.2480   22.2740 N.2   401  NAD401     -0.2095
     16  C5A       60.4140  -26.1490   23.2480 C.2   401  NAD401      0.2526
     17  C6A       60.3720  -25.4710   24.4680 C.2   401  NAD401      0.4393
     18  N6A       61.4670  -24.8920   24.9430 N.pl3 401  NAD401      0.2180
     19  N1A       59.2530  -25.5760   25.2630 N.2   401  NAD401      0.0021
     20  C2A       58.1710  -26.3350   24.8360 C.3   401  NAD401      0.5254
     21  N3A       58.2100  -27.0080   23.6280 N.2   401  NAD401     -0.0055
     22  C4A       59.3220  -26.9070   22.8590 C.2   401  NAD401      0.3518
     23  O3        58.2760  -33.8310   18.9100 O.3   401  NAD401     -0.2703
     24  PN        57.3870  -35.1470   18.6510 P.3   401  NAD401      0.2189
     25  O1N       57.8890  -35.9970   17.5420 O.2   401  NAD401     -0.5170
     26  O2N       55.9670  -34.7540   18.6250 O.3   401  NAD401     -0.4371
     27  O5D       57.7760  -35.9890   19.9740 O.3   401  NAD401     -0.3112
     28  C5D       56.8950  -36.1090   21.0710 C.3   401  NAD401      0.1813
     29  C4D       57.0740  -37.4470   21.7550 C.3   401  NAD401      0.1799
     30  O4D       56.5770  -38.4600   20.9100 O.3   401  NAD401     -0.3327
     31  C3D       58.5110  -37.8140   22.0410 C.3   401  NAD401      0.2158
     32  O3D       58.5750  -38.3950   23.3230 O.3   401  NAD401     -0.2175
     33  C2D       58.8490  -38.8290   20.9720 C.3   401  NAD401      0.2309
     34  O2D       59.8140  -39.7610   21.3670 O.3   401  NAD401     -0.2158
     35  C1D       57.5160  -39.5100   20.7780 C.3   401  NAD401      0.2263
     36  N1N       57.2940  -40.1970   19.4820 N.pl3 401  NAD401     -0.2787
     37  C2N       57.7680  -39.6780   18.2930 C.3   401  NAD401      0.1244
     38  C3N       57.5100  -40.3480   17.0940 C.2   401  NAD401      0.0544
     39  C7N       57.9340  -39.7610   15.7800 C.2   401  NAD401      0.2818
     40  O7N       58.2110  -40.6290   14.7250 O.2   401  NAD401     -0.2670
     41  N7N       58.0570  -38.4530   15.6040 N.am  401  NAD401     -0.0839
     42  C4N       56.7730  -41.5350   17.1020 C.2   401  NAD401      0.0033
     43  C5N       56.2840  -42.0320   18.3110 C.2   401  NAD401      0.0157
     44  C6N       56.5570  -41.3610   19.4960 C.2   401  NAD401      0.0633
@<TRIPOS>BOND
     1    40    39    2
     2    41    39   am
     3    39    38    1
     4     3     1    2
     5    38    42    2
     6    38    37    1
     7    42    43    1
     8    25    24    2
     9     4     1    1
    10     4     5    1
    11     1     2    1
    12     1    23    1
    13     9     8    1
    14    37    36    1
    15    43    44    2
    16    26    24    1
    17     8     6    1
    18     8    10    1
    19    24    23    1
    20    24    27    1
    21     5     6    1
    22     6     7    1
    23    36    44    1
    24    36    35    1
    25    10    11    1
    26    10    12    1
    27    27    28    1
    28     7    12    1
    29    35    30    1
    30    35    33    1
    31    12    13    1
    32    30    29    1
    33    33    34    1
    34    33    31    1
    35    28    29    1
    36    14    13    1
    37    14    15    1
    38    13    22    1
    39    29    31    1
    40    31    32    1
    41    15    16    2
    42    22    16    1
    43    22    21    2
    44    16    17    1
    45    21    20    1
    46    17    18    1
    47    17    19    2
    48    20    19    1
