@<TRIPOS>MOLECULE
2plj_P3T_A_1.pdb
 21 21 0 0 0
SMALL
GASTEIGER

@<TRIPOS>ATOM
      1  OAE       63.2080   75.0040   12.2950 O.2   501  P3T501     -0.2224
      2  PAU       64.4750   75.5520   13.0820 P.3   501  P3T501      0.5329
      3  OAF       64.9680   74.4680   14.1540 O.3   501  P3T501     -0.1145
      4  OAC       64.2970   76.9220   13.7110 O.3   501  P3T501     -0.1145
      5  OAP       65.7520   75.6760   12.0950 O.3   501  P3T501     -0.2653
      6  CAM       66.2460   74.4410   11.4240 C.3   501  P3T501      0.1819
      7  CAS       67.2710   74.9250   10.3890 C.ar  501  P3T501      0.0316
      8  CAH       66.8680   74.7250    9.0620 C.ar  501  P3T501      0.0968
      9  NAO       67.6620   75.1140    8.0640 N.ar  501  P3T501     -0.2452
     10  CAQ       68.8220   75.7260    8.2740 C.ar  501  P3T501      0.0981
     11  CAA       69.6660   76.1780    7.0560 C.3   501  P3T501      0.0555
     12  CAR       69.2730   75.9890    9.5840 C.ar  501  P3T501      0.2103
     13  OAD       70.4560   76.5960    9.7600 O.3   501  P3T501     -0.2853
     14  CAT       68.4750   75.5930   10.6790 C.ar  501  P3T501      0.0587
     15  CAG       68.9520   75.7990   12.0100 C.2   501  P3T501      0.0961
     16  NAN       69.8380   76.7550   12.2510 N.2   501  P3T501     -0.2688
     17  CAL       70.4670   77.0790   13.5720 C.3   501  P3T501      0.1256
     18  CAK       69.4440   77.1850   14.7150 C.3   501  P3T501      0.0278
     19  CAJ       70.2770   77.4310   16.0120 C.3   501  P3T501      0.0226
     20  CAI       69.3630   77.5520   17.2360 C.3   501  P3T501      0.1094
     21  NAB       70.1040   77.9960   18.4410 N.3   501  P3T501     -0.1314
@<TRIPOS>BOND
     1    11    10    1
     2     9    10   ar
     3     9     8   ar
     4    10    12   ar
     5     8     7   ar
     6    12    13    1
     7    12    14   ar
     8     7    14   ar
     9     7     6    1
    10    14    15    1
    11     6     5    1
    12    15    16    2
    13     5     2    1
    14    16    17    1
    15     1     2    2
    16     2     4    1
    17     2     3    1
    18    17    18    1
    19    18    19    1
    20    19    20    1
    21    20    21    1
