@<TRIPOS>MOLECULE
2plk_P3D_A_1.pdb
 22 22 0 0 0
SMALL
GASTEIGER

@<TRIPOS>ATOM
      1  OAE       68.3210   76.9440    8.7120 O.3   501  P3D501     -0.1145
      2  PAV       68.7460   75.5070    8.1620 P.3   501  P3D501      0.5329
      3  OAF       67.4400   75.0800    7.3590 O.2   501  P3D501     -0.2224
      4  OAC       69.0810   74.5100    9.2360 O.3   501  P3D501     -0.1145
      5  OAQ       69.9540   75.7010    7.1410 O.3   501  P3D501     -0.2653
      6  CAN       70.6600   74.5050    6.7740 C.3   501  P3D501      0.1819
      7  CAT       71.8810   74.9330    5.9630 C.ar  501  P3D501      0.0316
      8  CAH       71.7750   74.6310    4.6090 C.ar  501  P3D501      0.0968
      9  NAP       72.7300   74.9300    3.7580 N.ar  501  P3D501     -0.2452
     10  CAR       73.8590   75.5580    4.1580 C.ar  501  P3D501      0.0981
     11  CAA       74.9270   75.8840    3.0900 C.3   501  P3D501      0.0555
     12  CAS       74.0370   75.8930    5.5140 C.ar  501  P3D501      0.2103
     13  OAD       75.1850   76.5170    5.8720 O.3   501  P3D501     -0.2853
     14  CAU       73.0210   75.5930    6.4410 C.ar  501  P3D501      0.0587
     15  CAG       73.1480   75.8800    7.8120 C.2   501  P3D501      0.0961
     16  NAO       73.7870   76.9380    8.3380 N.2   501  P3D501     -0.2688
     17  CAM       73.8090   76.9950    9.8110 C.3   501  P3D501      0.1255
     18  CAL       73.9840   78.3940   10.3900 C.3   501  P3D501      0.0263
     19  CAK       72.9940   78.6160   11.5670 C.3   501  P3D501      0.0036
     20  CAJ       73.1310   77.5920   12.6970 C.3   501  P3D501      0.0206
     21  CAI       73.2200   78.2480   14.0530 C.3   501  P3D501      0.1093
     22  NAB       74.4890   78.9960   14.1770 N.3   501  P3D501     -0.1314
@<TRIPOS>BOND
     1    11    10    1
     2     9    10   ar
     3     9     8   ar
     4    10    12   ar
     5     8     7   ar
     6    12    13    1
     7    12    14   ar
     8     7    14   ar
     9     7     6    1
    10    14    15    1
    11     6     5    1
    12     5     2    1
    13     3     2    2
    14    15    16    2
    15     2     1    1
    16     2     4    1
    17    16    17    1
    18    17    18    1
    19    18    19    1
    20    19    20    1
    21    20    21    1
    22    21    22    1
