@<TRIPOS>MOLECULE
2pll_ABH_A_1.pdb
 13 12 0 0 0
SMALL
GASTEIGER

@<TRIPOS>ATOM
      1  N         -4.6390   27.2320  -37.0970 N.3   555  ABH555      0.0000
      2  CA        -4.4740   27.2370  -38.5850 C.3   555  ABH555      0.0000
      3  C         -4.0890   25.7600  -38.9760 C.2   555  ABH555      0.0000
      4  O         -3.8510   25.3690  -40.0940 O.co2 555  ABH555      0.0000
      5  OT        -4.0190   24.9450  -37.8980 O.co2 555  ABH555      0.0000
      6  CB        -3.3020   28.1890  -38.9670 C.3   555  ABH555      0.0000
      7  CG        -1.9190   27.7260  -38.5060 C.3   555  ABH555      0.0000
      8  CD        -0.8860   28.7820  -38.9530 C.3   555  ABH555      0.0000
      9  CE         0.5450   28.3250  -38.7540 C.3   555  ABH555      0.0000
     10  B          1.7490   29.3470  -38.6540 B     555  ABH555      0.0000
     11  O2         2.9770   28.6150  -38.4790 O.3   555  ABH555      0.0000
     12  O1         1.6200   30.1600  -37.4690 O.3   555  ABH555      0.0000
     13  O3         1.9460   30.2450  -39.7720 O.3   555  ABH555      0.0000
@<TRIPOS>BOND
     1     4     3   ar
     2    13    10    1
     3     3     2    1
     4     3     5   ar
     5     6     2    1
     6     6     7    1
     7     8     9    1
     8     8     7    1
     9     9    10    1
    10    10    11    1
    11    10    12    1
    12     2     1    1
