@<TRIPOS>MOLECULE
2plm_SIB_A_1.pdb
 26 28 0 0 0
SMALL
GASTEIGER

@<TRIPOS>ATOM
      1  N         49.1900   29.4690   -0.7320 N.3   408  SIB408     -0.1208
      2  CA        49.4150   28.5720   -1.8830 C.3   408  SIB408      0.1952
      3  CB        49.6120   29.3790   -3.1750 C.3   408  SIB408      0.0422
      4  CG        48.3790   30.2170   -3.4930 C.3   408  SIB408      0.0597
      5  SD        46.9360   29.1470   -3.6690 S.3   408  SIB408     -0.1375
      6  C         50.6430   27.7290   -1.6610 C.2   408  SIB408      0.3819
      7  OXT       51.3460   27.9080   -0.6930 O.co2 408  SIB408     -0.2441
      8  O         50.9560   26.7840   -2.5500 O.co2 408  SIB408     -0.2441
      9  C5'       45.6080   30.3680   -3.6780 C.3   408  SIB408      0.0899
     10  C4'       45.6730   31.1770   -2.3910 C.3   408  SIB408      0.1630
     11  O4'       44.7270   32.2520   -2.4350 O.3   408  SIB408     -0.3153
     12  C3'       45.3320   30.3130   -1.1600 C.3   408  SIB408      0.2168
     13  O3'       46.4540   30.2320   -0.2730 O.3   408  SIB408     -0.2175
     14  C2'       44.1170   31.0510   -0.5580 C.3   408  SIB408      0.2569
     15  O2'       44.0490   30.9510    0.8600 O.3   408  SIB408     -0.2130
     16  C1'       44.3720   32.4750   -1.0700 C.3   408  SIB408      0.3186
     17  N9        43.1940   33.3500   -0.9390 N.pl3 408  SIB408     -0.1435
     18  C8        41.9140   32.9960   -0.6220 C.3   408  SIB408      0.3382
     19  N7        41.1530   34.0440   -0.5820 N.2   408  SIB408     -0.2054
     20  C5        41.8860   35.1350   -0.8670 C.2   408  SIB408      0.2446
     21  C6        41.6160   36.5190   -0.9620 C.1   408  SIB408      0.1792
     22  O6        40.3590   36.9810   -0.7280 O.2   408  SIB408     -0.2203
     23  N1        42.6330   37.3670   -1.2910 N.2   408  SIB408     -0.1458
     24  C2        43.8820   36.9190   -1.5200 C.3   408  SIB408      0.4017
     25  N3        44.1740   35.6160   -1.4280 N.2   408  SIB408     -0.0334
     26  C4        43.2130   34.7050   -1.1080 C.2   408  SIB408      0.3528
@<TRIPOS>BOND
     1     9     5    1
     2     9    10    1
     3     5     4    1
     4     4     3    1
     5     3     2    1
     6     8     6   ar
     7    11    10    1
     8    11    16    1
     9    10    12    1
    10     2     6    1
    11     2     1    1
    12     6     7   ar
    13    24    25    1
    14    24    23    1
    15    25    26    2
    16    23    21    2
    17    12    14    1
    18    12    13    1
    19    26    17    1
    20    26    20    1
    21    16    17    1
    22    16    14    1
    23    21    20    1
    24    21    22    2
    25    17    18    1
    26    20    19    2
    27    18    19    1
    28    14    15    1
