@<TRIPOS>MOLECULE
2plw_SAM_A_1.pdb
 27 29 0 0 0
SMALL
GASTEIGER

@<TRIPOS>ATOM
      1  N          3.7230   35.7350    8.6990 N.3   203  SAM203     -0.1208
      2  CA         4.5170   36.6340    9.6030 C.3   203  SAM203      0.1952
      3  C          3.7400   36.9870   10.8720 C.2   203  SAM203      0.3819
      4  O          2.5240   36.7920   10.8990 O.co2 203  SAM203     -0.2441
      5  OXT        4.2850   37.4360   11.8880 O.co2 203  SAM203     -0.2441
      6  CB         4.9170   37.9010    8.8360 C.3   203  SAM203      0.0414
      7  CG         5.9700   37.5220    7.7960 C.3   203  SAM203      0.0503
      8  SD         6.8700   38.9080    7.0740 S.3   203  SAM203     -0.1761
      9  CE         5.5360   39.5990    6.0830 C.3   203  SAM203      0.0590
     10  C5'        7.8930   38.0970    5.8170 C.3   203  SAM203      0.0806
     11  C4'        9.1280   37.4550    6.4500 C.3   203  SAM203      0.1622
     12  O4'        9.7560   36.6350    5.4610 O.3   203  SAM203     -0.3153
     13  C3'       10.2100   38.4410    6.9560 C.3   203  SAM203      0.2168
     14  O3'       10.3130   38.4060    8.3630 O.3   203  SAM203     -0.2175
     15  C2'       11.5040   37.9550    6.2860 C.3   203  SAM203      0.2569
     16  O2'       12.6780   37.9690    7.0910 O.3   203  SAM203     -0.2130
     17  C1'       11.1250   36.5470    5.8640 C.3   203  SAM203      0.3185
     18  N9        11.9180   35.9660    4.7790 N.pl3 203  SAM203     -0.1439
     19  C8        12.1560   36.4680    3.5160 C.3   203  SAM203      0.3377
     20  N7        12.9060   35.5770    2.8340 N.2   203  SAM203     -0.2095
     21  C5        13.1390   34.5160    3.6500 C.2   203  SAM203      0.2526
     22  C6        13.8330   33.3160    3.4860 C.2   203  SAM203      0.4393
     23  N6        14.4440   33.0250    2.3460 N.pl3 203  SAM203      0.2180
     24  N1        13.8890   32.4080    4.5130 N.2   203  SAM203      0.0021
     25  C2        13.2640   32.6550    5.7220 C.3   203  SAM203      0.5254
     26  N3        12.5630   33.8350    5.8860 N.2   203  SAM203     -0.0055
     27  C4        12.5210   34.7480    4.8730 C.2   203  SAM203      0.3518
@<TRIPOS>BOND
     1    23    22    1
     2    20    19    1
     3    20    21    2
     4    22    21    1
     5    22    24    2
     6    19    18    1
     7    21    27    1
     8    24    25    1
     9    18    27    1
    10    18    17    1
    11    27    26    2
    12    12    17    1
    13    12    11    1
    14    25    26    1
    15    10    11    1
    16    10     8    1
    17    17    15    1
    18     9     8    1
    19    15    13    1
    20    15    16    1
    21    11    13    1
    22    13    14    1
    23     8     7    1
    24     7     6    1
    25     1     2    1
    26     6     2    1
    27     2     3    1
    28     3     4   ar
    29     3     5   ar
