@<TRIPOS>MOLECULE
2pmd_GDP_A_1.pdb
 28 30 0 0 0
SMALL
GASTEIGER

@<TRIPOS>ATOM
      1  PB         4.2810   -8.2410  -14.6900 P.3   416  GDP416      0.5373
      2  O1B        3.7700   -6.8670  -14.6640 O.2   416  GDP416     -0.2221
      3  O2B        3.5000   -9.1160  -13.5810 O.3   416  GDP416     -0.1143
      4  O3B        5.8640   -8.2460  -14.3690 O.3   416  GDP416     -0.1143
      5  O3A        4.0120   -8.8680  -16.1580 O.3   416  GDP416     -0.2261
      6  PA         4.7750   -8.0040  -17.3220 P.3   416  GDP416      0.2231
      7  O1A        4.2820   -6.6040  -17.3310 O.2   416  GDP416     -0.5169
      8  O2A        6.3780   -8.0020  -17.0840 O.3   416  GDP416     -0.4370
      9  O5'        4.4230   -8.7130  -18.7210 O.3   416  GDP416     -0.3111
     10  C5'        5.0650   -8.0160  -19.7820 C.3   416  GDP416      0.1813
     11  C4'        4.6840   -8.7200  -21.0820 C.3   416  GDP416      0.1799
     12  O4'        3.2280   -8.6930  -21.2710 O.3   416  GDP416     -0.3326
     13  C3'        5.3490   -8.0410  -22.2890 C.3   416  GDP416      0.2158
     14  O3'        6.2900   -8.9300  -22.9070 O.3   416  GDP416     -0.2175
     15  C2'        4.2000   -7.6340  -23.2320 C.3   416  GDP416      0.2310
     16  O2'        4.3430   -8.2570  -24.5330 O.3   416  GDP416     -0.2158
     17  C1'        2.8860   -8.0620  -22.5430 C.3   416  GDP416      0.2293
     18  N9         2.0120   -6.8690  -22.3330 N.pl3 416  GDP416     -0.2354
     19  C8         2.1150   -5.9400  -21.3230 C.3   416  GDP416      0.2246
     20  N7         1.1890   -5.0290  -21.4450 N.2   416  GDP416     -0.2322
     21  C5         0.4280   -5.3020  -22.5310 C.2   416  GDP416      0.2182
     22  C6        -0.7060   -4.6760  -23.1520 C.1   416  GDP416      0.2372
     23  O6        -1.1840   -3.6680  -22.6910 O.2   416  GDP416     -0.2069
     24  N1        -1.2420   -5.2400  -24.2800 N.2   416  GDP416     -0.2485
     25  C2        -0.7020   -6.3920  -24.8130 C.1   416  GDP416      0.2531
     26  N2        -1.2590   -6.9300  -25.9410 N.pl3 416  GDP416     -0.0226
     27  N3         0.3520   -6.9910  -24.2490 N.2   416  GDP416     -0.3074
     28  C4         0.9420   -6.4860  -23.1210 C.2   416  GDP416      0.2300
@<TRIPOS>BOND
     1    26    25    1
     2    25    24    2
     3    25    27    2
     4    16    15    1
     5    24    22    2
     6    27    28    2
     7    15    17    1
     8    15    13    1
     9    22    23    2
    10    22    21    1
    11    28    21    1
    12    28    18    1
    13    14    13    1
    14    17    18    1
    15    17    12    1
    16    21    20    2
    17    18    19    1
    18    13    11    1
    19    20    19    1
    20    12    11    1
    21    11    10    1
    22    10     9    1
    23     9     6    1
    24     7     6    2
    25     6     8    1
    26     6     5    1
    27     5     1    1
    28     1     2    2
    29     1     4    1
    30     1     3    1
