@<TRIPOS>MOLECULE
2pmd_GNP_A_1.pdb
 32 34 0 0 0
SMALL
GASTEIGER

@<TRIPOS>ATOM
      1  PG        27.6810   -1.8610   -2.1630 P.3   417  GNP417      0.4884
      2  O1G       29.0170   -1.2010   -2.6930 O.3   417  GNP417     -0.1240
      3  O2G       27.9660   -2.5370   -0.6120 O.3   417  GNP417     -0.1240
      4  O3G       27.1630   -3.0790   -3.2510 O.2   417  GNP417     -0.2331
      5  N3B       26.4730   -0.6190   -2.0310 N.3   417  GNP417     -0.0163
      6  PB        26.2000    0.0570   -3.6020 P.3   417  GNP417      0.4669
      7  O1B       27.5690    0.6860   -4.1730 O.3   417  GNP417     -0.1253
      8  O2B       25.6350   -1.1840   -4.6330 O.2   417  GNP417     -0.2351
      9  O3A       25.0240    1.2990   -3.4780 O.3   417  GNP417     -0.2360
     10  PA        24.6000    2.0580   -4.8820 P.3   417  GNP417      0.2220
     11  O1A       25.7710    2.7140   -5.5240 O.3   417  GNP417     -0.4370
     12  O2A       23.9450    1.0220   -5.9350 O.2   417  GNP417     -0.5170
     13  O5'       23.5500    3.1750   -4.4060 O.3   417  GNP417     -0.3111
     14  C5'       23.0480    3.9570   -5.4770 C.3   417  GNP417      0.1813
     15  C4'       22.1860    4.9980   -4.7710 C.3   417  GNP417      0.1799
     16  O4'       23.0170    5.7450   -3.8690 O.3   417  GNP417     -0.3326
     17  C3'       21.5160    5.9720   -5.7440 C.3   417  GNP417      0.2158
     18  O3'       20.2120    5.5200   -6.0810 O.3   417  GNP417     -0.2175
     19  C2'       21.6010    7.3260   -4.9940 C.3   417  GNP417      0.2310
     20  O2'       20.3510    7.9870   -4.7390 O.3   417  GNP417     -0.2158
     21  C1'       22.3410    7.0010   -3.6670 C.3   417  GNP417      0.2293
     22  N9        23.3070    8.0730   -3.3220 N.pl3 417  GNP417     -0.2354
     23  C8        24.6230    8.1010   -3.7290 C.3   417  GNP417      0.2246
     24  N7        25.2210    9.1530   -3.2770 N.2   417  GNP417     -0.2322
     25  C5        24.3420    9.8820   -2.5450 C.2   417  GNP417      0.2182
     26  C6        24.4310   11.1070   -1.8220 C.1   417  GNP417      0.2372
     27  O6        25.4830   11.7290   -1.7830 O.2   417  GNP417     -0.2069
     28  N1        23.3140   11.5710   -1.1740 N.2   417  GNP417     -0.2485
     29  C2        22.1250   10.8720   -1.2160 C.1   417  GNP417      0.2531
     30  N2        21.0340   11.3730   -0.5540 N.pl3 417  GNP417     -0.0226
     31  N3        22.0250    9.7230   -1.8900 N.2   417  GNP417     -0.3074
     32  C4        23.0950    9.1990   -2.5600 C.2   417  GNP417      0.2300
@<TRIPOS>BOND
     1    18    17    1
     2    12    10    2
     3    17    19    1
     4    17    15    1
     5    11    10    1
     6    14    15    1
     7    14    13    1
     8    19    20    1
     9    19    21    1
    10    10    13    1
    11    10     9    1
    12    15    16    1
    13     8     6    2
    14     7     6    1
    15    16    21    1
    16    23    22    1
    17    23    24    1
    18    21    22    1
    19     6     9    1
    20     6     5    1
    21    22    32    1
    22    24    25    2
    23     4     1    2
    24     2     1    1
    25    32    25    1
    26    32    31    2
    27    25    26    1
    28     1     5    1
    29     1     3    1
    30    31    29    2
    31    26    27    2
    32    26    28    2
    33    29    28    2
    34    29    30    1
