@<TRIPOS>MOLECULE
2pmh_GLN_A_1.pdb
 10 9 0 0 0
SMALL
GASTEIGER

@<TRIPOS>ATOM
      1  N         54.4000   32.9640    8.1270 N.3   201  GLN201     -0.1208
      2  CA        52.9650   33.0980    7.8020 C.3   201  GLN201      0.1948
      3  C         52.7100   33.8220    6.4890 C.2   201  GLN201      0.3819
      4  O         53.5060   33.6420    5.5450 O.co2 201  GLN201     -0.2441
      5  CB        52.2200   33.8130    8.9300 C.3   201  GLN201      0.0403
      6  CG        51.7430   32.8820   10.0340 C.3   201  GLN201      0.0906
      7  CD        50.2660   33.0610   10.3390 C.2   201  GLN201      0.2608
      8  OE1       49.6550   32.2430   11.0270 O.2   201  GLN201     -0.2717
      9  NE2       49.6890   34.1390    9.8330 N.am  201  GLN201     -0.0878
     10  OXT       51.7120   34.5740    6.3960 O.co2 201  GLN201     -0.2441
@<TRIPOS>BOND
     1     4     3   ar
     2    10     3   ar
     3     3     2    1
     4     2     1    1
     5     2     5    1
     6     5     6    1
     7     9     7   am
     8     6     7    1
     9     7     8    2
