@<TRIPOS>MOLECULE
2pmi_AGS_A_1.pdb
 31 33 0 0 0
SMALL
GASTEIGER

@<TRIPOS>ATOM
      1  PG       -77.1950   22.3270   -3.5060 P.3   3001  AGS3001     0.4340
      2  S1G      -78.9610   22.7100   -3.0260 S.3   3001  AGS3001     0.0416
      3  O2G      -77.0130   20.7270   -3.4350 O.2   3001  AGS3001    -0.2423
      4  O3G      -76.1890   23.0200   -2.4520 O.3   3001  AGS3001    -0.1305
      5  PB       -77.6000   23.9260   -5.7880 P.3   3001  AGS3001     0.2262
      6  O1B      -78.1270   24.9410   -4.8480 O.3   3001  AGS3001    -0.4369
      7  O2B      -76.5340   24.7290   -6.7020 O.2   3001  AGS3001    -0.5168
      8  O3B      -76.7790   22.7630   -5.0130 O.3   3001  AGS3001    -0.2405
      9  PA       -79.5600   21.9340   -6.5260 P.3   3001  AGS3001     0.2189
     10  O1A      -79.3430   21.2580   -7.8200 O.2   3001  AGS3001    -0.5170
     11  O2A      -78.8470   20.9130   -5.4970 O.3   3001  AGS3001    -0.4371
     12  O3A      -78.8610   23.3990   -6.6760 O.3   3001  AGS3001    -0.2701
     13  O5'      -81.1670   22.0840   -6.3660 O.3   3001  AGS3001    -0.3112
     14  C5'      -81.6900   21.0750   -5.4920 C.3   3001  AGS3001     0.1813
     15  C4'      -82.5450   19.9550   -6.1190 C.3   3001  AGS3001     0.1821
     16  O4'      -82.8230   19.9670   -7.5420 O.3   3001  AGS3001    -0.3135
     17  C3'      -82.1050   18.5000   -5.8140 C.3   3001  AGS3001     0.2184
     18  O3'      -80.7070   18.2180   -6.0040 O.3   3001  AGS3001    -0.2174
     19  C2'      -82.9840   17.6890   -6.7990 C.3   3001  AGS3001     0.2570
     20  O2'      -84.2800   17.3770   -6.2710 O.3   3001  AGS3001    -0.2130
     21  C1'      -83.0860   18.6170   -8.0320 C.3   3001  AGS3001     0.3186
     22  N9       -82.1140   18.2120   -9.0760 N.pl3 3001  AGS3001    -0.1439
     23  C8       -81.1010   18.9680   -9.5950 C.3   3001  AGS3001     0.3377
     24  N7       -80.4050   18.3310  -10.4860 N.2   3001  AGS3001    -0.2095
     25  C5       -80.9250   17.0950  -10.6230 C.2   3001  AGS3001     0.2526
     26  C6       -80.6380   15.9410  -11.4000 C.2   3001  AGS3001     0.4393
     27  N6       -79.5770   15.9240  -12.2930 N.pl3 3001  AGS3001     0.2180
     28  N1       -81.4130   14.8530  -11.2630 N.2   3001  AGS3001     0.0021
     29  C2       -82.4490   14.8140  -10.4220 C.3   3001  AGS3001     0.5254
     30  N3       -82.7340   15.8770   -9.6770 N.2   3001  AGS3001    -0.0055
     31  C4       -82.0250   17.0110   -9.7350 C.2   3001  AGS3001     0.3518
@<TRIPOS>BOND
     1    27    26    1
     2    26    28    2
     3    26    25    1
     4    28    29    1
     5    25    24    2
     6    25    31    1
     7    24    23    1
     8    29    30    1
     9    31    30    2
    10    31    22    1
    11    23    22    1
    12    22    21    1
    13    21    16    1
    14    21    19    1
    15    10     9    2
    16    16    15    1
    17    19    20    1
    18    19    17    1
    19     7     5    2
    20    12     9    1
    21    12     5    1
    22     9    13    1
    23     9    11    1
    24    13    14    1
    25    15    17    1
    26    15    14    1
    27    18    17    1
    28     5     8    1
    29     5     6    1
    30     8     1    1
    31     1     3    2
    32     1     2    1
    33     1     4    1
