@<TRIPOS>MOLECULE
2pmj_COU_A_1.pdb
 11 12 0 0 0
SMALL
GASTEIGER

@<TRIPOS>ATOM
      1  C1       -22.0800    6.2430  -10.3860 C.ar  1001  COU1001     0.3459
      2  C2       -21.2860    6.8510   -9.3870 C.ar  1001  COU1001     0.0824
      3  C3       -19.9120    6.4730   -9.2020 C.ar  1001  COU1001     0.0097
      4  C4       -19.3200    5.4720  -10.0220 C.ar  1001  COU1001     0.0349
      5  C5       -17.9620    5.0510   -9.8950 C.ar  1001  COU1001     0.0030
      6  C6       -17.4650    4.0330  -10.7720 C.ar  1001  COU1001     0.0002
      7  C7       -18.2700    3.4160  -11.7790 C.ar  1001  COU1001     0.0031
      8  C8       -19.6310    3.8050  -11.9450 C.ar  1001  COU1001     0.0376
      9  C9       -20.1880    4.8180  -11.1040 C.ar  1001  COU1001     0.1487
     10  O1       -23.3030    6.5900  -10.5560 O.2   1001  COU1001    -0.2445
     11  O2       -21.5400    5.2370  -11.2300 O.2   1001  COU1001    -0.4210
@<TRIPOS>BOND
     1     8     7   ar
     2     8     9   ar
     3     7     6   ar
     4    11     9   ar
     5    11     1   ar
     6     9     4   ar
     7     6     5   ar
     8    10     1    2
     9     1     2   ar
    10     4     5   ar
    11     4     3   ar
    12     2     3   ar
