@<TRIPOS>MOLECULE
2pmk_128_A_1.pdb
 42 46 0 0 0
SMALL
GASTEIGER

@<TRIPOS>ATOM
      1  PB       -26.0760   14.9510  -10.1650 P.3   301  128301      0.5373
      2  O1B      -24.9670   15.4220  -11.0580 O.2   301  128301     -0.2221
      3  O2B      -25.8920   15.1680   -8.5980 O.3   301  128301     -0.1143
      4  O3B      -26.4970   13.4650  -10.4300 O.3   301  128301     -0.1143
      5  PA       -27.9480   17.2120   -9.9790 P.3   301  128301      0.2231
      6  O1A      -29.0280   16.7820   -9.0500 O.3   301  128301     -0.4370
      7  O2A      -26.8240   18.0500   -9.4950 O.2   301  128301     -0.5169
      8  O3A      -27.3760   15.8530  -10.5850 O.3   301  128301     -0.2261
      9  O5'      -28.6440   17.9650  -11.2390 O.3   301  128301     -0.3111
     10  C5'      -29.8320   17.5430  -11.8850 C.3   301  128301      0.1812
     11  C4'      -30.2680   18.6170  -12.9200 C.3   301  128301      0.1789
     12  O4'      -30.6810   19.7430  -12.1600 O.3   301  128301     -0.3137
     13  C3'      -29.0160   18.9830  -13.7260 C.3   301  128301      0.1817
     14  O3'      -29.2000   18.7130  -15.1650 O.3   301  128301     -0.3224
     15  C2'      -28.8590   20.4730  -13.5700 C.3   301  128301      0.2204
     16  O2'      -28.8320   20.9950  -14.9260 O.3   301  128301     -0.3182
     17  C1'      -30.1000   20.9280  -12.8170 C.3   301  128301      0.3152
     18  N9       -29.8930   21.7710  -11.6240 N.pl3 301  128301     -0.1440
     19  C8       -29.1130   21.5010  -10.5720 C.3   301  128301      0.3377
     20  N7       -29.2090   22.4740   -9.6750 N.2   301  128301     -0.2095
     21  C5       -30.0510   23.3840  -10.1780 C.2   301  128301      0.2526
     22  C6       -30.5480   24.5890   -9.7250 C.2   301  128301      0.4393
     23  N6       -30.1580   25.0580   -8.5410 N.pl3 301  128301      0.2180
     24  N1       -31.4360   25.2530  -10.4960 N.2   301  128301      0.0021
     25  C2       -31.8190   24.7730  -11.6800 C.3   301  128301      0.5254
     26  N3       -31.3810   23.6320  -12.1470 N.2   301  128301     -0.0055
     27  C4       -30.4870   22.9210  -11.4180 C.2   301  128301      0.3518
     28  C1F      -29.1400   19.9490  -15.9030 C.3   301  128301      0.2704
     29  C2F      -27.9050   19.8910  -16.8250 C.2   301  128301      0.1752
     30  C3F      -28.0080   20.1310  -18.2070 C.2   301  128301      0.0323
     31  C4F      -29.2170   20.4180  -18.8340 C.3   301  128301      0.2131
     32  C5F      -30.3800   20.5020  -18.1200 C.2   301  128301      0.0323
     33  C6F      -30.4290   20.2740  -16.7440 C.2   301  128301      0.1752
     34  N2F      -26.6960   19.6080  -16.3020 N.pl3 301  128301      0.0584
     35  N4F      -29.3370   20.6530  -20.1580 N.pl3 301  128301      0.0409
     36  N6F      -31.6490   20.3860  -16.2350 N.pl3 301  128301      0.0584
     37  O2F      -26.4810   19.3620  -14.9020 O.2   301  128301     -0.1263
     38  O3F      -25.5430   19.5570  -17.1220 O.2   301  128301     -0.1263
     39  O4F      -30.5970   20.9550  -20.7010 O.2   301  128301     -0.1304
     40  O5F      -28.2400   20.6210  -20.9510 O.2   301  128301     -0.1304
     41  O6F      -32.7690   20.7020  -17.0350 O.2   301  128301     -0.1263
     42  O7F      -31.9170   20.2040  -14.8950 O.2   301  128301     -0.1263
@<TRIPOS>BOND
     1    40    35    2
     2    39    35    2
     3    35    31    1
     4    31    30    1
     5    31    32    1
     6    30    29    2
     7    32    33    2
     8    38    34    2
     9    41    36    2
    10    29    34    1
    11    29    28    1
    12    33    36    1
    13    33    28    1
    14    34    37    2
    15    36    42    2
    16    28    14    1
    17    28    16    1
    18    14    13    1
    19    16    15    1
    20    13    15    1
    21    13    11    1
    22    15    17    1
    23    11    12    1
    24    11    10    1
    25    17    12    1
    26    17    18    1
    27    26    25    1
    28    26    27    2
    29    10     9    1
    30    25    24    1
    31    18    27    1
    32    18    19    1
    33    27    21    1
    34     9     5    1
    35     2     1    2
    36     8     1    1
    37     8     5    1
    38    19    20    1
    39    24    22    2
    40     4     1    1
    41    21    22    1
    42    21    20    2
    43     1     3    1
    44     5     7    2
    45     5     6    1
    46    22    23    1
