@<TRIPOS>MOLECULE
2pmk_ADP_A_1.pdb
 27 29 0 0 0
SMALL
GASTEIGER

@<TRIPOS>ATOM
      1  PB       -26.5820   14.8080  -10.4920 P.3   401  ADP401      0.5373
      2  O1B      -25.4330   15.2200  -11.4550 O.2   401  ADP401     -0.2221
      3  O2B      -26.3710   15.1740   -9.0240 O.3   401  ADP401     -0.1143
      4  O3B      -27.1060   13.4500  -10.7860 O.3   401  ADP401     -0.1143
      5  PA       -28.4030   17.0450  -10.3510 P.3   401  ADP401      0.2231
      6  O1A      -29.5040   16.6740   -9.3700 O.3   401  ADP401     -0.4370
      7  O2A      -27.3710   17.9790   -9.7820 O.2   401  ADP401     -0.5169
      8  O3A      -27.8220   15.7110  -10.9920 O.3   401  ADP401     -0.2261
      9  O5'      -29.1040   17.7790  -11.5850 O.3   401  ADP401     -0.3111
     10  C5'      -30.2050   17.2200  -12.2800 C.3   401  ADP401      0.1813
     11  C4'      -30.7520   18.2950  -13.2140 C.3   401  ADP401      0.1821
     12  O4'      -31.2270   19.3980  -12.4550 O.3   401  ADP401     -0.3135
     13  C3'      -29.6930   18.8560  -14.1450 C.3   401  ADP401      0.2184
     14  O3'      -30.1610   18.7600  -15.4910 O.3   401  ADP401     -0.2174
     15  C2'      -29.5110   20.3080  -13.7910 C.3   401  ADP401      0.2570
     16  O2'      -29.4750   21.0710  -15.0070 O.3   401  ADP401     -0.2130
     17  C1'      -30.7450   20.6400  -12.9920 C.3   401  ADP401      0.3186
     18  N9       -30.5000   21.5580  -11.8720 N.pl3 401  ADP401     -0.1439
     19  C8       -29.7310   21.3410  -10.7890 C.3   401  ADP401      0.3377
     20  N7       -29.7830   22.3890   -9.9420 N.2   401  ADP401     -0.2095
     21  C5       -30.6020   23.3080  -10.4960 C.2   401  ADP401      0.2526
     22  C6       -31.1180   24.6450  -10.1440 C.2   401  ADP401      0.4393
     23  N6       -30.7410   25.2550   -9.0000 N.pl3 401  ADP401      0.2180
     24  N1       -31.9800   25.2480  -10.9990 N.2   401  ADP401      0.0021
     25  C2       -32.3680   24.6580  -12.1580 C.3   401  ADP401      0.5254
     26  N3       -31.9530   23.4510  -12.5410 N.2   401  ADP401     -0.0055
     27  C4       -31.0830   22.7380  -11.7710 C.2   401  ADP401      0.3518
@<TRIPOS>BOND
     1    14    13    1
     2    16    15    1
     3    13    15    1
     4    13    11    1
     5    15    17    1
     6    11    12    1
     7    11    10    1
     8    17    12    1
     9    17    18    1
    10    26    25    1
    11    26    27    2
    12    10     9    1
    13    25    24    1
    14    18    27    1
    15    18    19    1
    16    27    21    1
    17     9     5    1
    18     2     1    2
    19    24    22    2
    20     8     1    1
    21     8     5    1
    22    19    20    1
    23     4     1    1
    24    21    22    1
    25    21    20    2
    26     1     3    1
    27     5     7    2
    28     5     6    1
    29    22    23    1
