@<TRIPOS>MOLECULE
2pml_ANP_X_1.pdb
 31 33 0 0 0
SMALL
GASTEIGER

@<TRIPOS>ATOM
      1  PG        -6.9240   12.0980  -24.4740 P.3   381  ANP381      0.4884
      2  O1G       -5.6980   12.6880  -25.1530 O.3   381  ANP381     -0.1240
      3  O2G       -8.0360   11.7170  -25.4330 O.2   381  ANP381     -0.2331
      4  O3G       -7.4210   12.9490  -23.3290 O.3   381  ANP381     -0.1240
      5  PB        -5.4800   10.4820  -22.2400 P.3   381  ANP381      0.4669
      6  O1B       -4.1950    9.7500  -22.5560 O.2   381  ANP381     -0.2351
      7  O2B       -5.3660   11.8670  -21.6440 O.3   381  ANP381     -0.1253
      8  N3B       -6.4170   10.5820  -23.7310 N.3   381  ANP381     -0.0163
      9  PA        -7.6350   10.0000  -20.4630 P.3   381  ANP381      0.2220
     10  O1A       -7.5070    9.9080  -18.9640 O.3   381  ANP381     -0.4370
     11  O2A       -8.1240   11.2890  -21.0820 O.2   381  ANP381     -0.5170
     12  O3A       -6.2340    9.5620  -21.1400 O.3   381  ANP381     -0.2360
     13  O5'       -8.6330    8.8480  -20.9700 O.3   381  ANP381     -0.3111
     14  C5'       -8.9600    8.7350  -22.3560 C.3   381  ANP381      0.1813
     15  C4'      -10.3440    8.1210  -22.5400 C.3   381  ANP381      0.1821
     16  O4'      -10.5430    6.9260  -21.7610 O.3   381  ANP381     -0.3135
     17  C3'      -11.4670    9.0660  -22.1360 C.3   381  ANP381      0.2184
     18  O3'      -11.7760   10.0190  -23.1550 O.3   381  ANP381     -0.2174
     19  C2'      -12.5980    8.0950  -21.8940 C.3   381  ANP381      0.2570
     20  O2'      -13.2110    7.7400  -23.1390 O.3   381  ANP381     -0.2130
     21  C1'      -11.9120    6.8610  -21.3350 C.3   381  ANP381      0.3186
     22  N9       -12.0210    6.8970  -19.8540 N.pl3 381  ANP381     -0.1439
     23  C8       -11.1150    7.4000  -18.9890 C.3   381  ANP381      0.3377
     24  N7       -11.5310    7.2840  -17.6960 N.2   381  ANP381     -0.2095
     25  C5       -12.7350    6.6870  -17.7240 C.2   381  ANP381      0.2526
     26  C6       -13.7370    6.2560  -16.7200 C.2   381  ANP381      0.4393
     27  N6       -13.5210    6.4460  -15.3970 N.pl3 381  ANP381      0.2180
     28  N1       -14.8780    5.6770  -17.1750 N.2   381  ANP381      0.0021
     29  C2       -15.1110    5.4800  -18.4900 C.3   381  ANP381      0.5254
     30  N3       -14.2450    5.8400  -19.4540 N.2   381  ANP381     -0.0055
     31  C4       -13.0600    6.4380  -19.1440 C.2   381  ANP381      0.3518
@<TRIPOS>BOND
     1     3     1    2
     2     2     1    1
     3     1     8    1
     4     1     4    1
     5     8     5    1
     6    18    17    1
     7    20    19    1
     8     6     5    2
     9    15    14    1
    10    15    17    1
    11    15    16    1
    12    14    13    1
    13     5     7    1
    14     5    12    1
    15    17    19    1
    16    19    21    1
    17    16    21    1
    18    21    22    1
    19    12     9    1
    20    11     9    2
    21    13     9    1
    22     9    10    1
    23    22    31    1
    24    22    23    1
    25    30    31    2
    26    30    29    1
    27    31    25    1
    28    23    24    1
    29    29    28    1
    30    25    24    2
    31    25    26    1
    32    28    26    2
    33    26    27    1
