@<TRIPOS>MOLECULE
2pmn_K51_X_1.pdb
 24 26 0 0 0
SMALL
GASTEIGER

@<TRIPOS>ATOM
      1  N4        -7.0100  -30.4760  -16.1160 N.1   344  K51344     -0.1908
      2  C13       -7.9230  -31.1730  -16.2920 C.1   344  K51344      0.1004
      3  C10       -8.9790  -31.8490  -16.5670 C.ar  344  K51344      0.0684
      4  C11       -9.4110  -32.8210  -15.6750 C.ar  344  K51344      0.0103
      5  C12      -10.5550  -33.5620  -15.9570 C.ar  344  K51344      0.0022
      6  C7       -11.2670  -33.3570  -17.1340 C.ar  344  K51344      0.0193
      7  C8       -10.8380  -32.3600  -18.0180 C.ar  344  K51344      0.0022
      8  C9        -9.6870  -31.6160  -17.7470 C.ar  344  K51344      0.0103
      9  C5       -12.5240  -34.1400  -17.3490 C.ar  344  K51344      0.1036
     10  C6       -13.3780  -34.6890  -16.4170 C.ar  344  K51344      0.1197
     11  N3       -14.4000  -35.2280  -17.1240 N.ar  344  K51344     -0.2234
     12  C1       -14.1990  -35.0000  -18.4390 C.ar  344  K51344      0.1640
     13  C2       -14.9340  -35.3330  -19.5640 C.ar  344  K51344      0.0418
     14  C3       -14.4630  -34.9530  -20.8060 C.ar  344  K51344      0.0407
     15  C4       -13.2690  -34.2420  -20.9150 C.ar  344  K51344      0.1678
     16  N1       -12.5660  -33.9250  -19.8050 N.ar  344  K51344     -0.1472
     17  N2       -13.0600  -34.3250  -18.5620 N.ar  344  K51344     -0.2095
     18  N5       -12.8200  -33.8650  -22.1300 N.pl3 344  K51344     -0.2180
     19  C14      -11.4320  -33.5160  -22.3460 C.3   344  K51344      0.1269
     20  C15      -11.2480  -31.9960  -22.2590 C.3   344  K51344      0.2035
     21  O1       -12.1630  -31.2950  -23.1080 O.3   344  K51344     -0.2185
     22  C16      -10.9960  -34.1700  -23.6610 C.3   344  K51344      0.0226
     23  C17      -10.4040  -35.5350  -23.3420 C.3   344  K51344      0.0018
     24  C18      -10.0290  -33.3520  -24.5180 C.3   344  K51344      0.0018
@<TRIPOS>BOND
     1    24    22    1
     2    22    23    1
     3    22    19    1
     4    21    20    1
     5    19    20    1
     6    19    18    1
     7    18    15    1
     8    15    14   ar
     9    15    16   ar
    10    14    13   ar
    11    16    17   ar
    12    13    12   ar
    13    17    12   ar
    14    17     9   ar
    15    12    11   ar
    16     7     8   ar
    17     7     6   ar
    18     8     3   ar
    19     9     6    1
    20     9    10   ar
    21     6     5   ar
    22    11    10   ar
    23     3     2    1
    24     3     4   ar
    25     2     1    3
    26     5     4   ar
