@<TRIPOS>MOLECULE
2pmo_HMD_X_1.pdb
 19 21 0 0 0
SMALL
GASTEIGER

@<TRIPOS>ATOM
      1 BR1       -13.6940  -35.1860  -22.1720 Br    400  HMD400     -0.0138
      2  O1       -14.9090  -36.3740  -16.7500 O.2   400  HMD400     -0.2196
      3  O2        -9.3330  -32.1410  -15.7950 O.2   400  HMD400     -0.2062
      4  N1       -14.0950  -35.5130  -19.2940 N.2   400  HMD400     -0.3839
      5  N2       -13.6120  -35.0080  -15.6360 N.2   400  HMD400     -0.2004
      6  N3        -8.9140  -30.9410  -17.7000 N.2   400  HMD400     -0.2479
      7  N4       -10.4380  -32.0100  -19.0750 N.2   400  HMD400     -0.3165
      8  N5        -9.1100  -30.2670  -19.9530 N.pl3 400  HMD400     -0.0226
      9  C1       -13.3190  -34.9670  -20.2360 C.2   400  HMD400      0.1659
     10  C2       -12.2510  -34.2440  -19.7930 C.2   400  HMD400      0.0385
     11  C3       -12.3850  -34.3480  -18.4230 C.2   400  HMD400      0.0290
     12  C4       -13.5220  -35.1330  -18.1320 C.2   400  HMD400      0.2101
     13  C5       -14.0400  -35.5190  -16.7820 C.1   400  HMD400      0.1802
     14  C6       -12.6310  -33.9910  -15.3150 C.3   400  HMD400      0.1387
     15  C7       -11.3610  -34.3360  -16.0580 C.3   400  HMD400      0.0396
     16  C8       -11.4490  -33.7420  -17.4390 C.3   400  HMD400      0.0936
     17  C9       -10.5600  -32.6090  -17.8660 C.2   400  HMD400      0.2204
     18  C10       -9.5640  -31.8990  -17.0270 C.1   400  HMD400      0.2428
     19  C11       -9.4820  -31.0640  -18.9180 C.1   400  HMD400      0.2523
@<TRIPOS>BOND
     1     1     9    1
     2     9    10    1
     3     9     4    2
     4     8    19    1
     5    10    11    2
     6     4    12    2
     7     7    19    2
     8     7    17    2
     9    19     6    2
    10    11    12    1
    11    11    16    1
    12    12    13    1
    13    17    16    1
    14    17    18    1
    15     6    18    2
    16    16    15    1
    17    18     3    2
    18    13     2    2
    19    13     5    2
    20    15    14    1
    21     5    14    1
