@<TRIPOS>MOLECULE
2pmp_C5P_A_1.pdb
 21 22 0 0 0
SMALL
GASTEIGER

@<TRIPOS>ATOM
      1  O3P      -21.5030    1.1370   -7.1680 O.3   700  C5P700     -0.1145
      2  P        -20.1070    1.2370   -6.7420 P.3   700  C5P700      0.5327
      3  O1P      -19.3370   -0.0470   -6.8490 O.3   700  C5P700     -0.1145
      4  O2P      -19.5150    2.3750   -7.5440 O.2   700  C5P700     -0.2224
      5  O5'      -20.2820    1.6330   -5.2120 O.3   700  C5P700     -0.2675
      6  C5'      -20.8970    2.8820   -4.9230 C.3   700  C5P700      0.1859
      7  C4'      -20.9560    3.0930   -3.4310 C.3   700  C5P700      0.1801
      8  O4'      -21.8610    2.1780   -2.8050 O.3   700  C5P700     -0.3320
      9  C3'      -19.6260    2.8870   -2.7460 C.3   700  C5P700      0.2158
     10  O3'      -18.7350    4.0090   -2.9150 O.3   700  C5P700     -0.2175
     11  C2'      -20.1020    2.6180   -1.3260 C.3   700  C5P700      0.2319
     12  O2'      -20.4650    3.8530   -0.6790 O.3   700  C5P700     -0.2157
     13  C1'      -21.3900    1.8020   -1.5150 C.3   700  C5P700      0.2400
     14  N1       -21.3560    0.3270   -1.4610 N.am  700  C5P700     -0.1778
     15  C2       -21.8160   -0.2970   -0.3010 C.1   700  C5P700      0.2756
     16  N3       -21.8830   -1.6430   -0.2090 N.2   700  C5P700     -0.3024
     17  C4       -21.4510   -2.4230   -1.2350 C.2   700  C5P700      0.2346
     18  C5       -20.9580   -1.8390   -2.3890 C.2   700  C5P700      0.0687
     19  C6       -20.9470   -0.4540   -2.4900 C.2   700  C5P700      0.0836
     20  O2       -22.2150    0.4010    0.6390 O.2   700  C5P700     -0.1925
     21  N4       -21.5130   -3.7570   -1.1050 N.pl3 700  C5P700     -0.0921
@<TRIPOS>BOND
     1     4     2    2
     2     1     2    1
     3     3     2    1
     4     2     5    1
     5     5     6    1
     6     6     7    1
     7     7     8    1
     8     7     9    1
     9    10     9    1
    10     8    13    1
    11     9    11    1
    12    19    18    2
    13    19    14    1
    14    18    17    1
    15    13    14    1
    16    13    11    1
    17    14    15   am
    18    11    12    1
    19    17    21    1
    20    17    16    2
    21    15    16    2
    22    15    20    2
