@<TRIPOS>MOLECULE
2pmt_GSH_A_1.pdb
 20 19 0 0 0
SMALL
GASTEIGER

@<TRIPOS>ATOM
      1  N1        19.7400   59.5450    5.9480 N.3   204  GSH204     -0.1208
      2  CA1       20.3110   59.4700    7.3190 C.3   204  GSH204      0.1948
      3  C1        21.6910   58.8300    7.3120 C.2   204  GSH204      0.3819
      4  O11       21.9850   58.0510    6.3830 O.co2 204  GSH204     -0.2441
      5  O12       22.4660   59.1240    8.2410 O.co2 204  GSH204     -0.2441
      6  CB1       19.3840   58.6770    8.2350 C.3   204  GSH204      0.0402
      7  CG1       19.9300   58.4760    9.6400 C.3   204  GSH204      0.0889
      8  CD1       18.9680   57.7280   10.5440 C.2   204  GSH204      0.2418
      9  OE1       17.9700   57.1850   10.0780 O.2   204  GSH204     -0.2733
     10  N2        19.2760   57.6840   11.8370 N.am  204  GSH204     -0.1968
     11  CA2       18.4250   57.0150   12.8250 C.3   204  GSH204      0.1843
     12  C2        17.8830   58.0660   13.7610 C.2   204  GSH204      0.2627
     13  O2        18.6420   58.7290   14.4600 O.2   204  GSH204     -0.2714
     14  CB2       19.2290   56.0130   13.6350 C.3   204  GSH204      0.0997
     15  SG2       19.9690   54.7170   12.6100 S.3   204  GSH204     -0.0797
     16  N3        16.5700   58.2180   13.7840 N.am  204  GSH204     -0.1917
     17  CA3       15.9840   59.2290   14.6410 C.3   204  GSH204      0.2285
     18  C3        14.7750   58.7210   15.3920 C.2   204  GSH204      0.3865
     19  O31       14.5100   57.4990   15.3230 O.co2 204  GSH204     -0.2437
     20  O32       14.0970   59.5390   16.0470 O.co2 204  GSH204     -0.2437
@<TRIPOS>BOND
     1     1     2    1
     2     4     3   ar
     3     3     2    1
     4     3     5   ar
     5     2     6    1
     6     6     7    1
     7     7     8    1
     8     9     8    2
     9     8    10   am
    10    10    11    1
    11    15    14    1
    12    11    14    1
    13    11    12    1
    14    12    16   am
    15    12    13    2
    16    16    17    1
    17    17    18    1
    18    19    18   ar
    19    18    20   ar
