@<TRIPOS>MOLECULE
2pn6_GLN_A_1.pdb
 10 9 0 0 0
SMALL
GASTEIGER

@<TRIPOS>ATOM
      1  N         12.9010    1.2910   -7.5270 N.3   1002  GLN1002    -0.1208
      2  CA        13.2210    0.0110   -8.2330 C.3   1002  GLN1002     0.1948
      3  C         13.7720   -1.0120   -7.2410 C.2   1002  GLN1002     0.3819
      4  O         13.9850   -2.1760   -7.6400 O.co2 1002  GLN1002    -0.2441
      5  CB        14.2280    0.2590   -9.3700 C.3   1002  GLN1002     0.0403
      6  CG        14.4610   -0.9890  -10.2340 C.3   1002  GLN1002     0.0906
      7  CD        15.1870   -0.7420  -11.5560 C.2   1002  GLN1002     0.2608
      8  OE1       15.7090   -1.6830  -12.1610 O.2   1002  GLN1002    -0.2717
      9  NE2       15.2060    0.4970  -12.0180 N.am  1002  GLN1002    -0.0878
     10  OXT       13.9710   -0.6370   -6.0660 O.co2 1002  GLN1002    -0.2441
@<TRIPOS>BOND
     1     8     7    2
     2     9     7   am
     3     7     6    1
     4     6     5    1
     5     5     2    1
     6     2     1    1
     7     2     3    1
     8     4     3   ar
     9     3    10   ar
