@<TRIPOS>MOLECULE
2pnc_CLU_A_1.pdb
 14 15 0 0 0
SMALL
GASTEIGER

@<TRIPOS>ATOM
      1 CL1        37.0790   -8.9240   43.0460 Cl    808  CLU808     -0.0808
      2  CAM       33.3700  -10.2680   42.1170 C.ar  808  CLU808      0.0745
      3  CAE       32.8120   -9.1890   41.4380 C.ar  808  CLU808      0.0128
      4  CAC       33.5550   -8.0300   41.2450 C.ar  808  CLU808      0.0018
      5  CAD       34.8510   -7.9540   41.7370 C.ar  808  CLU808      0.0128
      6  CAN       34.6660  -10.1930   42.6000 C.ar  808  CLU808      0.1026
      7  CAL       35.4040   -9.0350   42.4140 C.ar  808  CLU808      0.0745
      8 CL2        32.4050  -11.7610   42.3600 Cl    808  CLU808     -0.0808
      9  NAJ       35.1980  -11.2170   43.2650 N.pl3 808  CLU808     -0.1447
     10  CAK       36.0320  -12.2400   42.8240 C.1   808  CLU808      0.1071
     11  NAI       36.4350  -12.3300   41.5580 N.2   808  CLU808     -0.2045
     12  CAG       37.2420  -13.5250   41.3250 C.3   808  CLU808      0.1647
     13  CAF       37.7120  -13.8530   42.7540 C.3   808  CLU808      0.1647
     14  NAH       36.5950  -13.3060   43.5130 N.2   808  CLU808     -0.2045
@<TRIPOS>BOND
     1     4     3   ar
     2     4     5   ar
     3    12    11    1
     4    12    13    1
     5     3     2   ar
     6    11    10    2
     7     5     7   ar
     8     2     8    1
     9     2     6   ar
    10     7     6   ar
    11     7     1    1
    12     6     9    1
    13    13    14    1
    14    10     9    1
    15    10    14    2
