@<TRIPOS>MOLECULE
2pnn_ATP_A_1.pdb
 31 33 0 0 0
SMALL
GASTEIGER

@<TRIPOS>ATOM
      1  PG        24.8170    9.6020  -26.6600 P.3   374  ATP374      0.5373
      2  O1G       24.5510   11.0570  -26.3190 O.3   374  ATP374     -0.1143
      3  O2G       24.1880    9.1470  -27.9660 O.2   374  ATP374     -0.2221
      4  O3G       24.6170    8.6630  -25.4930 O.3   374  ATP374     -0.1143
      5  PB        27.3350    8.3390  -27.2700 P.3   374  ATP374      0.2277
      6  O1B       26.5000    7.2720  -27.9590 O.2   374  ATP374     -0.5168
      7  O2B       28.6010    8.9030  -27.8970 O.3   374  ATP374     -0.4368
      8  O3B       26.4240    9.6300  -26.9180 O.3   374  ATP374     -0.2258
      9  PA        28.7270    8.2670  -24.6730 P.3   374  ATP374      0.2189
     10  O1A       28.0660    8.1320  -23.3330 O.3   374  ATP374     -0.4371
     11  O2A       29.4830    9.5320  -24.9840 O.2   374  ATP374     -0.5170
     12  O3A       27.5980    7.8120  -25.7500 O.3   374  ATP374     -0.2700
     13  O5'       29.6910    7.0020  -24.8300 O.3   374  ATP374     -0.3112
     14  C5'       29.0500    5.7280  -24.9210 C.3   374  ATP374      0.1813
     15  C4'       30.1190    4.7280  -25.3240 C.3   374  ATP374      0.1821
     16  O4'       31.0980    4.5720  -24.2820 O.3   374  ATP374     -0.3135
     17  C3'       29.5740    3.3420  -25.6320 C.3   374  ATP374      0.2184
     18  O3'       29.1120    3.2070  -26.9830 O.3   374  ATP374     -0.2174
     19  C2'       30.7900    2.4850  -25.3710 C.3   374  ATP374      0.2570
     20  O2'       31.6320    2.3980  -26.5230 O.3   374  ATP374     -0.2130
     21  C1'       31.5450    3.2170  -24.2730 C.3   374  ATP374      0.3186
     22  N9        31.2520    2.5480  -22.9730 N.pl3 374  ATP374     -0.1439
     23  C8        30.0430    2.2620  -22.4030 C.3   374  ATP374      0.3377
     24  N7        30.1810    1.6230  -21.2060 N.2   374  ATP374     -0.2095
     25  C5        31.5020    1.5070  -21.0090 C.2   374  ATP374      0.2526
     26  C6        32.3570    0.9420  -19.9500 C.2   374  ATP374      0.4393
     27  N6        31.7920    0.3680  -18.8620 N.pl3 374  ATP374      0.2180
     28  N1        33.7100    1.0080  -20.1210 N.2   374  ATP374      0.0021
     29  C2        34.2640    1.5720  -21.2290 C.3   374  ATP374      0.5254
     30  N3        33.5470    2.1200  -22.2350 N.2   374  ATP374     -0.0055
     31  C4        32.1990    2.1030  -22.1670 C.2   374  ATP374      0.3518
@<TRIPOS>BOND
     1     3     1    2
     2     6     5    2
     3     7     5    1
     4     5     8    1
     5     5    12    1
     6    18    17    1
     7     8     1    1
     8     1     2    1
     9     1     4    1
    10    20    19    1
    11    12     9    1
    12    17    19    1
    13    17    15    1
    14    19    21    1
    15    15    14    1
    16    15    16    1
    17    11     9    2
    18    14    13    1
    19    13     9    1
    20     9    10    1
    21    16    21    1
    22    21    22    1
    23    22    23    1
    24    22    31    1
    25    23    24    1
    26    30    31    2
    27    30    29    1
    28    31    25    1
    29    29    28    1
    30    24    25    2
    31    25    26    1
    32    28    26    2
    33    26    27    1
