@<TRIPOS>MOLECULE
2pno_GSH_A_1.pdb
 20 19 0 0 0
SMALL
GASTEIGER

@<TRIPOS>ATOM
      1  N1       -26.8270  -95.4660  -16.5110 N.3   201  GSH201     -0.1208
      2  CA1      -27.9600  -94.6600  -16.1140 C.3   201  GSH201      0.1948
      3  C1       -28.6640  -95.3940  -15.0170 C.2   201  GSH201      0.3819
      4  O11      -28.4080  -96.5950  -14.7980 O.co2 201  GSH201     -0.2441
      5  O12      -29.5020  -94.8240  -14.2890 O.co2 201  GSH201     -0.2441
      6  CB1      -28.8640  -94.4620  -17.3230 C.3   201  GSH201      0.0402
      7  CG1      -29.9590  -93.4290  -17.0950 C.3   201  GSH201      0.0889
      8  CD1      -29.4650  -92.3030  -16.2180 C.2   201  GSH201      0.2418
      9  OE1      -28.3860  -91.4850  -16.6140 O.2   201  GSH201     -0.2733
     10  N2       -30.1030  -92.1400  -15.0660 N.am  201  GSH201     -0.1968
     11  CA2      -29.8680  -91.0000  -14.2050 C.3   201  GSH201      0.1843
     12  C2       -29.0330  -91.3380  -13.0090 C.2   201  GSH201      0.2627
     13  O2       -28.7510  -90.3590  -12.0470 O.2   201  GSH201     -0.2714
     14  CB2      -31.2120  -90.4930  -13.7290 C.3   201  GSH201      0.0997
     15  SG2      -32.1690  -91.8120  -12.9520 S.3   201  GSH201     -0.0797
     16  N3       -28.5860  -92.5760  -12.9080 N.am  201  GSH201     -0.1917
     17  CA3      -28.1150  -93.0990  -11.6490 C.3   201  GSH201      0.2285
     18  C3       -26.9520  -94.0360  -11.8520 C.2   201  GSH201      0.3865
     19  O31      -26.5860  -94.3540  -12.9970 O.co2 201  GSH201     -0.2437
     20  O32      -26.3330  -94.5110  -10.8780 O.co2 201  GSH201     -0.2437
@<TRIPOS>BOND
     1     6     7    1
     2     6     2    1
     3     7     8    1
     4     9     8    2
     5     1     2    1
     6     8    10   am
     7     2     3    1
     8    10    11    1
     9     3     4   ar
    10     3     5   ar
    11    11    14    1
    12    11    12    1
    13    14    15    1
    14    12    16   am
    15    12    13    2
    16    19    18   ar
    17    16    17    1
    18    18    17    1
    19    18    20   ar
