@<TRIPOS>MOLECULE
2pnr_RED_C_1.pdb
 11 10 0 0 0
SMALL
GASTEIGER

@<TRIPOS>ATOM
      1  C1        32.3410    1.4270   18.7710 C.2   900  RED900      0.2074
      2  O1        32.5540    1.8600   19.9550 O.2   900  RED900     -0.2883
      3  C2        31.5880    0.1490   18.3850 C.3   900  RED900      0.0722
      4  C3        30.1440    0.2010   18.9670 C.3   900  RED900      0.0082
      5  C4        29.8070   -1.0590   19.8080 C.3   900  RED900      0.0014
      6  C5        29.1730   -0.6520   21.1720 C.3   900  RED900      0.0117
      7  C6        27.7080   -0.1140   21.0510 C.3   900  RED900      0.0588
      8  C7        27.1970    0.1930   22.5200 C.3   900  RED900      0.0242
      9  C8        25.7200   -0.2240   22.8210 C.3   900  RED900      0.0696
     10  S8        25.0430    1.1480   23.7680 S.3   900  RED900     -0.0821
     11  S6        26.6620   -1.3400   20.1650 S.3   900  RED900     -0.0830
@<TRIPOS>BOND
     1     3     1    1
     2     3     4    1
     3     1     2    2
     4     4     5    1
     5     5     6    1
     6    11     7    1
     7     7     6    1
     8     7     8    1
     9     8     9    1
    10     9    10    1
