@<TRIPOS>MOLECULE
2pnu_ENM_A_1.pdb
 32 36 0 0 0
SMALL
GASTEIGER

@<TRIPOS>ATOM
      1  C23       30.5150    2.1340   11.4970 C.ar  302  ENM302      0.0279
      2  C24       30.0030    2.2100   12.8120 C.ar  302  ENM302      0.1421
      3  F2        30.3230    3.2570   13.6150 F     302  ENM302     -0.2041
      4  C25       29.1260    1.2230   13.2840 C.ar  302  ENM302      0.0592
      5  C26       28.7540    0.1600   12.4480 C.ar  302  ENM302      0.1421
      6  F1        27.8780   -0.7670   12.8900 F     302  ENM302     -0.2041
      7  C27       29.2600    0.0790   11.1420 C.ar  302  ENM302      0.0279
      8  C22       30.1360    1.0660   10.6600 C.ar  302  ENM302      0.0117
      9  C21       30.5500    1.0170    9.3300 C.3   302  ENM302      0.1687
     10  O03       29.6860    0.3710    8.3840 O.3   302  ENM302     -0.3490
     11  C20       30.0730    0.6240    7.0300 C.3   302  ENM302      0.1427
     12  C19       28.9340    0.0740    6.1510 C.3   302  ENM302      0.0345
     13  C12       29.1160    0.4020    4.6250 C.3   302  ENM302      0.0306
     14  C13       29.6980    1.8150    4.3850 C.3   302  ENM302      0.0025
     15  C14       28.7030    2.8900    4.9300 C.3   302  ENM302      0.0001
     16  C10       27.2920    2.7480    4.2710 C.3   302  ENM302      0.0000
     17  C05       26.2700    3.8310    4.7490 C.3   302  ENM302      0.0008
     18  C18       26.0300    3.7050    6.2790 C.3   302  ENM302      0.0000
     19  C06       26.8360    5.2460    4.4220 C.3   302  ENM302      0.0078
     20  C01       25.8350    6.3820    4.7490 C.3   302  ENM302      0.0645
     21  C02       24.4670    6.0960    4.1150 C.2   302  ENM302      0.1506
     22  O02       23.8740    6.9730    3.4850 O.2   302  ENM302     -0.2961
     23  C03       23.8630    4.6930    4.2660 C.3   302  ENM302      0.0645
     24  C04       24.9320    3.6210    3.9550 C.3   302  ENM302      0.0073
     25  C07       24.3570    2.2040    4.1700 C.3   302  ENM302      0.0004
     26  C08       25.3720    1.1440    3.7050 C.3   302  ENM302      0.0000
     27  C09       26.7250    1.2930    4.4500 C.3   302  ENM302      0.0001
     28  C11       27.7730    0.3070    3.8960 C.3   302  ENM302      0.0025
     29  C15       27.4240   -1.1820    3.9250 C.3   302  ENM302      0.0027
     30  C16       28.8020   -1.8630    3.7130 C.3   302  ENM302      0.0329
     31  C17       29.8560   -0.7390    3.9190 C.3   302  ENM302      0.1519
     32  O01       30.9900   -1.2100    4.6580 O.3   302  ENM302     -0.2232
@<TRIPOS>BOND
     1    22    21    2
     2    26    25    1
     3    26    27    1
     4    30    31    1
     5    30    29    1
     6    28    29    1
     7    28    27    1
     8    28    13    1
     9    31    13    1
    10    31    32    1
    11    24    25    1
    12    24    23    1
    13    24    17    1
    14    21    23    1
    15    21    20    1
    16    16    27    1
    17    16    17    1
    18    16    15    1
    19    14    13    1
    20    14    15    1
    21    19    20    1
    22    19    17    1
    23    13    12    1
    24    17    18    1
    25    12    11    1
    26    11    10    1
    27    10     9    1
    28     9     8    1
    29     8     7   ar
    30     8     1   ar
    31     7     5   ar
    32     1     2   ar
    33     5     6    1
    34     5     4   ar
    35     2     4   ar
    36     2     3    1
