@<TRIPOS>MOLECULE
2pnz_5GP_A_1.pdb
 24 26 0 0 0
SMALL
GASTEIGER

@<TRIPOS>ATOM
      1  P        -49.8520   16.7630  -24.0360 P.3   279  5GP279      0.5327
      2  O1P      -49.8900   15.4520  -24.8170 O.3   279  5GP279     -0.1145
      3  O2P      -49.2500   17.9050  -24.8410 O.2   279  5GP279     -0.2224
      4  O3P      -49.3800   16.6690  -22.5770 O.3   279  5GP279     -0.1145
      5  O5'      -51.4330   17.1420  -23.9330 O.3   279  5GP279     -0.2675
      6  C5'      -52.3870   16.2160  -23.4130 C.3   279  5GP279      0.1859
      7  C4'      -53.6520   16.9300  -22.9350 C.3   279  5GP279      0.1801
      8  O4'      -53.9830   16.4650  -21.6170 O.3   279  5GP279     -0.3326
      9  C3'      -53.4790   18.4380  -22.8830 C.3   279  5GP279      0.2158
     10  O3'      -54.3970   19.0830  -23.7840 O.3   279  5GP279     -0.2175
     11  C2'      -53.6580   18.8070  -21.4100 C.3   279  5GP279      0.2310
     12  O2'      -54.7640   19.6910  -21.2250 O.3   279  5GP279     -0.2158
     13  C1'      -53.9510   17.5150  -20.6550 C.3   279  5GP279      0.2293
     14  N9       -52.8990   17.2210  -19.6460 N.pl3 279  5GP279     -0.2354
     15  C8       -51.6740   16.7400  -19.9020 C.3   279  5GP279      0.2246
     16  N7       -50.9830   16.6060  -18.7410 N.2   279  5GP279     -0.2322
     17  C5       -51.7990   17.0050  -17.7340 C.2   279  5GP279      0.2182
     18  C6       -51.6580   17.0850  -16.3360 C.1   279  5GP279      0.2372
     19  O6       -50.5780   16.7410  -15.7800 O.2   279  5GP279     -0.2069
     20  N1       -52.6870   17.5400  -15.5920 N.2   279  5GP279     -0.2485
     21  C2       -53.8410   17.9130  -16.1660 C.1   279  5GP279      0.2531
     22  N2       -54.8610   18.3760  -15.4130 N.pl3 279  5GP279     -0.0226
     23  N3       -54.0000   17.8440  -17.5050 N.2   279  5GP279     -0.3074
     24  C4       -53.0020   17.3930  -18.3150 C.2   279  5GP279      0.2300
@<TRIPOS>BOND
     1     3     1    2
     2     2     1    1
     3     1     5    1
     4     1     4    1
     5     5     6    1
     6    10     9    1
     7     6     7    1
     8     7     9    1
     9     7     8    1
    10     9    11    1
    11     8    13    1
    12    11    12    1
    13    11    13    1
    14    13    14    1
    15    15    14    1
    16    15    16    1
    17    14    24    1
    18    16    17    2
    19    24    17    1
    20    24    23    2
    21    17    18    1
    22    23    21    2
    23    18    19    2
    24    18    20    2
    25    21    20    2
    26    21    22    1
