@<TRIPOS>MOLECULE
2pnz_UDP_A_1.pdb
 25 26 0 0 0
SMALL
GASTEIGER

@<TRIPOS>ATOM
      1  N1       -34.8340    9.3600  -24.8110 N.am  250  UDP250     -0.1996
      2  C2       -35.9570    9.5390  -23.9850 C.1   250  UDP250      0.2802
      3  N3       -36.8630   10.5800  -24.2100 N.2   250  UDP250     -0.2497
      4  C4       -36.6660   11.4630  -25.2670 C.1   250  UDP250      0.1941
      5  C5       -35.5340   11.2680  -26.0830 C.3   250  UDP250      0.1579
      6  C6       -34.5420   10.3370  -25.7320 C.3   250  UDP250      0.1249
      7  O2       -36.1790    8.7830  -23.0240 O.2   250  UDP250     -0.1922
      8  O4       -37.4780   12.3900  -25.4550 O.2   250  UDP250     -0.2133
      9  C1'      -33.9150    8.2080  -24.5320 C.3   250  UDP250      0.2361
     10  C2'      -34.2670    7.0750  -25.4920 C.3   250  UDP250      0.2316
     11  O2'      -34.2510    5.8550  -24.8140 O.3   250  UDP250     -0.2157
     12  C3'      -33.1100    7.0340  -26.4300 C.3   250  UDP250      0.2158
     13  C4'      -31.9870    7.3530  -25.4290 C.3   250  UDP250      0.1799
     14  O4'      -32.5150    8.4270  -24.6740 O.3   250  UDP250     -0.3322
     15  O3'      -33.1120    5.7720  -27.0840 O.3   250  UDP250     -0.2175
     16  C5'      -30.5950    7.6500  -26.0140 C.3   250  UDP250      0.1813
     17  O5'      -30.3470    9.0030  -26.3570 O.3   250  UDP250     -0.3111
     18  PA       -29.6220    9.4200  -27.7440 P.3   250  UDP250      0.2231
     19  O1A      -28.2130    8.9170  -27.7180 O.3   250  UDP250     -0.4370
     20  O2A      -29.7350   10.9190  -27.8760 O.2   250  UDP250     -0.5169
     21  O3A      -30.4350    8.7120  -29.0020 O.3   250  UDP250     -0.2261
     22  PB       -30.3540    7.1340  -29.4630 P.3   250  UDP250      0.5373
     23  O1B      -31.6810    6.5150  -29.1610 O.3   250  UDP250     -0.1143
     24  O2B      -29.2320    6.4550  -28.6800 O.3   250  UDP250     -0.1143
     25  O3B      -30.0120    7.0480  -30.9360 O.2   250  UDP250     -0.2221
@<TRIPOS>BOND
     1    25    22    2
     2    22    23    1
     3    22    21    1
     4    22    24    1
     5    21    18    1
     6    20    18    2
     7    18    19    1
     8    18    17    1
     9    15    12    1
    10    12    10    1
    11    12    13    1
    12    17    16    1
    13     5     6    1
    14     5     4    1
    15    16    13    1
    16     6     1    1
    17    10    11    1
    18    10     9    1
    19     8     4    2
    20    13    14    1
    21     4     3    2
    22     1     9    1
    23     1     2   am
    24    14     9    1
    25     3     2    2
    26     2     7    2
