@<TRIPOS>MOLECULE
2po0_ADP_A_1.pdb
 27 29 0 0 0
SMALL
GASTEIGER

@<TRIPOS>ATOM
      1  PB       -22.3500   18.2660   27.1200 P.3   300  ADP300      0.5373
      2  O1B      -23.5110   18.6020   26.2460 O.2   300  ADP300     -0.2221
      3  O2B      -22.6370   17.2900   28.2140 O.3   300  ADP300     -0.1143
      4  O3B      -21.1100   17.9990   26.3080 O.3   300  ADP300     -0.1143
      5  PA       -22.6880   20.9390   28.3050 P.3   300  ADP300      0.2231
      6  O1A      -21.9910   21.6840   29.4600 O.3   300  ADP300     -0.4370
      7  O2A      -24.0940   20.4820   28.3370 O.2   300  ADP300     -0.5169
      8  O3A      -21.8990   19.5770   27.9690 O.3   300  ADP300     -0.2261
      9  O5'      -22.7210   21.8030   26.9770 O.3   300  ADP300     -0.3111
     10  C5'      -21.6100   22.4690   26.4230 C.3   300  ADP300      0.1813
     11  C4'      -21.9920   23.8020   25.8160 C.3   300  ADP300      0.1821
     12  O4'      -23.0540   23.7320   24.8860 O.3   300  ADP300     -0.3135
     13  C3'      -22.4130   24.8640   26.7860 C.3   300  ADP300      0.2184
     14  O3'      -21.3850   25.4950   27.5180 O.3   300  ADP300     -0.2174
     15  C2'      -22.9930   25.8510   25.8400 C.3   300  ADP300      0.2570
     16  O2'      -21.9800   26.6190   25.2280 O.3   300  ADP300     -0.2130
     17  C1'      -23.6420   25.0120   24.7810 C.3   300  ADP300      0.3186
     18  N9       -25.0590   25.0900   25.1690 N.pl3 300  ADP300     -0.1439
     19  C8       -25.6040   24.5210   26.2390 C.3   300  ADP300      0.3377
     20  N7       -26.9000   24.7970   26.3400 N.2   300  ADP300     -0.2095
     21  C5       -27.2170   25.5750   25.3150 C.2   300  ADP300      0.2526
     22  C6       -28.4360   26.2290   24.8260 C.2   300  ADP300      0.4393
     23  N6       -29.5930   26.0880   25.4810 N.pl3 300  ADP300      0.2180
     24  N1       -28.3430   26.9540   23.7010 N.2   300  ADP300      0.0021
     25  C2       -27.1930   27.1000   23.0380 C.3   300  ADP300      0.5254
     26  N3       -26.0510   26.5400   23.4310 N.2   300  ADP300     -0.0055
     27  C4       -25.9960   25.7760   24.5400 C.2   300  ADP300      0.3518
@<TRIPOS>BOND
     1    25    26    1
     2    25    24    1
     3    26    27    2
     4    24    22    2
     5    27    18    1
     6    27    21    1
     7    17    12    1
     8    17    18    1
     9    17    15    1
    10    22    21    1
    11    22    23    1
    12    12    11    1
    13    18    19    1
    14    16    15    1
    15    21    20    2
    16    11    10    1
    17    11    13    1
    18    15    13    1
    19    19    20    1
    20     2     1    2
    21     4     1    1
    22    10     9    1
    23    13    14    1
    24     9     5    1
    25     1     8    1
    26     1     3    1
    27     8     5    1
    28     5     7    2
    29     5     6    1
