@<TRIPOS>MOLECULE
2po2_CDP_A_1.pdb
 25 26 0 0 0
SMALL
GASTEIGER

@<TRIPOS>ATOM
      1  O3B      -28.8940    6.5310  -28.7160 O.3   250  CDP250     -0.1143
      2  PB       -30.0320    7.0280  -29.5480 P.3   250  CDP250      0.5373
      3  O1B      -29.6750    7.0730  -30.9980 O.2   250  CDP250     -0.2221
      4  O2B      -31.3810    6.4280  -29.3960 O.3   250  CDP250     -0.1143
      5  O3A      -30.1390    8.5780  -29.0980 O.3   250  CDP250     -0.2261
      6  PA       -29.5050    9.3290  -27.7740 P.3   250  CDP250      0.2231
      7  O1A      -28.1150    8.8280  -27.3990 O.3   250  CDP250     -0.4370
      8  O2A      -29.7390   10.8110  -27.8440 O.2   250  CDP250     -0.5169
      9  O5'      -30.4550    8.8100  -26.6180 O.3   250  CDP250     -0.3111
     10  C5'      -30.2200    7.5080  -26.0660 C.3   250  CDP250      0.1813
     11  C4'      -31.4870    6.9040  -25.4500 C.3   250  CDP250      0.1799
     12  O4'      -31.8820    7.6700  -24.3070 O.3   250  CDP250     -0.3320
     13  C3'      -32.6810    6.8340  -26.3930 C.3   250  CDP250      0.2158
     14  O3'      -32.7840    5.6560  -27.2170 O.3   250  CDP250     -0.2175
     15  C2'      -33.7840    6.7630  -25.3830 C.3   250  CDP250      0.2319
     16  O2'      -33.9180    5.4100  -24.9300 O.3   250  CDP250     -0.2157
     17  C1'      -33.3150    7.6830  -24.2590 C.3   250  CDP250      0.2400
     18  N1       -33.9830    8.9570  -24.5500 N.am  250  CDP250     -0.1778
     19  C2       -35.3170    9.0980  -24.0750 C.1   250  CDP250      0.2756
     20  O2       -35.9100    8.2450  -23.4090 O.2   250  CDP250     -0.1925
     21  N3       -35.9930   10.2120  -24.3030 N.2   250  CDP250     -0.3024
     22  C4       -35.4420   11.2180  -25.0090 C.2   250  CDP250      0.2346
     23  N4       -36.2670   12.2940  -25.1850 N.pl3 250  CDP250     -0.0921
     24  C5       -34.1180   11.1450  -25.4980 C.2   250  CDP250      0.0687
     25  C6       -33.3940    9.9730  -25.2480 C.2   250  CDP250      0.0836
@<TRIPOS>BOND
     1     3     2    2
     2     2     4    1
     3     2     5    1
     4     2     1    1
     5     5     6    1
     6     8     6    2
     7     6     7    1
     8     6     9    1
     9    14    13    1
    10     9    10    1
    11    13    11    1
    12    13    15    1
    13    10    11    1
    14    24    25    2
    15    24    22    1
    16    11    12    1
    17    15    16    1
    18    15    17    1
    19    25    18    1
    20    23    22    1
    21    22    21    2
    22    18    17    1
    23    18    19   am
    24    12    17    1
    25    21    19    2
    26    19    20    2
