@<TRIPOS>MOLECULE
2po3_T4K_A_1.pdb
 50 53 0 0 0
SMALL
GASTEIGER

@<TRIPOS>ATOM
      1  N1L       20.2640  -10.9540  -45.4970 N.ar  1500  T4K1500    -0.2452
      2  C2L       19.0460  -10.7540  -45.9420 C.ar  1500  T4K1500     0.0981
      3  C2A       18.7940  -10.7050  -47.4440 C.3   1500  T4K1500     0.0555
      4  C3L       17.9840  -10.5890  -45.0470 C.ar  1500  T4K1500     0.2103
      5  O3L       16.7030  -10.3760  -45.5320 O.3   1500  T4K1500    -0.2853
      6  C4L       18.2510  -10.6390  -43.6250 C.ar  1500  T4K1500     0.0587
      7  C4A       17.2000  -10.4690  -42.6570 C.2   1500  T4K1500     0.0962
      8  C5L       19.5810  -10.8320  -43.2210 C.ar  1500  T4K1500     0.0316
      9  C6L       20.5570  -10.9910  -44.1990 C.ar  1500  T4K1500     0.0968
     10  C5B       19.9600  -10.9000  -41.7340 C.3   1500  T4K1500     0.1819
     11  OP4       19.5770  -12.1830  -41.2010 O.3   1500  T4K1500    -0.2653
     12  PL        19.3750  -12.1180  -39.5850 P.3   1500  T4K1500     0.5329
     13  OP1       18.0860  -11.2300  -39.1590 O.2   1500  T4K1500    -0.2224
     14  OP2       19.1860  -13.6100  -39.0640 O.3   1500  T4K1500    -0.1145
     15  OP3       20.6480  -11.4780  -38.9280 O.3   1500  T4K1500    -0.1145
     16  C1G       12.9790   -8.3740  -40.8790 C.3   1500  T4K1500     0.2740
     17  C2G       13.8850   -9.3220  -40.0550 C.3   1500  T4K1500     0.2402
     18  O2G       14.2380   -8.6750  -38.8200 O.3   1500  T4K1500    -0.2149
     19  C3G       15.1820   -9.6890  -40.8270 C.3   1500  T4K1500     0.2118
     20  O3G       15.8190  -10.7610  -40.1320 O.3   1500  T4K1500    -0.2180
     21  C4G       14.8230  -10.0980  -42.2870 C.3   1500  T4K1500     0.1633
     22  N4A       15.9520  -10.2780  -43.1040 N.2   1500  T4K1500    -0.2656
     23  C5G       13.9520   -8.9680  -42.9100 C.3   1500  T4K1500     0.1428
     24  C6G       13.7130   -9.2260  -44.4170 C.3   1500  T4K1500     0.0343
     25  O5G       12.7060   -8.8660  -42.2090 O.3   1500  T4K1500    -0.3288
     26  P2        12.5580   -6.0310  -40.2740 P.3   1500  T4K1500     0.2208
     27  O3P       13.3550   -4.6660  -39.9180 O.3   1500  T4K1500    -0.4371
     28  O4P       11.4120   -5.7160  -41.3800 O.2   1500  T4K1500    -0.5170
     29  OPP       11.9480   -6.7360  -38.8850 O.3   1500  T4K1500    -0.2703
     30  P         10.5910   -6.0400  -38.2390 P.3   1500  T4K1500     0.2189
     31  O1P       10.8340   -5.8520  -36.6830 O.3   1500  T4K1500    -0.4371
     32  O2P       10.2430   -4.6040  -38.8570 O.2   1500  T4K1500    -0.5170
     33  O5         9.3600   -7.0500  -38.4200 O.3   1500  T4K1500    -0.3112
     34  C5         9.0040   -7.0640  -39.7960 C.3   1500  T4K1500     0.1812
     35  C4         7.5720   -7.5890  -39.8630 C.3   1500  T4K1500     0.1773
     36  O4         7.4770   -8.8470  -39.1350 O.3   1500  T4K1500    -0.3339
     37  C3         6.5760   -6.6020  -39.1650 C.3   1500  T4K1500     0.1857
     38  O3         5.3420   -6.5160  -39.8920 O.3   1500  T4K1500    -0.2203
     39  C2         6.3510   -7.2480  -37.7880 C.3   1500  T4K1500     0.0874
     40  C1         6.4950   -8.7380  -38.0930 C.3   1500  T4K1500     0.2090
     41  N11        6.9760   -9.4890  -36.9150 N.am  1500  T4K1500    -0.1794
     42  C61        8.3130   -9.4170  -36.5510 C.2   1500  T4K1500     0.0877
     43  C51        8.7700  -10.1260  -35.4810 C.2   1500  T4K1500     0.0891
     44  C5A       10.2440  -10.0550  -35.0390 C.3   1500  T4K1500     0.0462
     45  C21        6.1210  -10.2810  -36.2290 C.1   1500  T4K1500     0.2844
     46  O21        4.9400  -10.3370  -36.5570 O.2   1500  T4K1500    -0.1918
     47  N31        6.5530  -11.0000  -35.1610 N.2   1500  T4K1500    -0.2455
     48  C41        7.8510  -10.9430  -34.7640 C.1   1500  T4K1500     0.2134
     49  O41        8.2310  -11.5990  -33.7990 O.2   1500  T4K1500    -0.2088
     50  O1G       13.5770   -7.0710  -40.9470 O.3   1500  T4K1500    -0.2857
@<TRIPOS>BOND
     1     3     2    1
     2     2     1   ar
     3     2     4   ar
     4     5     4    1
     5     1     9   ar
     6     4     6   ar
     7    24    23    1
     8     9     8   ar
     9     6     8   ar
    10     6     7    1
    11     8    10    1
    12    22     7    2
    13    22    21    1
    14    23    21    1
    15    23    25    1
    16    21    19    1
    17    25    16    1
    18    10    11    1
    19    28    26    2
    20    11    12    1
    21    50    16    1
    22    50    26    1
    23    16    17    1
    24    19    20    1
    25    19    17    1
    26    26    27    1
    27    26    29    1
    28    17    18    1
    29    38    37    1
    30    35    34    1
    31    35    37    1
    32    35    36    1
    33    34    33    1
    34    12    13    2
    35    12    14    1
    36    12    15    1
    37    37    39    1
    38    36    40    1
    39    29    30    1
    40    32    30    2
    41    33    30    1
    42    30    31    1
    43    40    39    1
    44    40    41    1
    45    41    42    1
    46    41    45   am
    47    46    45    2
    48    42    43    2
    49    45    47    2
    50    43    44    1
    51    43    48    1
    52    47    48    2
    53    48    49    2
