@<TRIPOS>MOLECULE
2pob_GW4_A_1.pdb
 43 47 0 0 0
SMALL
GASTEIGER

@<TRIPOS>ATOM
      1  O         64.8020   33.7220    8.5050 O.2   478  GW4478     -0.4486
      2  C         63.5570   34.2710    8.5500 C.2   478  GW4478      0.2771
      3  N         62.6060   33.4690    8.9810 N.2   478  GW4478     -0.3728
      4  C1        63.2810   32.3070    9.2450 C.2   478  GW4478      0.1336
      5  C2        64.6150   32.4570    8.9590 C.3   478  GW4478      0.2161
      6  C3        65.8030   31.5800    9.0360 C.3   478  GW4478      0.0549
      7  C4        63.4750   35.6320    8.0980 C.ar  478  GW4478      0.0660
      8  C5        62.2480   36.2370    7.9450 C.ar  478  GW4478      0.0058
      9  C6        62.1600   37.5320    7.4900 C.ar  478  GW4478      0.0002
     10  C7        63.3110   38.2180    7.1750 C.ar  478  GW4478      0.0000
     11  C8        64.5400   37.6170    7.3230 C.ar  478  GW4478      0.0002
     12  C9        64.6200   36.3250    7.7870 C.ar  478  GW4478      0.0058
     13  N1        66.5200   31.7730   16.8500 N.pl3 478  GW4478     -0.2371
     14  C10       65.5190   31.0280   17.6130 C.3   478  GW4478      0.1184
     15  C11       66.0550   30.7110   18.9980 C.3   478  GW4478      0.1369
     16  N2        65.0120   30.2220   19.8610 N.am  478  GW4478     -0.2036
     17  C12       65.2290   29.7230   16.9180 C.3   478  GW4478      0.0497
     18  C13       64.8980   29.9870   15.4980 C.ar  478  GW4478     -0.0202
     19  C14       65.8870   29.9460   14.5410 C.ar  478  GW4478     -0.0011
     20  C15       63.5990   30.2680   15.1420 C.ar  478  GW4478     -0.0011
     21  C16       65.5820   30.1880   13.2200 C.ar  478  GW4478      0.0366
     22  C17       63.2850   30.5090   13.8250 C.ar  478  GW4478      0.0366
     23  C18       64.2820   30.4700   12.8680 C.ar  478  GW4478      0.1385
     24  O1        64.0680   30.7030   11.5260 O.3   478  GW4478     -0.4750
     25  C19       66.6220   33.1600   17.1570 C.ar  478  GW4478      0.0684
     26  C20       67.5460   33.9850   16.5370 C.ar  478  GW4478      0.0538
     27  C21       67.6330   35.3310   16.8320 C.ar  478  GW4478      0.0045
     28  C22       66.8070   35.9010   17.7610 C.ar  478  GW4478      0.0002
     29  C23       65.8860   35.1080   18.3870 C.ar  478  GW4478      0.0013
     30  C24       65.7980   33.7690   18.0840 C.ar  478  GW4478      0.0162
     31  C25       69.5900   34.2790   15.0740 C.ar  478  GW4478      0.0390
     32  C26       69.8340   34.3550   13.7200 C.ar  478  GW4478      0.0032
     33  C27       70.8780   35.1240   13.2590 C.ar  478  GW4478      0.0001
     34  C28       71.6630   35.8140   14.1590 C.ar  478  GW4478      0.0000
     35  C29       71.4140   35.7350   15.5120 C.ar  478  GW4478      0.0001
     36  C30       70.3760   34.9640   15.9790 C.ar  478  GW4478      0.0032
     37  C31       68.4710   33.4470   15.5320 C.2   478  GW4478      0.1968
     38  O2        68.3240   32.3230   15.0720 O.2   478  GW4478     -0.2865
     39  C32       62.7240   31.0940   11.2690 C.3   478  GW4478      0.2126
     40  C33       62.5730   31.1410    9.7660 C.3   478  GW4478      0.1055
     41  C34       64.2870   31.0760   20.6630 C.2   478  GW4478      0.2419
     42  C35       63.3250   30.3410   21.5350 C.3   478  GW4478      0.0964
     43  O3        64.3780   32.2950   20.7010 O.2   478  GW4478     -0.2733
@<TRIPOS>BOND
     1    10    11   ar
     2    10     9   ar
     3    11    12   ar
     4     9     8   ar
     5    12     7   ar
     6     8     7   ar
     7     7     2    1
     8     1     2    1
     9     1     5    1
    10     2     3    2
    11     5     6    1
    12     5     4    1
    13     3     4    2
    14     4    40    1
    15    40    39    1
    16    39    24    1
    17    24    23    1
    18    23    21   ar
    19    23    22   ar
    20    21    19   ar
    21    33    32   ar
    22    33    34   ar
    23    32    31   ar
    24    22    20   ar
    25    34    35   ar
    26    19    18   ar
    27    38    37    2
    28    31    37    1
    29    31    36   ar
    30    20    18   ar
    31    18    17    1
    32    35    36   ar
    33    37    26    1
    34    26    27   ar
    35    26    25   ar
    36    27    28   ar
    37    13    25    1
    38    13    14    1
    39    17    14    1
    40    25    30   ar
    41    14    15    1
    42    28    29   ar
    43    30    29   ar
    44    15    16    1
    45    16    41   am
    46    41    43    2
    47    41    42    1
