@<TRIPOS>MOLECULE
2poc_UD1_A_1.pdb
 39 41 0 0 0
SMALL
GASTEIGER

@<TRIPOS>ATOM
      1  C1'       71.0220   -2.9440   50.1630 C.3   5002  UD15002     0.2633
      2  C2'       70.7680   -2.5790   48.7120 C.3   5002  UD15002     0.1845
      3  C3'       71.9660   -2.9470   47.8400 C.3   5002  UD15002     0.2094
      4  C4'       73.2750   -2.3890   48.3940 C.3   5002  UD15002     0.2136
      5  C5'       73.4210   -2.6400   49.9010 C.3   5002  UD15002     0.1834
      6  C6'       74.6310   -1.8890   50.4620 C.3   5002  UD15002     0.2142
      7  C7'       68.7180   -2.5970   47.4510 C.2   5002  UD15002     0.2420
      8  C8'       67.5720   -3.4030   46.9180 C.3   5002  UD15002     0.0964
      9  N2'       69.5810   -3.2510   48.2200 N.am  5002  UD15002    -0.1992
     10  O1'       71.1280   -4.3740   50.2560 O.3   5002  UD15002    -0.2864
     11  O3'       71.7250   -2.4250   46.5230 O.3   5002  UD15002    -0.2183
     12  O4'       74.3750   -3.0230   47.7210 O.3   5002  UD15002    -0.2176
     13  O5'       72.2230   -2.2840   50.6120 O.3   5002  UD15002    -0.3260
     14  O6'       74.6420   -1.9500   51.8980 O.3   5002  UD15002    -0.2176
     15  O7'       68.8490   -1.3980   47.1840 O.2   5002  UD15002    -0.2733
     16  N1        62.8470   -5.9030   51.4310 N.am  5002  UD15002    -0.1766
     17  C2        61.4920   -6.1590   51.5530 C.1   5002  UD15002     0.2845
     18  N3        60.9680   -7.3300   51.1050 N.2   5002  UD15002    -0.2452
     19  C4        61.7560   -8.2350   50.4760 C.1   5002  UD15002     0.2182
     20  C5        63.1100   -7.9920   50.3120 C.2   5002  UD15002     0.1242
     21  C6        63.6480   -6.7910   50.8000 C.2   5002  UD15002     0.0929
     22  O2        60.7870   -5.3010   52.1240 O.2   5002  UD15002    -0.1918
     23  O4        61.2450   -9.2820   50.0150 O.2   5002  UD15002    -0.2085
     24  C1B       63.3530   -4.5860   51.8840 C.3   5002  UD15002     0.2401
     25  C2B       64.3760   -4.5960   52.9790 C.3   5002  UD15002     0.2319
     26  O2'       63.7450   -4.4360   54.2500 O.3   5002  UD15002    -0.2157
     27  C3B       65.2360   -3.3780   52.6430 C.3   5002  UD15002     0.2158
     28  C4B       65.1670   -3.2990   51.1290 C.3   5002  UD15002     0.1799
     29  O4B       64.0420   -4.0800   50.7040 O.3   5002  UD15002    -0.3320
     30  O3B       64.6000   -2.2380   53.2370 O.3   5002  UD15002    -0.2175
     31  C5B       66.4310   -3.8470   50.4680 C.3   5002  UD15002     0.1813
     32  O5B       66.6920   -5.2050   50.9120 O.3   5002  UD15002    -0.3112
     33  PA        68.0820   -5.9420   50.6300 P.3   5002  UD15002     0.2189
     34  O1A       68.3380   -5.8130   49.1460 O.2   5002  UD15002    -0.5170
     35  O2A       68.0530   -7.3460   51.2400 O.3   5002  UD15002    -0.4371
     36  O3A       69.0320   -4.9960   51.5290 O.3   5002  UD15002    -0.2703
     37  PB        70.6210   -5.0470   51.6130 P.3   5002  UD15002     0.2208
     38  O1B       71.1090   -6.4660   51.6510 O.2   5002  UD15002    -0.5170
     39  O2B       70.9390   -4.1910   52.8070 O.3   5002  UD15002    -0.4371
@<TRIPOS>BOND
     1    11     3    1
     2     8     7    1
     3    15     7    2
     4     7     9   am
     5    12     4    1
     6     3     4    1
     7     3     2    1
     8     9     2    1
     9     4     5    1
    10     2     1    1
    11    34    33    2
    12     5     6    1
    13     5    13    1
    14    23    19    2
    15     1    10    1
    16     1    13    1
    17    10    37    1
    18    20    19    1
    19    20    21    2
    20     6    14    1
    21    31    32    1
    22    31    28    1
    23    19    18    2
    24    33    32    1
    25    33    35    1
    26    33    36    1
    27    29    28    1
    28    29    24    1
    29    21    16    1
    30    18    17    2
    31    28    27    1
    32    16    17   am
    33    16    24    1
    34    36    37    1
    35    17    22    2
    36    37    38    2
    37    37    39    1
    38    24    25    1
    39    27    25    1
    40    27    30    1
    41    25    26    1
