@<TRIPOS>MOLECULE
2poc_BG6_A_1.pdb
 16 16 0 0 0
SMALL
GASTEIGER

@<TRIPOS>ATOM
      1  C1        55.6220  -22.3430   39.8430 C.3   713  BG6713      0.3024
      2  C2        56.9350  -22.8820   39.2610 C.3   713  BG6713      0.2434
      3  O1        54.9500  -23.5390   40.2250 O.3   713  BG6713     -0.1869
      4  O5        55.8370  -21.5000   41.0290 O.3   713  BG6713     -0.3237
      5  C3        57.7600  -23.5310   40.3830 C.3   713  BG6713      0.2199
      6  O2        56.6540  -23.8650   38.2200 O.3   713  BG6713     -0.2148
      7  C4        58.0060  -22.5170   41.5140 C.3   713  BG6713      0.2143
      8  O3        59.0500  -23.9260   39.8790 O.3   713  BG6713     -0.2174
      9  C5        56.6590  -22.0550   42.0830 C.3   713  BG6713      0.1808
     10  O4        58.7960  -23.1550   42.5290 O.3   713  BG6713     -0.2176
     11  C6        56.9090  -20.8880   43.0390 C.3   713  BG6713      0.1859
     12  O6        57.4770  -19.7570   42.3300 O.3   713  BG6713     -0.2675
     13  P         58.1890  -18.6130   43.1970 P.3   713  BG6713      0.5327
     14  O1P       59.3680  -19.1260   44.0060 O.3   713  BG6713     -0.1145
     15  O2P       58.5990  -17.4780   42.1130 O.2   713  BG6713     -0.2224
     16  O3P       57.0290  -17.9380   44.0140 O.3   713  BG6713     -0.1145
@<TRIPOS>BOND
     1     6     2    1
     2     2     1    1
     3     2     5    1
     4     1     3    1
     5     1     4    1
     6     8     5    1
     7     5     7    1
     8     4     9    1
     9     7     9    1
    10     7    10    1
    11     9    11    1
    12    15    13    2
    13    12    11    1
    14    12    13    1
    15    13    14    1
    16    13    16    1
