@<TRIPOS>MOLECULE
2pog_WST_A_1.pdb
 21 24 0 0 0
SMALL
GASTEIGER

@<TRIPOS>ATOM
      1  C1        14.5050   51.0830   58.9950 C.ar  201  WST201      0.0504
      2  C2        15.8900   50.8660   58.6040 C.ar  201  WST201      0.1946
      3  O3        16.9020   51.3380   59.2370 O.3   201  WST201     -0.2868
      4  C4        16.0760   50.0670   57.4220 C.ar  201  WST201      0.0419
      5  C5        15.0010   49.5080   56.6680 C.ar  201  WST201      0.0064
      6  C6        13.6700   49.7320   57.0740 C.ar  201  WST201      0.0368
      7  C7        13.4230   50.5100   58.2250 C.ar  201  WST201      0.1374
      8  O8        12.0970   50.6770   58.5540 O.3   201  WST201     -0.4787
      9  C9        11.7640   51.9600   59.1550 C.3   201  WST201      0.1740
     10  C11       12.6450   52.2650   60.4200 C.3   201  WST201      0.0450
     11  C13       14.1540   51.9210   60.2370 C.3   201  WST201      0.0320
     12  C15       14.5790   51.2410   61.5600 C.3   201  WST201      0.0047
     13  C16       13.4980   51.5960   62.5590 C.3   201  WST201      0.0005
     14  C17       12.2370   51.5520   61.7220 C.3   201  WST201      0.0039
     15  C18       10.2580   52.0450   59.4310 C.3   201  WST201      0.0841
     16  C19        9.4580   50.8660   59.3060 C.2   201  WST201     -0.0152
     17  C20        8.0670   50.9000   59.5580 C.2   201  WST201      0.0379
     18  C21        7.3750   52.0940   59.9470 C.2   201  WST201      0.1951
     19  O22        6.1260   52.1100   60.1730 O.2   201  WST201     -0.2866
     20  C23        8.2010   53.2630   60.0640 C.2   201  WST201      0.0379
     21  C24        9.6070   53.2550   59.8170 C.2   201  WST201     -0.0152
@<TRIPOS>BOND
     1     5     6   ar
     2     5     4   ar
     3     6     7   ar
     4     4     2   ar
     5     7     8    1
     6     7     1   ar
     7     8     9    1
     8     2     1   ar
     9     2     3    1
    10     1    11    1
    11     9    15    1
    12     9    10    1
    13    16    15    1
    14    16    17    2
    15    15    21    1
    16    17    18    1
    17    21    20    2
    18    18    20    1
    19    18    19    2
    20    11    10    1
    21    11    12    1
    22    10    14    1
    23    12    13    1
    24    14    13    1
