@<TRIPOS>MOLECULE
2pok_BGC_A_1.pdb
 12 12 0 0 0
SMALL
GASTEIGER

@<TRIPOS>ATOM
      1  C2        29.3710   79.7480   24.9350 C.3   458  BGC458      0.2434
      2  C3        28.5220   78.4970   24.9970 C.3   458  BGC458      0.2199
      3  C4        27.3510   78.7160   24.0660 C.3   458  BGC458      0.2144
      4  C5        27.8840   78.9370   22.6600 C.3   458  BGC458      0.1836
      5  C6        26.7610   79.1850   21.6670 C.3   458  BGC458      0.2142
      6  C1        29.8290   79.9660   23.5030 C.3   458  BGC458      0.3024
      7  O1        30.5020   81.1900   23.4460 O.3   458  BGC458     -0.1869
      8  O2        30.4910   79.5880   25.7670 O.3   458  BGC458     -0.2148
      9  O3        28.0760   78.2540   26.3130 O.3   458  BGC458     -0.2174
     10  O4        26.5390   77.5760   24.0970 O.3   458  BGC458     -0.2176
     11  O5        28.7230   80.0670   22.6440 O.3   458  BGC458     -0.3236
     12  O6        25.8300   80.0940   22.2200 O.3   458  BGC458     -0.2176
@<TRIPOS>BOND
     1     5    12    1
     2     5     4    1
     3    11     4    1
     4    11     6    1
     5     4     3    1
     6     7     6    1
     7     6     1    1
     8     3    10    1
     9     3     2    1
    10     1     2    1
    11     1     8    1
    12     2     9    1
