@<TRIPOS>MOLECULE
2poq_ISD_X_1.pdb
 12 12 0 0 0
SMALL
GASTEIGER

@<TRIPOS>ATOM
      1  O6       -15.4620  -47.8030    2.6370 O.2   500  ISD500     -0.2472
      2  C5       -15.8510  -46.8260    3.2280 C.2   500  ISD500      0.3506
      3  C4       -15.7920  -46.7720    4.4890 C.3   500  ISD500      0.2833
      4  O8       -16.2030  -47.8320    5.2000 O.3   500  ISD500     -0.2081
      5  C3       -15.3490  -45.5140    4.7700 C.3   500  ISD500      0.2354
      6  O7       -14.4850  -45.1570    5.7440 O.3   500  ISD500     -0.2158
      7  O1       -16.2980  -45.5250    2.7460 O.3   500  ISD500     -0.4449
      8  C2       -15.8980  -44.5310    3.7340 C.3   500  ISD500      0.2348
      9  C9       -14.9920  -43.3640    3.1580 C.3   500  ISD500      0.2271
     10  O11      -13.8600  -42.9860    3.9670 O.3   500  ISD500     -0.2163
     11  C13      -15.7240  -42.0410    2.8600 C.3   500  ISD500      0.2186
     12  O14      -16.0470  -41.8130    1.4730 O.3   500  ISD500     -0.2174
@<TRIPOS>BOND
     1    12    11    1
     2     1     2    2
     3     7     2    1
     4     7     8    1
     5    11     9    1
     6     9     8    1
     7     9    10    1
     8     2     3    1
     9     8     5    1
    10     3     5    1
    11     3     4    1
    12     5     6    1
