@<TRIPOS>MOLECULE
2por_C8E_A_1.pdb
 21 20 0 0 0
SMALL
GASTEIGER

@<TRIPOS>ATOM
      1  C1         8.2130  -29.7090   34.1110 C.3   545  C8E545      0.0000
      2  C2         7.5520  -28.4110   34.5040 C.3   545  C8E545      0.0000
      3  C3         6.0870  -28.6600   34.3940 C.3   545  C8E545      0.0000
      4  C4         5.4850  -27.3210   34.7090 C.3   545  C8E545      0.0000
      5  C5         4.1520  -27.1050   34.0030 C.3   545  C8E545      0.0001
      6  C6         3.0970  -28.1720   34.2770 C.3   545  C8E545      0.0026
      7  C7         1.6800  -27.7380   33.8570 C.3   545  C8E545      0.0321
      8  C8         0.8060  -28.9160   34.1940 C.3   545  C8E545      0.1423
      9  O9        -0.6000  -28.8060   34.2670 O.3   545  C8E545     -0.3511
     10  C10       -1.1080  -29.3430   35.4840 C.3   545  C8E545      0.1741
     11  C11       -2.5840  -29.5390   35.4110 C.3   545  C8E545      0.1742
     12  O12       -3.3640  -29.4560   36.5930 O.3   545  C8E545     -0.3484
     13  C13       -3.8880  -28.1420   36.8210 C.3   545  C8E545      0.1742
     14  C14       -3.5460  -27.4750   38.1600 C.3   545  C8E545      0.1742
     15  O15       -3.8400  -28.1810   39.3850 O.3   545  C8E545     -0.3484
     16  C16       -4.7140  -27.4810   40.2990 C.3   545  C8E545      0.1742
     17  C17       -6.1410  -28.0450   40.5200 C.3   545  C8E545      0.1742
     18  O18       -6.9940  -27.7910   41.6710 O.3   545  C8E545     -0.3483
     19  C19       -6.7100  -28.6720   42.7980 C.3   545  C8E545      0.1777
     20  C20       -7.8350  -29.5970   43.3150 C.3   545  C8E545      0.2140
     21  O21       -8.7150  -29.9390   42.2350 O.3   545  C8E545     -0.2176
@<TRIPOS>BOND
     1     7     8    1
     2     7     6    1
     3     5     6    1
     4     5     4    1
     5     1     2    1
     6     8     9    1
     7     9    10    1
     8     3     2    1
     9     3     4    1
    10    11    10    1
    11    11    12    1
    12    12    13    1
    13    13    14    1
    14    14    15    1
    15    15    16    1
    16    16    17    1
    17    17    18    1
    18    18    19    1
    19    21    20    1
    20    19    20    1
