@<TRIPOS>MOLECULE
2pot_GUN_A_1.pdb
 11 12 0 0 0
SMALL
GASTEIGER

@<TRIPOS>ATOM
      1  N9        15.9430   16.9550   19.9740 N.2   600  GUN600     -0.1802
      2  C8        17.1240   17.3120   19.5480 C.3   600  GUN600      0.2633
      3  N7        17.8630   17.6390   20.5190 N.2   600  GUN600     -0.2212
      4  C5        17.1200   17.4940   21.7410 C.2   600  GUN600      0.2482
      5  C6        17.2890   17.6720   23.1810 C.1   600  GUN600      0.2442
      6  O6        18.3640   18.0600   23.5990 O.2   600  GUN600     -0.2063
      7  N1        16.2670   17.3990   23.9610 N.2   600  GUN600     -0.2474
      8  C2        15.1050   16.9770   23.4910 C.1   600  GUN600      0.2608
      9  N2        14.1340   16.7270   24.3320 N.pl3 600  GUN600     -0.0220
     10  N3        14.9120   16.8080   22.2380 N.2   600  GUN600     -0.2682
     11  C4        15.9500   17.0700   21.2790 C.1   600  GUN600      0.1289
@<TRIPOS>BOND
     1     2     1    1
     2     2     3    1
     3     1    11    2
     4     3     4    2
     5    11     4    1
     6    11    10    2
     7     4     5    1
     8    10     8    2
     9     5     6    2
    10     5     7    2
    11     8     7    2
    12     8     9    1
