@<TRIPOS>MOLECULE
2pou_I7A_A_1.pdb
 16 16 0 0 0
SMALL
GASTEIGER

@<TRIPOS>ATOM
      1  S1        -3.8520    2.1690   11.9070 S.O2  1000  I7A1000     0.0936
      2  O1        -4.5040    2.9300   10.8880 O.2   1000  I7A1000    -0.1503
      3  O2        -3.8880    0.7430   11.8550 O.2   1000  I7A1000    -0.1503
      4  N1        -2.3410    2.6200   11.9690 N.3   1000  I7A1000     0.0392
      5  S2        -5.9440    0.7900   16.7620 S.O2  1000  I7A1000     0.0944
      6  O3        -5.2420    1.1140   17.9710 O.2   1000  I7A1000    -0.1503
      7  O4        -7.3690    0.7690   16.7720 O.2   1000  I7A1000    -0.1503
      8  N2        -5.4090   -0.5950   16.2520 N.3   1000  I7A1000     0.0392
      9  C1        -4.5900    2.6530   13.4350 C.ar  1000  I7A1000     0.1273
     10  C2        -4.9290    1.6710   14.3820 C.ar  1000  I7A1000     0.0409
     11  C3        -5.5260    2.0580   15.5950 C.ar  1000  I7A1000     0.1377
     12  C4        -5.7820    3.4210   15.8600 C.ar  1000  I7A1000     0.0869
     13  C5        -5.4310    4.3870   14.9070 C.ar  1000  I7A1000     0.0708
     14  C6        -4.8370    4.0240   13.6910 C.ar  1000  I7A1000     0.0323
     15 CL1        -6.5140    3.9040   17.3140 Cl    1000  I7A1000    -0.0800
     16 CL2        -5.7340    6.0460   15.2320 Cl    1000  I7A1000    -0.0813
@<TRIPOS>BOND
     1     2     1    2
     2     3     1    2
     3     1     4    1
     4     1     9    1
     5     9    14   ar
     6     9    10   ar
     7    14    13   ar
     8    10    11   ar
     9    13    16    1
    10    13    12   ar
    11    11    12   ar
    12    11     5    1
    13    12    15    1
    14     8     5    1
    15     5     7    2
    16     5     6    2
