@<TRIPOS>MOLECULE
2pov_I7B_A_1.pdb
 16 16 0 0 0
SMALL
GASTEIGER

@<TRIPOS>ATOM
      1  C2        -5.0010    1.8880   14.4280 C.ar  1000  I7B1000     0.0423
      2  C1        -4.6880    2.8680   13.4690 C.ar  1000  I7B1000     0.1431
      3  C6        -4.9860    4.2330   13.6890 C.ar  1000  I7B1000     0.1086
      4  C5        -5.6030    4.5960   14.8950 C.ar  1000  I7B1000     0.0322
      5  C4        -5.9280    3.6290   15.8700 C.ar  1000  I7B1000     0.0777
      6  C3        -5.6210    2.2630   15.6310 C.ar  1000  I7B1000     0.1369
      7  S1        -3.9260    2.3540   11.9650 S.O2  1000  I7B1000     0.0948
      8  N1        -2.4210    2.8280   11.9870 N.3   1000  I7B1000     0.0393
      9  O2        -3.9220    0.9300   11.9350 O.2   1000  I7B1000    -0.1503
     10  O1        -4.6000    3.0620   10.9260 O.2   1000  I7B1000    -0.1503
     11  S2        -5.9990    0.9650   16.7970 S.O2  1000  I7B1000     0.0944
     12  N2        -5.4320   -0.3990   16.2560 N.3   1000  I7B1000     0.0392
     13  O3        -5.3270    1.2620   18.0240 O.2   1000  I7B1000    -0.1503
     14  O4        -7.4270    0.8620   16.8030 O.2   1000  I7B1000    -0.1503
     15  N3        -4.6950    5.2290   12.7640 N.pl3 1000  I7B1000    -0.1266
     16 CL1        -6.6660    4.1030   17.3040 Cl    1000  I7B1000    -0.0808
@<TRIPOS>BOND
     1    10     7    2
     2     9     7    2
     3     7     8    1
     4     7     2    1
     5    15     3    1
     6     2     3   ar
     7     2     1   ar
     8     3     4   ar
     9     1     6   ar
    10     4     5   ar
    11     6     5   ar
    12     6    11    1
    13     5    16    1
    14    12    11    1
    15    11    14    2
    16    11    13    2
