@<TRIPOS>MOLECULE
2pow_I7C_A_1.pdb
 19 19 0 0 0
SMALL
GASTEIGER

@<TRIPOS>ATOM
      1  C2        -4.9980    1.9280   14.6650 C.ar  1000  I7C1000     0.0413
      2  C1        -5.5620    2.1870   15.9170 C.ar  1000  I7C1000     0.1430
      3  C6        -5.7840    3.5120   16.3610 C.ar  1000  I7C1000     0.1077
      4  C5        -5.4180    4.5720   15.5250 C.ar  1000  I7C1000     0.0246
      5  C4        -4.8350    4.3490   14.2420 C.ar  1000  I7C1000     0.0915
      6  C3        -4.6310    2.9820   13.8130 C.ar  1000  I7C1000     0.1303
      7  S1        -6.0070    0.8330   16.9470 S.O2  1000  I7C1000     0.0948
      8  N1        -5.3870   -0.4840   16.3400 N.3   1000  I7C1000     0.0393
      9  O1        -5.3930    1.0370   18.2240 O.2   1000  I7C1000    -0.1503
     10  O2        -7.4260    0.7510   16.8590 O.2   1000  I7C1000    -0.1503
     11  S2        -3.9350    2.4800   12.2400 S.O2  1000  I7C1000     0.0935
     12  N2        -2.3860    2.7470   12.2340 N.3   1000  I7C1000     0.0392
     13  O3        -4.1530    1.0690   12.1250 O.2   1000  I7C1000    -0.1503
     14  O4        -4.5250    3.3210   11.2450 O.2   1000  I7C1000    -0.1503
     15  N3        -6.3440    3.8070   17.5840 N.pl3 1000  I7C1000    -0.1267
     16  C7        -4.4650    5.5270   13.4030 C.3   1000  I7C1000     0.4199
     17  F1        -5.3940    5.8570   12.4910 F     1000  I7C1000    -0.1658
     18  F2        -4.2780    6.6400   14.1320 F     1000  I7C1000    -0.1658
     19  F3        -3.3140    5.3730   12.7210 F     1000  I7C1000    -0.1658
@<TRIPOS>BOND
     1    14    11    2
     2    13    11    2
     3    12    11    1
     4    11     6    1
     5    17    16    1
     6    19    16    1
     7    16    18    1
     8    16     5    1
     9     6     5   ar
    10     6     1   ar
    11     5     4   ar
    12     1     2   ar
    13     4     3   ar
    14     2     3   ar
    15     2     7    1
    16     8     7    1
    17     3    15    1
    18    10     7    2
    19     7     9    2
