@<TRIPOS>MOLECULE
2pp1_LLH_A_1.pdb
 13 12 0 0 0
SMALL
GASTEIGER

@<TRIPOS>ATOM
      1  O5A       20.3820  148.1710   24.0110 O.co2 801  LLH801     -0.2427
      2  C5        19.2920  148.3750   23.4240 C.2   801  LLH801      0.3973
      3  O5B       18.3860  149.1540   23.8290 O.co2 801  LLH801     -0.2427
      4  C4        19.0260  147.6280   22.1100 C.3   801  LLH801      0.2868
      5  O4        19.9710  146.5760   21.9240 O.3   801  LLH801     -0.2080
      6  C3        19.0690  148.6240   20.9470 C.3   801  LLH801      0.2296
      7  O3        20.3320  149.3170   20.9380 O.3   801  LLH801     -0.2166
      8  C2        18.8750  147.9450   19.5680 C.3   801  LLH801      0.2297
      9  O2        17.5200  147.4820   19.5640 O.3   801  LLH801     -0.2134
     10  C1        19.1140  148.8570   18.3460 C.2   801  LLH801      0.1201
     11  O1        18.7720  150.0310   18.3360 O.2   801  LLH801     -0.5373
     12  N         19.7450  148.2840   17.2980 N.am  801  LLH801     -0.2003
     13  ON        19.6820  148.7950   16.0090 O.3   801  LLH801     -0.4026
@<TRIPOS>BOND
     1    13    12    1
     2    12    10   am
     3    11    10    2
     4    10     8    1
     5     9     8    1
     6     8     6    1
     7     7     6    1
     8     6     4    1
     9     5     4    1
    10     4     2    1
    11     2     3   ar
    12     2     1   ar
