@<TRIPOS>MOLECULE
2pp3_LGT_A_1.pdb
 14 13 0 0 0
SMALL
GASTEIGER

@<TRIPOS>ATOM
      1  O1A      -16.9120   26.7040   41.7380 O.co2 501  LGT501     -0.2427
      2  C1       -16.9700   25.4750   41.9470 C.2   501  LGT501      0.3973
      3  O1B      -15.9780   24.7580   42.1520 O.co2 501  LGT501     -0.2427
      4  C2       -18.3690   24.7840   41.9330 C.3   501  LGT501      0.2865
      5  O2       -18.3460   23.5270   42.6340 O.3   501  LGT501     -0.2080
      6  C3       -19.4670   25.6420   42.5450 C.3   501  LGT501      0.2266
      7  O3       -19.2800   25.6700   43.9510 O.3   501  LGT501     -0.2169
      8  C4       -20.8950   25.1120   42.2580 C.3   501  LGT501      0.2266
      9  O4       -21.1080   23.8710   42.9660 O.3   501  LGT501     -0.2169
     10  C5       -22.0190   26.0790   42.6530 C.3   501  LGT501      0.2865
     11  O5       -21.8390   27.3030   41.9200 O.3   501  LGT501     -0.2080
     12  C6       -23.4050   25.4910   42.3320 C.2   501  LGT501      0.3973
     13  O6A      -23.9680   24.8400   43.2580 O.co2 501  LGT501     -0.2427
     14  O6B      -23.8710   25.6700   41.1850 O.co2 501  LGT501     -0.2427
@<TRIPOS>BOND
     1    14    12   ar
     2     1     2   ar
     3    11    10    1
     4     4     2    1
     5     4     6    1
     6     4     5    1
     7     2     3   ar
     8     8     6    1
     9     8    10    1
    10     8     9    1
    11    12    10    1
    12    12    13   ar
    13     6     7    1
