@<TRIPOS>MOLECULE
2ppb_APC_D_1.pdb
 31 33 0 0 0
SMALL
GASTEIGER

@<TRIPOS>ATOM
      1  PG        54.9730   73.8590  -10.1850 P.3   5999  APC5999     0.5389
      2  O1G       55.4920   72.5310   -9.6290 O.3   5999  APC5999    -0.1143
      3  O2G       54.5270   73.6750  -11.6170 O.2   5999  APC5999    -0.2220
      4  O3G       56.0910   74.9050  -10.1160 O.3   5999  APC5999    -0.1143
      5  PB        53.6300   73.8430   -7.7340 P.3   5999  APC5999     0.3895
      6  O1B       52.5190   72.8500   -7.6160 O.2   5999  APC5999    -0.2544
      7  O2B       55.0290   73.4600   -7.3720 O.3   5999  APC5999    -0.1388
      8  O3B       53.7160   74.3450   -9.2800 O.3   5999  APC5999    -0.2026
      9  PA        53.6480   76.6850   -7.3100 P.3   5999  APC5999     0.3820
     10  O1A       55.0750   76.6990   -7.7280 O.3   5999  APC5999    -0.1392
     11  O2A       52.5840   77.0930   -8.2770 O.2   5999  APC5999    -0.2548
     12  C3A       53.2590   75.1630   -6.8490 C.3   5999  APC5999     0.2357
     13  O5'       53.4330   77.4840   -5.9390 O.3   5999  APC5999    -0.2896
     14  C5'       54.2230   78.6160   -5.5390 C.3   5999  APC5999     0.1836
     15  C4'       55.2200   78.2160   -4.4660 C.3   5999  APC5999     0.1822
     16  O4'       55.5770   79.4000   -3.7010 O.3   5999  APC5999    -0.3135
     17  C3'       54.7860   77.1920   -3.4160 C.3   5999  APC5999     0.2184
     18  O3'       55.6340   76.0820   -3.2880 O.3   5999  APC5999    -0.2174
     19  C2'       54.5470   77.9480   -2.1110 C.3   5999  APC5999     0.2570
     20  O2'       55.4250   77.5530   -1.0800 O.3   5999  APC5999    -0.2130
     21  C1'       54.8990   79.3870   -2.4520 C.3   5999  APC5999     0.3186
     22  N9        53.6260   80.1220   -2.4740 N.pl3 5999  APC5999    -0.1439
     23  C8        52.8520   80.6930   -3.4480 C.3   5999  APC5999     0.3377
     24  N7        51.7080   81.1670   -3.0020 N.2   5999  APC5999    -0.2095
     25  C5        51.7540   80.9090   -1.6390 C.2   5999  APC5999     0.2526
     26  C6        50.8600   81.1510   -0.5730 C.2   5999  APC5999     0.4393
     27  N6        49.6760   81.7290   -0.6850 N.pl3 5999  APC5999     0.2180
     28  N1        51.2350   80.7610    0.6490 N.2   5999  APC5999     0.0021
     29  C2        52.4020   80.1760    0.7950 C.3   5999  APC5999     0.5254
     30  N3        53.3200   79.8950   -0.0970 N.2   5999  APC5999    -0.0055
     31  C4        52.9320   80.2910   -1.3080 C.2   5999  APC5999     0.3518
@<TRIPOS>BOND
     1     3     1    2
     2     1     4    1
     3     1     2    1
     4     1     8    1
     5     8     5    1
     6    11     9    2
     7     5     6    2
     8     5     7    1
     9     5    12    1
    10    10     9    1
    11     9    12    1
    12     9    13    1
    13    13    14    1
    14    14    15    1
    15    15    16    1
    16    15    17    1
    17    16    21    1
    18    23    24    1
    19    23    22    1
    20    17    18    1
    21    17    19    1
    22    24    25    2
    23    22    21    1
    24    22    31    1
    25    21    19    1
    26    19    20    1
    27    25    31    1
    28    25    26    1
    29    31    30    2
    30    27    26    1
    31    26    28    2
    32    30    29    1
    33    28    29    1
