@<TRIPOS>MOLECULE
2ppb_STD_D_1.pdb
 43 47 0 0 0
SMALL
GASTEIGER

@<TRIPOS>ATOM
      1  C1        35.7300   75.0680    4.6660 C.2   7001  STD7001     0.1287
      2  C2        35.4010   74.2760    3.5640 C.2   7001  STD7001     0.2569
      3  N1        34.8060   73.0580    3.7650 N.am  7001  STD7001    -0.2480
      4  C3        35.6790   74.1620    5.7220 C.2   7001  STD7001     0.1990
      5  C4        33.9320   72.3330    2.7720 C.3   7001  STD7001     0.1947
      6  O1        35.8970   74.3560    6.9060 O.2   7001  STD7001    -0.2893
      7  O2        35.6480   74.6320    2.4150 O.2   7001  STD7001    -0.2696
      8  C5        36.0070   76.4330    4.8310 C.2   7001  STD7001     0.2029
      9  C6        36.0460   77.3360    3.7880 C.2   7001  STD7001     0.0419
     10  C7        36.2830   78.6700    3.8910 C.2   7001  STD7001    -0.0013
     11  C8        36.3560   79.5980    2.8830 C.2   7001  STD7001    -0.0259
     12  C9        37.2610   80.5390    3.0940 C.2   7001  STD7001    -0.0283
     13  C10       37.6840   81.7030    2.2750 C.3   7001  STD7001     0.0491
     14  C11       35.4640   79.5480    1.6110 C.3   7001  STD7001     0.0307
     15  O3        36.2770   76.8770    6.1170 O.2   7001  STD7001    -0.2863
     16  O4        33.2180   71.2560    3.4550 O.3   7001  STD7001    -0.3375
     17  C12       32.8650   73.3190    2.0280 C.3   7001  STD7001     0.0537
     18  C13       39.2180   81.6220    1.9420 C.3   7001  STD7001     0.1242
     19  C14       37.3380   82.9890    3.0290 C.3   7001  STD7001     0.0072
     20  C15       32.0930   72.7870    1.2710 C.3   7001  STD7001     0.0398
     21  C16       40.3900   82.0270    3.0980 C.3   7001  STD7001     0.0591
     22  O5        39.4360   82.4970    0.6320 O.3   7001  STD7001    -0.3341
     23  C17       41.5000   82.3400    2.5350 C.3   7001  STD7001     0.1417
     24  C18       40.5040   81.1300    3.9710 C.3   7001  STD7001     0.0054
     25  C19       40.5060   82.8740    0.2880 C.3   7001  STD7001     0.2161
     26  C20       35.2370   72.7380    5.1530 C.3   7001  STD7001     0.1483
     27  C21       36.3930   71.5720    5.3340 C.3   7001  STD7001     0.1039
     28  C22       37.9290   72.0260    5.5810 C.2   7001  STD7001     0.2430
     29  C23       36.1160   70.8450    6.2250 C.3   7001  STD7001     0.0118
     30  N2        38.2600   72.9320    6.6560 N.am  7001  STD7001    -0.2035
     31  O6        38.7810   71.5730    4.8510 O.2   7001  STD7001    -0.2733
     32  C24       38.9460   72.4730    7.8600 C.3   7001  STD7001     0.1385
     33  C25       32.2940   70.5090    2.5580 C.3   7001  STD7001     0.1473
     34  C26       31.2490   71.5460    1.8800 C.3   7001  STD7001     0.1791
     35  O7        30.2930   72.0850    2.8620 O.3   7001  STD7001    -0.2205
     36  C27       31.6050   69.3980    3.3930 C.3   7001  STD7001     0.0348
     37  O8        41.2730   83.4030    1.4760 O.3   7001  STD7001    -0.3299
     38  C28       41.3860   81.7150   -0.4320 C.3   7001  STD7001     0.1847
     39  C29       40.2750   84.1100   -0.6030 C.3   7001  STD7001     0.0642
     40  C30       42.3790   81.1470    1.8070 C.2   7001  STD7001     0.0010
     41  C31       40.7890   81.0130   -1.6340 C.3   7001  STD7001     0.1787
     42  C32       42.3070   80.8870    0.4500 C.2   7001  STD7001     0.0053
     43  O9        41.9510   81.9800   -1.8180 O.3   7001  STD7001    -0.3442
@<TRIPOS>BOND
     1    43    41    1
     2    43    38    1
     3    41    38    1
     4    39    25    1
     5    38    25    1
     6    38    42    1
     7    25    22    1
     8    25    37    1
     9    42    40    2
    10    22    18    1
    11    20    34    1
    12    20    17    1
    13    37    23    1
    14    14    11    1
    15    40    23    1
    16    34    33    1
    17    34    35    1
    18    18    13    1
    19    18    21    1
    20    17     5    1
    21    13    19    1
    22    13    12    1
    23     7     2    2
    24    23    21    1
    25    33    36    1
    26    33    16    1
    27     5    16    1
    28     5     3    1
    29    11    12    2
    30    11    10    1
    31    21    24    1
    32     2     3   am
    33     2     1    1
    34     3    26    1
    35     9    10    2
    36     9     8    1
    37     1     8    2
    38     1     4    1
    39     8    15    1
    40    31    28    2
    41    26    27    1
    42    26     4    1
    43    27    28    1
    44    27    29    1
    45    28    30   am
    46     4     6    2
    47    30    32    1
