@<TRIPOS>MOLECULE
2pq2_III_B_1.pdb
 26 25 0 0 0
SMALL
GASTEIGER

@<TRIPOS>ATOM
      1  N        -17.5510  -28.8380   36.3090 N.3     1  GLY1       -0.1210
      2  CA       -16.8950  -27.7870   37.1410 C.3     1  GLY1        0.1956
      3  C        -16.3040  -28.3230   38.4280 C.2     1  GLY1        0.2612
      4  O        -15.8430  -29.4630   38.4750 O.2     1  GLY1       -0.2717
      5  N        -16.3250  -27.4890   39.4660 N.am    2  ALA2       -0.1965
      6  CA       -15.7540  -27.8110   40.7780 C.3     2  ALA2        0.1728
      7  C        -16.0540  -26.6550   41.7360 C.2     2  ALA2        0.2616
      8  O        -16.8930  -26.7890   42.6670 O.2     2  ALA2       -0.2715
      9  CB       -14.2630  -28.0280   40.6550 C.3     2  ALA2        0.0334
     10  N        -15.2250  -25.5940   41.6360 N.am    3  LEU3       -0.1963
     11  CA       -15.6090  -24.2650   42.0820 C.3     3  LEU3        0.1728
     12  C        -16.2140  -23.6330   40.8310 C.2     3  LEU3        0.2616
     13  O        -17.2030  -22.8940   40.9060 O.2     3  LEU3       -0.2715
     14  CB       -14.3850  -23.4690   42.5610 C.3     3  LEU3        0.0311
     15  CG       -14.5450  -22.2440   43.4960 C.3     3  LEU3        0.0022
     16  CD1      -13.1700  -21.8580   44.1440 C.3     3  LEU3        0.0001
     17  CD2      -15.1420  -21.0090   42.7750 C.3     3  LEU3        0.0001
     18  N        -15.6090  -23.9680   39.6840 N.am    4  ALA4       -0.1963
     19  CA       -16.0370  -23.5350   38.3440 C.3     4  ALA4        0.1728
     20  C        -16.1500  -22.0140   38.2270 C.2     4  ALA4        0.2616
     21  O        -17.2140  -21.4290   38.4700 O.2     4  ALA4       -0.2715
     22  CB       -17.3360  -24.2250   37.9480 C.3     4  ALA4        0.0334
     23  N        -15.0310  -21.3930   37.8520 N.am    5  GLY5       -0.1955
     24  CA       -14.8860  -19.9340   37.7820 C.3     5  GLY5        0.1869
     25  C        -15.3770  -19.1400   38.9810 C.2     5  GLY5        0.2309
     26  O        -15.1200  -17.9050   39.0580 O.2     5  GLY5       -0.2863
@<TRIPOS>BOND
     1     1     2    1
     2     2     3    1
     3    24    23    1
     4    24    25    1
     5    23    20   am
     6    22    19    1
     7    20    19    1
     8    20    21    2
     9    19    18    1
    10     3     4    2
    11     3     5   am
    12    25    26    2
    13     5     6    1
    14    18    12   am
    15     9     6    1
    16     6     7    1
    17    12    13    2
    18    12    11    1
    19    10     7   am
    20    10    11    1
    21     7     8    2
    22    11    14    1
    23    14    15    1
    24    17    15    1
    25    15    16    1
