@<TRIPOS>MOLECULE
2pq8_COA_A_1.pdb
 48 50 0 0 0
SMALL
GASTEIGER

@<TRIPOS>ATOM
      1  N1A       23.8630   16.7730   14.3780 N.2   601  COA601      0.0021
      2  C2A       24.5950   17.0750   15.4550 C.3   601  COA601      0.5254
      3  N3A       24.0960   17.7680   16.4690 N.2   601  COA601     -0.0055
      4  C4A       22.7840   18.1340   16.3970 C.2   601  COA601      0.3518
      5  C5A       21.9970   17.8280   15.2870 C.2   601  COA601      0.2526
      6  C6A       22.5680   17.1130   14.2520 C.2   601  COA601      0.4393
      7  N6A       21.8720   16.7880   13.1690 N.pl3 601  COA601      0.2180
      8  N7A       20.7690   18.3110   15.5010 N.2   601  COA601     -0.2095
      9  C8A       20.7840   18.9230   16.6860 C.3   601  COA601      0.3377
     10  N9A       22.0070   18.8150   17.2310 N.pl3 601  COA601     -0.1439
     11  C1B       22.4200   19.3560   18.5280 C.3   601  COA601      0.3185
     12  C2B       22.5630   20.8520   18.4070 C.3   601  COA601      0.2543
     13  O2B       23.8820   21.2440   17.8730 O.3   601  COA601     -0.2131
     14  C3B       22.3920   21.2470   19.8430 C.3   601  COA601      0.1928
     15  O3B       23.6230   21.0070   20.5470 O.3   601  COA601     -0.2673
     16  P3B       24.1270   22.1560   21.4930 P.3   601  COA601      0.5327
     17  O7A       25.4070   21.4900   22.2400 O.3   601  COA601     -0.1145
     18  O8A       22.8890   22.3150   22.5290 O.3   601  COA601     -0.1145
     19  O9A       24.4010   23.4340   20.8270 O.2   601  COA601     -0.2224
     20  C4B       21.3150   20.2750   20.3610 C.3   601  COA601      0.1795
     21  O4B       21.2880   19.1890   19.3970 O.3   601  COA601     -0.3136
     22  C5B       19.9130   20.9220   20.3920 C.3   601  COA601      0.1812
     23  O5B       19.6910   21.7030   19.1930 O.3   601  COA601     -0.3112
     24  P1A       18.3110   22.4910   18.9370 P.3   601  COA601      0.2189
     25  O1A       17.8170   23.0080   20.2440 O.3   601  COA601     -0.4371
     26  O2A       18.5050   23.4430   17.8300 O.2   601  COA601     -0.5170
     27  O3A       17.3400   21.2890   18.5070 O.3   601  COA601     -0.2703
     28  P2A       16.4760   21.1100   17.1300 P.3   601  COA601      0.2188
     29  O4A       15.5170   22.2180   17.0090 O.3   601  COA601     -0.4371
     30  O5A       17.4230   20.8470   16.0160 O.2   601  COA601     -0.5170
     31  O6A       15.6850   19.8470   17.5320 O.3   601  COA601     -0.3138
     32  CBP       15.3050   17.5060   17.7820 C.3   601  COA601      0.0645
     33  CCP       16.2640   18.6750   18.0530 C.3   601  COA601      0.1519
     34  CDP       13.8870   17.8560   18.3220 C.3   601  COA601      0.0056
     35  CEP       15.8240   16.2350   18.4770 C.3   601  COA601      0.0056
     36  CAP       15.3050   17.2670   16.2580 C.3   601  COA601      0.2312
     37  OAP       16.6100   16.7580   15.8320 O.3   601  COA601     -0.2131
     38  C9P       14.1960   16.3690   15.7340 C.2   601  COA601      0.2719
     39  O9P       13.0380   16.7760   15.6610 O.2   601  COA601     -0.2706
     40  N8P       14.5610   15.1660   15.2980 N.am  601  COA601     -0.2028
     41  C7P       13.5930   14.2140   14.7350 C.3   601  COA601      0.1248
     42  C6P       12.6160   13.6790   15.7680 C.3   601  COA601      0.1102
     43  C5P       13.3820   13.1330   16.9740 C.2   601  COA601      0.2432
     44  O5P       14.3420   12.3600   16.8400 O.2   601  COA601     -0.2733
     45  N4P       12.9580   13.6060   18.1280 N.am  601  COA601     -0.2044
     46  C3P       13.5660   13.2420   19.4030 C.3   601  COA601      0.1276
     47  C2P       13.1170   11.8410   19.6660 C.3   601  COA601      0.0920
     48  S1P       13.3040   11.2920   21.4170 S.3   601  COA601     -0.0802
@<TRIPOS>BOND
     1     7     6    1
     2     6     1    2
     3     6     5    1
     4     1     2    1
     5    41    40    1
     6    41    42    1
     7     5     8    2
     8     5     4    1
     9    40    38   am
    10     2     3    1
    11     8     9    1
    12    39    38    2
    13    38    36    1
    14    42    43    1
    15    37    36    1
    16    30    28    2
    17    36    32    1
    18     4     3    2
    19     4    10    1
    20     9    10    1
    21    44    43    2
    22    43    45   am
    23    29    28    1
    24    28    31    1
    25    28    27    1
    26    10    11    1
    27    31    33    1
    28    32    33    1
    29    32    34    1
    30    32    35    1
    31    26    24    2
    32    13    12    1
    33    45    46    1
    34    12    11    1
    35    12    14    1
    36    27    24    1
    37    11    21    1
    38    24    23    1
    39    24    25    1
    40    23    22    1
    41    21    20    1
    42    46    47    1
    43    47    48    1
    44    14    20    1
    45    14    15    1
    46    20    22    1
    47    15    16    1
    48    19    16    2
    49    16    17    1
    50    16    18    1
