@<TRIPOS>MOLECULE
2pq9_GG9_A_1.pdb
 28 28 0 0 0
SMALL
GASTEIGER

@<TRIPOS>ATOM
      1  C1        56.6600   12.0160   28.0470 C.2   501  GG9501      0.0582
      2  C2        55.5100   11.2380   28.3940 C.2   501  GG9501      0.0084
      3  C3        55.6810    9.9660   29.2220 C.3   501  GG9501      0.1808
      4  C4        57.0390    9.9660   30.0570 C.3   501  GG9501      0.2109
      5  C5        58.2410   10.1970   29.0960 C.3   501  GG9501      0.1559
      6  C6        58.0540   11.6390   28.4800 C.3   501  GG9501      0.0652
      7  C7        56.4650   13.2670   27.2440 C.2   501  GG9501      0.3837
      8  O1        55.5560    8.7450   28.2650 O.3   501  GG9501     -0.2655
      9  O2        57.1100    8.7040   30.7390 O.3   501  GG9501     -0.2175
     10  O3        59.4620   10.1370   29.8440 O.3   501  GG9501     -0.3211
     11  O4        55.5690   13.2790   26.4210 O.co2 501  GG9501     -0.2409
     12  O5        57.1910   14.1860   27.4910 O.co2 501  GG9501     -0.2409
     13  P1        54.1380    7.9340   27.9670 P.3   501  GG9501      0.5329
     14  O6        53.1900    8.9600   27.3390 O.3   501  GG9501     -0.1145
     15  O7        53.6550    7.4020   29.3820 O.3   501  GG9501     -0.1145
     16  O8        54.6280    6.8620   26.9600 O.2   501  GG9501     -0.2224
     17  C8        60.4060    9.0420   29.7360 C.3   501  GG9501      0.3545
     18  C9        59.8280    7.5510   29.6520 C.3   501  GG9501      0.3803
     19  C10       61.3200    9.1100   30.9340 C.2   501  GG9501      0.4214
     20  O9        61.8590   10.2660   31.0070 O.co2 501  GG9501     -0.2400
     21  O10       61.5080    8.1900   31.7530 O.co2 501  GG9501     -0.2400
     22  P2        61.0700    9.4370   26.9350 P.3   501  GG9501      0.5349
     23  O11       62.3110    8.8530   26.2260 O.2   501  GG9501     -0.2223
     24  O12       60.9740   10.9220   26.7400 O.3   501  GG9501     -0.1145
     25  O13       59.7920    8.6940   26.4730 O.3   501  GG9501     -0.1145
     26  O14       61.2860    9.2650   28.5590 O.3   501  GG9501     -0.2339
     27  F1        58.9060    7.4070   28.7640 F     501  GG9501     -0.1922
     28  F2        60.7910    6.6640   29.5050 F     501  GG9501     -0.1922
@<TRIPOS>BOND
     1    23    22    2
     2    11     7   ar
     3    25    22    1
     4    24    22    1
     5    22    26    1
     6    16    13    2
     7     7    12   ar
     8     7     1    1
     9    14    13    1
    10    13     8    1
    11    13    15    1
    12     1     2    2
    13     1     6    1
    14     8     3    1
    15     2     3    1
    16     6     5    1
    17    26    17    1
    18    27    18    1
    19     5    10    1
    20     5     4    1
    21     3     4    1
    22    28    18    1
    23    18    17    1
    24    17    10    1
    25    17    19    1
    26     4     9    1
    27    19    20   ar
    28    19    21   ar
