@<TRIPOS>MOLECULE
2pqb_GG9_A_1.pdb
 28 28 0 0 0
SMALL
GASTEIGER

@<TRIPOS>ATOM
      1  C1      -127.7840   32.0210  127.7750 C.2   501  GG9501      0.0582
      2  C2      -127.4180   32.3690  126.4040 C.2   501  GG9501      0.0084
      3  C3      -128.5040   32.3270  125.3130 C.3   501  GG9501      0.1808
      4  C4      -129.9960   32.3540  125.8790 C.3   501  GG9501      0.2109
      5  C5      -130.1890   31.2700  126.9710 C.3   501  GG9501      0.1559
      6  C6      -129.1940   31.6430  128.1630 C.3   501  GG9501      0.0652
      7  C7      -126.6950   32.0350  128.8280 C.2   501  GG9501      0.3837
      8  O1      -128.3580   31.1140  124.3810 O.3   501  GG9501     -0.2655
      9  O2      -130.8350   32.2050  124.7190 O.3   501  GG9501     -0.2175
     10  O3      -131.5660   31.2810  127.4530 O.3   501  GG9501     -0.3211
     11  O4      -125.5540   31.8580  128.4280 O.co2 501  GG9501     -0.2409
     12  O5      -127.0170   32.1910  130.0050 O.co2 501  GG9501     -0.2409
     13  P1      -127.3910   31.1220  123.0460 P.3   501  GG9501      0.5329
     14  O6      -125.9160   31.1160  123.5140 O.3   501  GG9501     -0.1145
     15  O7      -127.8230   32.4300  122.3040 O.2   501  GG9501     -0.2224
     16  O8      -127.6420   29.7550  122.3860 O.3   501  GG9501     -0.1145
     17  C8      -132.5120   30.1670  127.2980 C.3   501  GG9501      0.3545
     18  C9      -132.6890   29.6280  125.8300 C.3   501  GG9501      0.3803
     19  C10     -133.8030   30.6710  127.9060 C.2   501  GG9501      0.4214
     20  O9      -133.7180   30.7700  129.1780 O.co2 501  GG9501     -0.2400
     21  O10     -134.8030   30.9360  127.2610 O.co2 501  GG9501     -0.2400
     22  P2      -131.8170   27.7510  128.4630 P.3   501  GG9501      0.5349
     23  O11     -131.9020   26.9290  127.2170 O.2   501  GG9501     -0.2223
     24  O12     -133.1220   27.6380  129.2280 O.3   501  GG9501     -0.1145
     25  O13     -130.6180   27.2610  129.3300 O.3   501  GG9501     -0.1145
     26  O14     -131.5780   29.3540  128.0870 O.3   501  GG9501     -0.2339
     27  F1      -131.5490   29.1990  125.3620 F     501  GG9501     -0.1922
     28  F2      -133.5370   28.6600  125.8580 F     501  GG9501     -0.1922
@<TRIPOS>BOND
     1    15    13    2
     2    16    13    1
     3    13    14    1
     4    13     8    1
     5     8     3    1
     6     9     4    1
     7     3     4    1
     8     3     2    1
     9    27    18    1
    10    18    28    1
    11    18    17    1
    12     4     5    1
    13     2     1    2
    14     5    10    1
    15     5     6    1
    16    23    22    2
    17    21    19   ar
    18    17    10    1
    19    17    19    1
    20    17    26    1
    21     1     6    1
    22     1     7    1
    23    19    20   ar
    24    26    22    1
    25    11     7   ar
    26    22    24    1
    27    22    25    1
    28     7    12   ar
