@<TRIPOS>MOLECULE
2pqc_RC1_A_1.pdb
 25 25 0 0 0
SMALL
GASTEIGER

@<TRIPOS>ATOM
      1  C1      -127.4420   32.1270  127.3300 C.2   601  RC1601      0.0582
      2  C2      -127.1060   32.5990  125.9920 C.3   601  RC1601      0.0657
      3  C3      -128.1620   32.5360  124.8600 C.3   601  RC1601      0.1638
      4  C4      -129.5960   32.5890  125.4260 C.3   601  RC1601      0.2108
      5  C5      -129.7950   31.4570  126.4680 C.3   601  RC1601      0.1708
      6  C6      -128.7560   31.5780  127.6310 C.2   601  RC1601      0.0079
      7  C7      -126.3830   32.2050  128.4020 C.2   601  RC1601      0.3837
      8  O1      -127.9790   31.3100  124.0410 O.3   601  RC1601     -0.2697
      9  O2      -130.5180   32.4700  124.3250 O.3   601  RC1601     -0.2175
     10  O3      -131.1530   31.4620  127.0060 O.3   601  RC1601     -0.3367
     11  O4      -125.2190   32.1160  128.0350 O.co2 601  RC1601     -0.2409
     12  O5      -126.7150   32.2950  129.5800 O.co2 601  RC1601     -0.2409
     13  P1      -127.1220   31.2190  122.7270 P.3   601  RC1601      0.5326
     14  O6      -125.6880   31.1760  123.1160 O.3   601  RC1601     -0.1145
     15  O7      -127.4050   32.4290  121.9230 O.2   601  RC1601     -0.2224
     16  O8      -127.4670   29.9840  121.9820 O.3   601  RC1601     -0.1145
     17  C8      -131.7990   30.1520  126.6990 C.3   601  RC1601      0.2307
     18  C9      -132.0900   29.8260  125.2230 C.3   601  RC1601      0.0490
     19  C10     -130.9950   28.9580  127.3080 C.2   601  RC1601      0.3951
     20  O9      -130.6980   27.9760  126.5770 O.co2 601  RC1601     -0.2426
     21  O10     -130.6680   29.0240  128.4990 O.co2 601  RC1601     -0.2426
     22  P2      -133.3300   30.3460  127.6500 P.3   601  RC1601      0.1519
     23  O11     -134.4510   30.8250  126.7170 O.2   601  RC1601     -0.4573
     24  O12     -133.1450   31.3290  128.7990 O.3   601  RC1601     -0.3553
     25  O13     -133.6140   28.9120  128.1030 O.3   601  RC1601     -0.3553
@<TRIPOS>BOND
     1    15    13    2
     2    16    13    1
     3    13    14    1
     4    13     8    1
     5     8     3    1
     6     9     4    1
     7     3     4    1
     8     3     2    1
     9    18    17    1
    10     4     5    1
    11     2     1    1
    12     5    10    1
    13     5     6    1
    14    20    19   ar
    15    17    10    1
    16    17    19    1
    17    17    22    1
    18    23    22    2
    19    19    21   ar
    20     1     6    2
    21     1     7    1
    22    22    25    1
    23    22    24    1
    24    11     7   ar
    25     7    12   ar
