@<TRIPOS>MOLECULE
2pqd_GG9_A_1.pdb
 28 28 0 0 0
SMALL
GASTEIGER

@<TRIPOS>ATOM
      1  C1      -127.2840   32.0690  126.9200 C.2   501  GG9501      0.0582
      2  C2      -126.9170   32.4460  125.5630 C.2   501  GG9501      0.0084
      3  C3      -128.0000   32.4210  124.4750 C.3   501  GG9501      0.1808
      4  C4      -129.4780   32.4580  125.0260 C.3   501  GG9501      0.2109
      5  C5      -129.6750   31.3550  126.0840 C.3   501  GG9501      0.1559
      6  C6      -128.6940   31.6790  127.2960 C.3   501  GG9501      0.0652
      7  C7      -126.2050   32.0520  127.9830 C.2   501  GG9501      0.3837
      8  O1      -127.8940   31.1930  123.5560 O.3   501  GG9501     -0.2655
      9  O2      -130.3190   32.3240  123.8710 O.3   501  GG9501     -0.2175
     10  O3      -131.0290   31.3710  126.5470 O.3   501  GG9501     -0.3211
     11  O4      -125.0810   31.8170  127.5970 O.co2 501  GG9501     -0.2409
     12  O5      -126.5340   32.2350  129.1510 O.co2 501  GG9501     -0.2409
     13  P1      -126.9580   31.2010  122.2350 P.3   501  GG9501      0.5329
     14  O6      -125.4830   31.1770  122.6660 O.3   501  GG9501     -0.1145
     15  O7      -127.3960   32.5030  121.4920 O.2   501  GG9501     -0.2224
     16  O8      -127.2670   29.8380  121.6230 O.3   501  GG9501     -0.1145
     17  C8      -131.9470   30.2410  126.3870 C.3   501  GG9501      0.3545
     18  C9      -132.1140   29.6940  124.9260 C.3   501  GG9501      0.3803
     19  C10     -133.2340   30.7130  126.9860 C.2   501  GG9501      0.4214
     20  O9      -133.1350   30.8040  128.2770 O.co2 501  GG9501     -0.2400
     21  O10     -134.2450   30.9470  126.3430 O.co2 501  GG9501     -0.2400
     22  P2      -131.1710   27.8640  127.6080 P.3   501  GG9501      0.5349
     23  O11     -131.0850   27.0280  126.3860 O.2   501  GG9501     -0.2223
     24  O12     -132.5340   27.7360  128.2790 O.3   501  GG9501     -0.1145
     25  O13     -130.0220   27.4540  128.5590 O.3   501  GG9501     -0.1145
     26  O14     -130.9960   29.4670  127.2150 O.3   501  GG9501     -0.2339
     27  F1      -130.9530   29.2780  124.4820 F     501  GG9501     -0.1922
     28  F2      -132.9660   28.7160  124.9690 F     501  GG9501     -0.1922
@<TRIPOS>BOND
     1    15    13    2
     2    16    13    1
     3    13    14    1
     4    13     8    1
     5     8     3    1
     6     9     4    1
     7     3     4    1
     8     3     2    1
     9    27    18    1
    10    18    28    1
    11    18    17    1
    12     4     5    1
    13     2     1    2
    14     5    10    1
    15     5     6    1
    16    21    19   ar
    17    23    22    2
    18    17    10    1
    19    17    19    1
    20    17    26    1
    21     1     6    1
    22     1     7    1
    23    19    20   ar
    24    26    22    1
    25    11     7   ar
    26    22    24    1
    27    22    25    1
    28     7    12   ar
