@<TRIPOS>MOLECULE
2pqf_GAB_A_1.pdb
 10 10 0 0 0
SMALL
GASTEIGER

@<TRIPOS>ATOM
      1  C1'       94.9550   35.4150   -3.3680 C.2   701  GAB701      0.3878
      2  O1'       93.8800   35.1230   -3.9010 O.co2 701  GAB701     -0.2406
      3  O2'       95.4800   36.5480   -3.2900 O.co2 701  GAB701     -0.2406
      4  C1        95.6740   34.2690   -2.7900 C.ar  701  GAB701      0.0811
      5  C2        96.5520   34.5090   -1.7780 C.ar  701  GAB701      0.0246
      6  C3        97.2130   33.4440   -1.2300 C.ar  701  GAB701      0.0893
      7  C4        97.0460   32.1460   -1.6780 C.ar  701  GAB701      0.0181
      8  C5        96.1460   31.8990   -2.7130 C.ar  701  GAB701      0.0016
      9  C6        95.4420   32.9750   -3.2490 C.ar  701  GAB701      0.0067
     10  N3        98.0720   33.7300   -0.2880 N.pl3 701  GAB701     -0.1281
@<TRIPOS>BOND
     1     2     1   ar
     2     1     3   ar
     3     1     4    1
     4     9     4   ar
     5     9     8   ar
     6     4     5   ar
     7     8     7   ar
     8     5     6   ar
     9     7     6   ar
    10     6    10    1
