@<TRIPOS>MOLECULE
2pqj_ADE_A_1.pdb
 10 11 0 0 0
SMALL
GASTEIGER

@<TRIPOS>ATOM
      1  N9       -33.7460   30.4290  -16.5350 N.2   501  ADE501     -0.1914
      2  C8       -32.4380   30.8020  -16.5640 C.3   501  ADE501      0.2618
      3  N7       -32.3290   32.0060  -17.0410 N.2   501  ADE501     -0.2267
      4  C5       -33.5570   32.4920  -17.3380 C.2   501  ADE501      0.2303
      5  C6       -34.0710   33.7140  -17.8900 C.2   501  ADE501      0.4393
      6  N6       -33.2270   34.7630  -18.2290 N.pl3 501  ADE501      0.2185
      7  N1       -35.4030   33.8350  -18.0550 N.2   501  ADE501     -0.0265
      8  C2       -36.2370   32.8470  -17.7370 C.3   501  ADE501      0.4008
      9  N3       -35.8030   31.6940  -17.2330 N.2   501  ADE501     -0.1640
     10  C4       -34.4890   31.4740  -17.0250 C.1   501  ADE501      0.0579
@<TRIPOS>BOND
     1     6     5    1
     2     7     5    2
     3     7     8    1
     4     5     4    1
     5     8     9    1
     6     4     3    2
     7     4    10    1
     8     9    10    2
     9     3     2    1
    10    10     1    2
    11     2     1    1
