@<TRIPOS>MOLECULE
2pql_TSS_A_1.pdb
 12 13 0 0 0
SMALL
GASTEIGER

@<TRIPOS>ATOM
      1  N1        13.6610  -23.7050    6.3550 N.3   145  TSS145     -0.1310
      2  CA        12.4920  -22.8570    6.1960 C.3   145  TSS145      0.1137
      3  CB        12.9210  -21.3880    6.1270 C.3   145  TSS145      0.0445
      4  CG        11.7170  -20.5530    5.7270 C.2   145  TSS145     -0.0172
      5  CD1       10.3550  -20.8110    5.9710 C.3   145  TSS145      0.1477
      6  NE1        9.5630  -19.8310    5.4330 N.2   145  TSS145     -0.2659
      7  CE2       10.4050  -18.9530    4.8570 C.ar  145  TSS145      0.0758
      8  CD2       11.6800  -19.3700    5.0250 C.ar  145  TSS145      0.0113
      9  CZ2       10.0080  -17.8030    4.2130 C.ar  145  TSS145      0.0187
     10  CH2       11.0590  -17.0130    3.7660 C.ar  145  TSS145      0.0015
     11  CZ3       12.3800  -17.4760    3.8130 C.ar  145  TSS145      0.0001
     12  CE3       12.7260  -18.6170    4.5250 C.ar  145  TSS145      0.0009
@<TRIPOS>BOND
     1    10    11   ar
     2    10     9   ar
     3    11    12   ar
     4     9     7   ar
     5    12     8   ar
     6     7     8   ar
     7     7     6    2
     8     8     4    2
     9     6     5    1
    10     4     5    1
    11     4     3    1
    12     3     2    1
    13     2     1    1
