@<TRIPOS>MOLECULE
2pqm_PLP_A_1.pdb
 15 15 0 0 0
SMALL
GASTEIGER

@<TRIPOS>ATOM
      1  N1        26.6750   -4.5220   86.1860 N.ar  345  PLP345     -0.2452
      2  C2        27.6990   -4.1730   87.0400 C.ar  345  PLP345      0.0978
      3  C2A       28.7610   -5.1990   87.3840 C.3   345  PLP345      0.0555
      4  C3        27.6680   -2.8880   87.6090 C.ar  345  PLP345      0.2049
      5  O3        28.6670   -2.4690   88.4490 O.3   345  PLP345     -0.2857
      6  C4        26.6130   -2.0130   87.2520 C.ar  345  PLP345      0.0182
      7  C4A       26.5610   -0.6480   87.8460 C.3   345  PLP345      0.0342
      8  C5        25.5990   -2.3930   86.3420 C.ar  345  PLP345      0.0261
      9  C6        25.6470   -3.6760   85.8320 C.ar  345  PLP345      0.0965
     10  C5A       24.3840   -1.5500   85.9900 C.3   345  PLP345      0.1815
     11  O4P       24.7510   -0.2870   85.4290 O.3   345  PLP345     -0.2653
     12  P         23.8700    1.0130   85.8440 P.3   345  PLP345      0.5329
     13  O1P       24.3030    2.1440   84.9580 O.2   345  PLP345     -0.2224
     14  O2P       22.4290    0.6380   85.5870 O.3   345  PLP345     -0.1145
     15  O3P       24.0960    1.2950   87.3210 O.3   345  PLP345     -0.1145
@<TRIPOS>BOND
     1    13    12    2
     2    11    12    1
     3    11    10    1
     4    14    12    1
     5     9     1   ar
     6     9     8   ar
     7    12    15    1
     8    10     8    1
     9     1     2   ar
    10     8     6   ar
    11     2     3    1
    12     2     4   ar
    13     6     4   ar
    14     6     7    1
    15     4     5    1
