@<TRIPOS>MOLECULE
2pqz_G0G_A_1.pdb
 39 43 0 0 0
SMALL
GASTEIGER

@<TRIPOS>ATOM
      1  O10       11.2410  -22.8170  -17.3600 O.2   2501  G0G2501    -0.1528
      2  S8        11.1490  -22.5440  -18.7790 S.O2  2501  G0G2501     0.0636
      3  N28       11.4720  -20.8680  -19.0940 N.3   2501  G0G2501    -0.1496
      4  C7        10.9500  -20.3150  -20.3600 C.3   2501  G0G2501     0.1221
      5  C12        9.6670  -19.4960  -20.2630 C.ar  2501  G0G2501    -0.0045
      6  C13        8.6580  -19.7860  -19.3040 C.ar  2501  G0G2501    -0.0029
      7  C29        7.4620  -19.0210  -19.2510 C.ar  2501  G0G2501    -0.0003
      8  C31        7.2830  -17.9280  -20.1440 C.ar  2501  G0G2501    -0.0000
      9  C30        8.2820  -17.6450  -21.1130 C.ar  2501  G0G2501    -0.0003
     10  C14        9.4830  -18.3890  -21.1370 C.ar  2501  G0G2501    -0.0029
     11  C23       12.3090  -20.1040  -18.1380 C.3   2501  G0G2501     0.1149
     12  C21       13.6900  -19.7650  -18.7680 C.3   2501  G0G2501     0.1079
     13  N22       13.9240  -18.3100  -18.6300 N.3   2501  G0G2501    -0.2150
     14  C25       12.6150  -17.6520  -18.3440 C.3   2501  G0G2501     0.1079
     15  C24       11.7530  -18.7050  -17.6190 C.3   2501  G0G2501     0.1149
     16  N32       12.0140  -18.7490  -16.1130 N.3   2501  G0G2501    -0.1496
     17  S9        10.6490  -19.0780  -15.1710 S.O2  2501  G0G2501     0.0636
     18  O11        9.8870  -20.2020  -15.7280 O.2   2501  G0G2501    -0.1528
     19  C27        9.6740  -17.6360  -15.0480 C.ar  2501  G0G2501     0.1222
     20  C18        8.3470  -17.6650  -15.5880 C.ar  2501  G0G2501     0.0199
     21  C2         7.4950  -16.5340  -15.4930 C.ar  2501  G0G2501     0.0014
     22  C6         7.9830  -15.3590  -14.8910 C.ar  2501  G0G2501     0.0001
     23  C5         9.2990  -15.3370  -14.3430 C.ar  2501  G0G2501     0.0014
     24  C20       10.1670  -16.4590  -14.4320 C.ar  2501  G0G2501     0.0199
     25  O40       11.0800  -19.1760  -13.7600 O.2   2501  G0G2501    -0.1528
     26  C33       13.3300  -18.5990  -15.4190 C.3   2501  G0G2501     0.1221
     27  C34       14.1160  -19.9160  -15.2890 C.ar  2501  G0G2501    -0.0045
     28  C35       13.4650  -21.1020  -14.8650 C.ar  2501  G0G2501    -0.0029
     29  C36       14.2470  -22.2880  -14.7550 C.ar  2501  G0G2501    -0.0003
     30  C37       15.6250  -22.3090  -15.1090 C.ar  2501  G0G2501    -0.0000
     31  C39       16.3030  -21.1030  -15.4740 C.ar  2501  G0G2501    -0.0003
     32  C38       15.5040  -19.9410  -15.6250 C.ar  2501  G0G2501    -0.0029
     33  O41        9.9520  -22.9130  -19.5530 O.2   2501  G0G2501    -0.1528
     34  C26       12.5610  -23.1610  -19.6710 C.ar  2501  G0G2501     0.1222
     35  C19       13.7330  -23.5290  -18.9450 C.ar  2501  G0G2501     0.0199
     36  C3        14.9000  -23.9940  -19.6500 C.ar  2501  G0G2501     0.0014
     37  C4        14.8560  -24.0990  -21.0650 C.ar  2501  G0G2501     0.0001
     38  C1        13.6700  -23.7480  -21.7870 C.ar  2501  G0G2501     0.0014
     39  C17       12.5210  -23.3070  -21.0810 C.ar  2501  G0G2501     0.0199
@<TRIPOS>BOND
     1    38    39   ar
     2    38    37   ar
     3    10     9   ar
     4    10     5   ar
     5     9     8   ar
     6    39    34   ar
     7    37    36   ar
     8     4     5    1
     9     4     3    1
    10     5     6   ar
    11     8     7   ar
    12    34    35   ar
    13    34     2    1
    14    36    35   ar
    15    33     2    2
    16     6     7   ar
    17     3     2    1
    18     3    11    1
    19     2     1    2
    20    12    13    1
    21    12    11    1
    22    13    14    1
    23    14    15    1
    24    11    15    1
    25    15    16    1
    26    16    26    1
    27    16    17    1
    28    18    17    2
    29    32    31   ar
    30    32    27   ar
    31    20    21   ar
    32    20    19   ar
    33    21    22   ar
    34    31    30   ar
    35    26    27    1
    36    27    28   ar
    37    17    19    1
    38    17    25    2
    39    30    29   ar
    40    19    24   ar
    41    22    23   ar
    42    28    29   ar
    43    24    23   ar
