@<TRIPOS>MOLECULE
2pr1_COA_A_1.pdb
 48 50 0 0 0
SMALL
GASTEIGER

@<TRIPOS>ATOM
      1  N1A      121.3430   22.5760   31.2420 N.2   206  COA206      0.0021
      2  C2A      122.4430   22.6660   32.0760 C.3   206  COA206      0.5254
      3  N3A      123.7130   22.4420   31.5690 N.2   206  COA206     -0.0055
      4  C4A      123.8950   22.1290   30.2510 C.2   206  COA206      0.3518
      5  C5A      122.7940   22.0310   29.4030 C.2   206  COA206      0.2526
      6  C6A      121.5110   22.2620   29.9000 C.2   206  COA206      0.4393
      7  N6A      120.5580   22.6070   29.0350 N.pl3 206  COA206      0.2180
      8  N7A      123.2400   21.7070   28.1690 N.2   206  COA206     -0.2095
      9  C8A      124.5860   21.6030   28.2180 C.3   206  COA206      0.3377
     10  N9A      125.0210   21.8600   29.4980 N.pl3 206  COA206     -0.1439
     11  C1B      126.3480   21.4900   30.0390 C.3   206  COA206      0.3185
     12  C2B      126.6590   20.0540   29.6350 C.3   206  COA206      0.2543
     13  O2B      126.5360   19.1990   30.7500 O.3   206  COA206     -0.2131
     14  C3B      128.0530   20.0870   29.0100 C.3   206  COA206      0.1928
     15  O3B      129.0490   19.3040   29.6640 O.3   206  COA206     -0.2673
     16  P3B      129.9650   19.7570   30.9270 P.3   206  COA206      0.5327
     17  O7A      130.1260   18.5340   31.7790 O.3   206  COA206     -0.1145
     18  O8A      129.3500   20.8530   31.7700 O.3   206  COA206     -0.1145
     19  O9A      131.3310   20.1820   30.4480 O.2   206  COA206     -0.2224
     20  C4B      128.4120   21.5650   28.9190 C.3   206  COA206      0.1795
     21  O4B      127.3680   22.3210   29.5210 O.3   206  COA206     -0.3136
     22  C5B      128.6060   21.9290   27.4540 C.3   206  COA206      0.1812
     23  O5B      127.4100   21.6100   26.7920 O.3   206  COA206     -0.3112
     24  P1A      127.3500   20.7580   25.4300 P.3   206  COA206      0.2189
     25  O1A      127.7400   19.3100   25.6190 O.3   206  COA206     -0.4371
     26  O2A      128.1990   21.3970   24.3640 O.2   206  COA206     -0.5170
     27  O3A      125.7810   20.9010   25.1270 O.3   206  COA206     -0.2703
     28  P2A      125.2020   20.8780   23.6400 P.3   206  COA206      0.2188
     29  O4A      126.0240   21.7660   22.7730 O.2   206  COA206     -0.5170
     30  O5A      125.2050   19.4840   23.0560 O.3   206  COA206     -0.4371
     31  O6A      123.7760   21.5860   23.8300 O.3   206  COA206     -0.3138
     32  CBP      122.5550   23.6670   23.4240 C.3   206  COA206      0.0645
     33  CCP      123.7200   22.9710   24.1330 C.3   206  COA206      0.1519
     34  CDP      121.9750   24.6820   24.4000 C.3   206  COA206      0.0056
     35  CEP      123.1120   24.4390   22.2410 C.3   206  COA206      0.0056
     36  CAP      121.5290   22.6390   22.9100 C.3   206  COA206      0.2312
     37  OAP      121.1050   21.7340   23.8960 O.3   206  COA206     -0.2131
     38  C9P      120.3380   23.1450   22.1560 C.2   206  COA206      0.2719
     39  O9P      120.3750   23.1440   20.7580 O.2   206  COA206     -0.2706
     40  N8P      119.2730   23.5570   22.8360 N.am  206  COA206     -0.2028
     41  C7P      117.9450   22.9920   22.6260 C.3   206  COA206      0.1248
     42  C6P      116.7900   23.8890   23.0820 C.3   206  COA206      0.1102
     43  C5P      117.0150   24.4740   24.4690 C.2   206  COA206      0.2432
     44  O5P      117.3960   25.6570   24.6160 O.2   206  COA206     -0.2733
     45  N4P      116.7730   23.6630   25.5050 N.am  206  COA206     -0.2044
     46  C3P      117.7230   23.5200   26.6010 C.3   206  COA206      0.1276
     47  C2P      117.3520   22.3820   27.5460 C.3   206  COA206      0.0920
     48  S1P      117.2070   20.7940   26.6810 S.3   206  COA206     -0.0802
@<TRIPOS>BOND
     1    39    38    2
     2    38    40   am
     3    38    36    1
     4    35    32    1
     5    41    40    1
     6    41    42    1
     7    29    28    2
     8    36    32    1
     9    36    37    1
    10    30    28    1
    11    42    43    1
    12    32    33    1
    13    32    34    1
    14    28    31    1
    15    28    27    1
    16    31    33    1
    17    26    24    2
    18    43    44    2
    19    43    45   am
    20    27    24    1
    21    24    25    1
    22    24    23    1
    23    45    46    1
    24    46    47    1
    25    48    47    1
    26    23    22    1
    27    22    20    1
    28     8     9    1
    29     8     5    2
    30     9    10    1
    31    20    14    1
    32    20    21    1
    33    14    12    1
    34    14    15    1
    35     7     6    1
    36     5     6    1
    37     5     4    1
    38    10    11    1
    39    10     4    1
    40    21    11    1
    41    12    11    1
    42    12    13    1
    43    15    16    1
    44     6     1    2
    45     4     3    2
    46    19    16    2
    47    16    18    1
    48    16    17    1
    49     1     2    1
    50     3     2    1
