@<TRIPOS>MOLECULE
2pr3_237_A_1.pdb
 37 40 0 0 0
SMALL
GASTEIGER

@<TRIPOS>ATOM
      1  N1        34.7130    5.6820   21.9810 N.am  1001  2371001    -0.1755
      2  N3        36.3310    8.1250   25.5670 N.am  1001  2371001    -0.1622
      3  C4        40.0520    8.2760   25.3850 C.ar  1001  2371001     0.0127
      4  C5        40.3800    7.6160   26.5680 C.ar  1001  2371001     0.0578
      5  C6        39.4140    7.1250   27.4670 C.ar  1001  2371001     0.0127
      6  C7        38.0660    7.3190   27.1120 C.ar  1001  2371001     0.0175
      7  C8        32.2990    6.8270   24.5560 C.3   1001  2371001     0.1373
      8  C10       33.7970    7.8100   22.9030 C.3   1001  2371001     0.1577
      9  C13       36.6810    1.7650   18.3910 C.ar  1001  2371001     0.0172
     10  C15       38.6450    0.4020   17.7250 C.ar  1001  2371001     0.0001
     11  C17       36.5990    0.2650   16.4480 C.ar  1001  2371001     0.0183
     12  C20       33.5660    0.5710   15.7000 C.3   1001  2371001     0.1816
     13  C22       35.9990    5.0810   19.9900 C.ar  1001  2371001     0.0189
     14  C24       34.8960    3.3750   21.2950 C.ar  1001  2371001     0.1553
     15  C26       36.1790    2.7330   19.3030 C.ar  1001  2371001     0.0036
     16  C1        34.1620    6.8810   21.6910 C.2   1001  2371001     0.2638
     17  O1        33.9650    7.2900   20.5640 O.2   1001  2371001    -0.2712
     18  C2        37.6740    7.9680   25.9050 C.ar  1001  2371001     0.0750
     19  C3        38.7110    8.4380   25.0700 C.ar  1001  2371001     0.0175
     20  C9        32.2960    7.7090   23.3060 C.3   1001  2371001     0.0606
     21  N2        34.4740    7.5870   24.1950 N.am  1001  2371001    -0.2532
     22  C11       33.5350    7.3030   25.2940 C.3   1001  2371001     0.1249
     23  C12       35.8100    7.8950   24.3220 C.2   1001  2371001     0.3279
     24  O2        36.4930    7.9670   23.3140 O.2   1001  2371001    -0.2504
     25 CL1        42.0540    7.4070   26.9290 Cl    1001  2371001    -0.0822
     26  O3        32.5320    5.4620   24.2280 O.3   1001  2371001    -0.3518
     27  C14       38.0140    1.3380   18.5610 C.ar  1001  2371001     0.0013
     28  C16       37.9240   -0.1390   16.6580 C.ar  1001  2371001     0.0013
     29  C18       35.9580    1.2040   17.2990 C.ar  1001  2371001     0.1057
     30  S1        34.2740    1.6430   16.9330 S.O2  1001  2371001     0.0104
     31  C19       31.4150    4.7000   23.8030 C.3   1001  2371001     0.1741
     32  O4        34.3020    2.9420   16.3260 O.2   1001  2371001    -0.1686
     33  O5        33.4530    1.4370   18.1030 O.2   1001  2371001    -0.1686
     34  C23       35.1940    4.7400   21.1040 C.ar  1001  2371001     0.1008
     35  C25       35.3850    2.3890   20.4240 C.ar  1001  2371001     0.0310
     36  C27       36.4690    4.0990   19.1030 C.ar  1001  2371001     0.0015
     37  F1        34.1350    2.9710   22.3250 F     1001  2371001    -0.2028
@<TRIPOS>BOND
     1    12    30    1
     2    32    30    2
     3    11    28   ar
     4    11    29   ar
     5    28    10   ar
     6    30    29    1
     7    30    33    2
     8    29     9   ar
     9    10    27   ar
    10     9    27   ar
    11     9    15    1
    12    36    15   ar
    13    36    13   ar
    14    15    35   ar
    15    13    34   ar
    16    35    14   ar
    17    17    16    2
    18    34    14   ar
    19    34     1    1
    20    14    37    1
    21    16     1   am
    22    16     8    1
    23     8    20    1
    24     8    21    1
    25    20     7    1
    26    24    23    2
    27    31    26    1
    28    21    23   am
    29    21    22    1
    30    26     7    1
    31    23     2   am
    32     7    22    1
    33    19     3   ar
    34    19    18   ar
    35     3     4   ar
    36     2    18    1
    37    18     6   ar
    38     4    25    1
    39     4     5   ar
    40     6     5   ar
