@<TRIPOS>MOLECULE
2pr5_FMN_A_1.pdb
 31 33 0 0 0
SMALL
GASTEIGER

@<TRIPOS>ATOM
      1  N1        24.7040   32.6780   15.8250 N.2   500  FMN500     -0.2887
      2  C2        24.3040   33.3600   14.6990 C.1   500  FMN500      0.3669
      3  O2        24.4760   34.5790   14.6420 O.2   500  FMN500     -0.1744
      4  N3        23.7180   32.6880   13.6410 N.2   500  FMN500     -0.2300
      5  C4        23.4850   31.3250   13.6660 C.1   500  FMN500      0.2513
      6  O4        22.9430   30.7660   12.6990 O.2   500  FMN500     -0.2057
      7  C4A       23.8750   30.6260   14.8110 C.2   500  FMN500      0.2706
      8  N5        23.6730   29.2650   14.8990 N.2   500  FMN500     -0.3841
      9  C5A       24.0490   28.5840   16.0510 C.2   500  FMN500      0.1452
     10  C6        23.8340   27.2150   16.1380 C.2   500  FMN500      0.0252
     11  C7        24.2010   26.4980   17.2800 C.2   500  FMN500     -0.0375
     12  C7M       23.8550   25.0260   17.3490 C.3   500  FMN500      0.0268
     13  C8        24.8190   27.1640   18.3420 C.3   500  FMN500      0.0417
     14  C8M       25.2120   26.4130   19.5850 C.3   500  FMN500      0.0091
     15  C9        25.0380   28.5480   18.2650 C.2   500  FMN500     -0.0049
     16  C9A       24.6610   29.2680   17.1160 C.2   500  FMN500      0.0795
     17  N10       24.8650   30.6400   17.0140 N.pl3 500  FMN500     -0.2545
     18  C10       24.4780   31.3230   15.8740 C.2   500  FMN500      0.2449
     19  C1'       25.2790   31.4290   18.2270 C.3   500  FMN500      0.1336
     20  C2'       26.7880   31.6510   18.3560 C.3   500  FMN500      0.2048
     21  O2'       27.4560   30.4440   18.0430 O.3   500  FMN500     -0.2185
     22  C3'       27.1820   32.1140   19.7720 C.3   500  FMN500      0.2165
     23  O3'       26.7100   31.1630   20.6940 O.3   500  FMN500     -0.2175
     24  C4'       26.6380   33.5040   20.1210 C.3   500  FMN500      0.2147
     25  O4'       27.1910   34.4540   19.2280 O.3   500  FMN500     -0.2176
     26  C5'       26.8310   33.9030   21.5840 C.3   500  FMN500      0.1892
     27  O5'       28.1530   33.6550   21.9810 O.3   500  FMN500     -0.2674
     28  P         29.3280   34.7380   21.9180 P.3   500  FMN500      0.5327
     29  O1P       29.5380   35.0350   20.4500 O.2   500  FMN500     -0.2224
     30  O2P       30.5480   34.0610   22.4860 O.3   500  FMN500     -0.1145
     31  O3P       28.9200   35.9920   22.6400 O.3   500  FMN500     -0.1145
@<TRIPOS>BOND
     1     6     5    2
     2     4     5    2
     3     4     2    2
     4     5     7    1
     5     3     2    2
     6     2     1    2
     7     7     8    2
     8     7    18    1
     9     8     9    2
    10     1    18    2
    11    18    17    1
    12     9    10    1
    13     9    16    1
    14    10    11    2
    15    17    16    1
    16    17    19    1
    17    16    15    2
    18    11    12    1
    19    11    13    1
    20    21    20    1
    21    19    20    1
    22    15    13    1
    23    13    14    1
    24    20    22    1
    25    25    24    1
    26    22    24    1
    27    22    23    1
    28    24    26    1
    29    29    28    2
    30    26    27    1
    31    28    27    1
    32    28    30    1
    33    28    31    1
