@<TRIPOS>MOLECULE
2pr6_FMN_A_1.pdb
 31 33 0 0 0
SMALL
GASTEIGER

@<TRIPOS>ATOM
      1  N1        25.1510   32.7030   15.5980 N.2   501  FMN501     -0.2937
      2  C2        24.8700   33.3660   14.4140 C.1   501  FMN501      0.3663
      3  O2        25.1370   34.5540   14.3200 O.2   501  FMN501     -0.1745
      4  N3        24.2900   32.7160   13.3350 N.2   501  FMN501     -0.2346
      5  C4        23.9320   31.3850   13.4030 C.1   501  FMN501      0.2239
      6  O4        23.4540   30.8120   12.3990 O.2   501  FMN501     -0.2109
      7  C4A       24.7620   30.5510   14.3670 C.3   501  FMN501      0.2881
      8  N5        23.8600   29.4690   14.7180 N.2   501  FMN501     -0.2495
      9  C5A       24.1320   28.7140   15.8610 C.2   501  FMN501      0.0730
     10  C6        23.7880   27.3360   15.9300 C.3   501  FMN501      0.0684
     11  C7        24.0490   26.6090   17.1330 C.2   501  FMN501     -0.0418
     12  C7M       23.6160   25.1580   17.2560 C.3   501  FMN501      0.0264
     13  C8        24.6570   27.2630   18.2150 C.2   501  FMN501     -0.0281
     14  C8M       24.8350   26.5860   19.5570 C.3   501  FMN501      0.0304
     15  C9        25.0120   28.6390   18.1180 C.2   501  FMN501      0.0112
     16  C9A       24.7330   29.3670   16.9380 C.2   501  FMN501      0.0667
     17  N10       25.0610   30.7110   16.8420 N.pl3 501  FMN501     -0.2591
     18  C10       24.8240   31.3800   15.6850 C.2   501  FMN501      0.2191
     19  C1'       25.3690   31.5210   18.0800 C.3   501  FMN501      0.1333
     20  C2'       26.8420   31.7760   18.3010 C.3   501  FMN501      0.2048
     21  O2'       27.5740   30.5990   18.0890 O.3   501  FMN501     -0.2185
     22  C3'       27.0590   32.2520   19.7470 C.3   501  FMN501      0.2165
     23  O3'       26.5300   31.2720   20.6380 O.3   501  FMN501     -0.2175
     24  C4'       26.4290   33.6290   19.9880 C.3   501  FMN501      0.2147
     25  O4'       27.1700   34.5850   19.2310 O.3   501  FMN501     -0.2176
     26  C5'       26.4640   34.0530   21.4670 C.3   501  FMN501      0.1892
     27  O5'       27.7610   33.8280   22.0110 O.3   501  FMN501     -0.2674
     28  P         28.9590   34.9080   21.9510 P.3   501  FMN501      0.5327
     29  O1P       29.2720   35.2610   20.4790 O.2   501  FMN501     -0.2224
     30  O2P       30.1770   34.3180   22.5610 O.3   501  FMN501     -0.1145
     31  O3P       28.5520   36.1780   22.6330 O.3   501  FMN501     -0.1145
@<TRIPOS>BOND
     1     6     5    2
     2     4     5    2
     3     4     2    2
     4     5     7    1
     5     3     2    2
     6     7     8    1
     7     7    18    1
     8     2     1    2
     9     8     9    2
    10     1    18    2
    11    18    17    1
    12     9    10    1
    13     9    16    1
    14    10    11    1
    15    17    16    1
    16    17    19    1
    17    16    15    2
    18    11    12    1
    19    11    13    2
    20    19    20    1
    21    21    20    1
    22    15    13    1
    23    13    14    1
    24    20    22    1
    25    25    24    1
    26    22    24    1
    27    22    23    1
    28    24    26    1
    29    29    28    2
    30    26    27    1
    31    28    27    1
    32    28    30    1
    33    28    31    1
