@<TRIPOS>MOLECULE
2prb_COA_A_1.pdb
 48 50 0 0 0
SMALL
GASTEIGER

@<TRIPOS>ATOM
      1  N1A       -3.2850   -1.7300  -13.9910 N.2   501  COA501      0.0021
      2  C2A       -3.5010   -1.2430  -12.7140 C.3   501  COA501      0.5254
      3  N3A       -2.6900   -0.2370  -12.2170 N.2   501  COA501     -0.0055
      4  C4A       -1.6820    0.2740  -12.9750 C.2   501  COA501      0.3518
      5  C5A       -1.4520   -0.2010  -14.2620 C.2   501  COA501      0.2526
      6  C6A       -2.2630   -1.2140  -14.7710 C.2   501  COA501      0.4393
      7  N6A       -2.1590   -1.5820  -16.0450 N.pl3 501  COA501      0.2180
      8  N7A       -0.4020    0.4820  -14.7730 N.2   501  COA501     -0.2095
      9  C8A        0.0320    1.3710  -13.8490 C.3   501  COA501      0.3377
     10  N9A       -0.7510    1.2520  -12.7290 N.pl3 501  COA501     -0.1439
     11  C1B       -0.7720    2.1290  -11.5410 C.3   501  COA501      0.3185
     12  C2B        0.5730    2.2450  -10.8420 C.3   501  COA501      0.2543
     13  O2B        0.7950    1.1460   -9.9910 O.3   501  COA501     -0.2131
     14  C3B        0.4240    3.5510  -10.0830 C.3   501  COA501      0.1928
     15  O3B       -0.1910    3.3360   -8.8320 O.3   501  COA501     -0.2673
     16  P3B        0.6190    3.0690   -7.4650 P.3   501  COA501      0.5327
     17  O7A        1.2540    4.3610   -7.0130 O.3   501  COA501     -0.1145
     18  O8A        1.6890    2.0230   -7.6740 O.2   501  COA501     -0.2224
     19  O9A       -0.3580    2.5850   -6.4190 O.3   501  COA501     -0.1145
     20  C4B       -0.5590    4.3530  -10.9280 C.3   501  COA501      0.1795
     21  O4B       -1.1430    3.4550  -11.8580 O.3   501  COA501     -0.3136
     22  C5B        0.1080    5.5000  -11.6730 C.3   501  COA501      0.1812
     23  O5B        0.2600    6.6210  -10.8300 O.3   501  COA501     -0.3112
     24  P1A        1.2020    7.8290  -11.3270 P.3   501  COA501      0.2189
     25  O1A        2.6490    7.4040  -11.2780 O.2   501  COA501     -0.5170
     26  O2A        0.9650    9.0920  -10.5320 O.3   501  COA501     -0.4371
     27  O3A        0.6990    8.0090  -12.8460 O.3   501  COA501     -0.2703
     28  P2A        1.5560    8.7570  -13.9800 P.3   501  COA501      0.2188
     29  O4A        2.6370    9.5980  -13.3470 O.3   501  COA501     -0.4371
     30  O5A        2.1190    7.7720  -14.9770 O.2   501  COA501     -0.5170
     31  O6A        0.4540    9.7040  -14.6730 O.3   501  COA501     -0.3138
     32  CBP       -0.9800    9.6060  -16.6290 C.3   501  COA501      0.0645
     33  CCP       -0.7560    9.1690  -15.1790 C.3   501  COA501      0.1519
     34  CDP       -2.3100    9.0160  -17.0980 C.3   501  COA501      0.0056
     35  CEP       -1.0800   11.1330  -16.6590 C.3   501  COA501      0.0056
     36  CAP        0.1920    9.1200  -17.5000 C.3   501  COA501      0.2312
     37  OAP        0.4590    7.7430  -17.3080 O.3   501  COA501     -0.2131
     38  C9P        0.0420    9.4410  -18.9660 C.2   501  COA501      0.2719
     39  O9P        0.3730   10.7250  -19.4290 O.2   501  COA501     -0.2706
     40  N8P       -0.4000    8.4730  -19.7720 N.am  501  COA501     -0.2028
     41  C7P       -0.4400    8.6040  -21.2220 C.3   501  COA501      0.1248
     42  C6P       -1.5880    9.4840  -21.7230 C.3   501  COA501      0.1102
     43  C5P       -2.8930    9.1660  -21.0210 C.2   501  COA501      0.2432
     44  O5P       -3.2240    7.9920  -20.7880 O.2   501  COA501     -0.2733
     45  N4P       -3.6490   10.2110  -20.6810 N.am  501  COA501     -0.2044
     46  C3P       -4.8480   10.0660  -19.8740 C.3   501  COA501      0.1276
     47  C2P       -6.0650    9.6830  -20.7070 C.3   501  COA501      0.0920
     48  S1P       -7.5730    9.5960  -19.7080 S.3   501  COA501     -0.0802
@<TRIPOS>BOND
     1    42    41    1
     2    42    43    1
     3    41    40    1
     4    43    44    2
     5    43    45   am
     6    47    46    1
     7    47    48    1
     8    45    46    1
     9    40    38   am
    10    39    38    2
    11    38    36    1
    12    36    37    1
    13    36    32    1
    14    34    32    1
    15    35    32    1
    16    32    33    1
    17     7     6    1
    18    33    31    1
    19    30    28    2
    20     8     5    2
    21     8     9    1
    22     6     5    1
    23     6     1    2
    24    31    28    1
    25     5     4    1
    26     1     2    1
    27    28    29    1
    28    28    27    1
    29     9    10    1
    30     4    10    1
    31     4     3    2
    32    27    24    1
    33    10    11    1
    34     2     3    1
    35    21    11    1
    36    21    20    1
    37    22    20    1
    38    22    23    1
    39    11    12    1
    40    24    25    2
    41    24    23    1
    42    24    26    1
    43    20    14    1
    44    12    14    1
    45    12    13    1
    46    14    15    1
    47    15    16    1
    48    18    16    2
    49    16    17    1
    50    16    19    1
