@<TRIPOS>MOLECULE
2prc_HEM_C_1.pdb
 43 50 0 0 0
SMALL
GASTEIGER

@<TRIPOS>ATOM
      1  CHA       79.4080    9.4130   17.9980 C.2   337  HEM337      0.0000
      2  CHB       75.7850   10.3560   14.9310 C.2   337  HEM337      0.0000
      3  CHC       78.5670   13.4150   12.4310 C.2   337  HEM337      0.0000
      4  CHD       82.3020   12.2330   15.3170 C.2   337  HEM337      0.0000
      5  C1A       78.1800    9.3630   17.3380 C.ar  337  HEM337      0.0000
      6  C2A       77.0570    8.5320   17.7210 C.ar  337  HEM337      0.0000
      7  C3A       76.0150    8.9030   16.9580 C.ar  337  HEM337      0.0000
      8  C4A       76.5270    9.8210   15.9680 C.ar  337  HEM337      0.0000
      9  CMA       74.5930    8.3540   17.1430 C.3   337  HEM337      0.0000
     10  CAA       76.9320    7.3920   18.7030 C.3   337  HEM337      0.0000
     11  CBA       77.1960    6.0430   18.0620 C.3   337  HEM337      0.0000
     12  CGA       77.8660    5.1000   19.0170 C.2   337  HEM337      0.0000
     13  O1A       79.0850    5.2710   19.2450 O.co2 337  HEM337      0.0000
     14  O2A       77.1760    4.2250   19.5870 O.co2 337  HEM337      0.0000
     15  C1B       76.2450   11.2470   13.9640 C.2   337  HEM337      0.0000
     16  C2B       75.4330   11.7930   12.9070 C.2   337  HEM337      0.0000
     17  C3B       76.1540   12.7690   12.3220 C.2   337  HEM337      0.0000
     18  C4B       77.4850   12.6840   12.8560 C.2   337  HEM337      0.0000
     19  CMB       74.0060   11.3370   12.6120 C.3   337  HEM337      0.0000
     20  CAB       75.8480   13.8450   11.3490 C.3   337  HEM337      0.0000
     21  CBB       74.6090   14.6110   11.7900 C.3   337  HEM337      0.0000
     22  C1C       79.8350   13.3400   12.9850 C.ar  337  HEM337      0.0000
     23  C2C       80.9980   13.9980   12.4540 C.ar  337  HEM337      0.0000
     24  C3C       82.0620   13.5350   13.1540 C.ar  337  HEM337      0.0000
     25  C4C       81.5410   12.7440   14.2520 C.ar  337  HEM337      0.0000
     26  CMC       80.9290   14.9760   11.2580 C.3   337  HEM337      0.0000
     27  CAC       83.5710   13.7130   13.0130 C.3   337  HEM337      0.0000
     28  CBC       83.9690   15.2020   13.0760 C.3   337  HEM337      0.0000
     29  C1D       81.8390   11.4100   16.3510 C.2   337  HEM337      0.0000
     30  C2D       82.6140   10.9620   17.5030 C.2   337  HEM337      0.0000
     31  C3D       81.7710   10.2400   18.2910 C.2   337  HEM337      0.0000
     32  C4D       80.5100   10.1630   17.5910 C.2   337  HEM337      0.0000
     33  CMD       84.0970   11.2510   17.8040 C.3   337  HEM337      0.0000
     34  CAD       81.9990    9.6480   19.6650 C.3   337  HEM337      0.0000
     35  CBD       81.8940   10.8080   20.6090 C.3   337  HEM337      0.0000
     36  CGD       82.2620   10.4680   22.0350 C.2   337  HEM337      0.0000
     37  O1D       81.6010   11.0080   22.9520 O.co2 337  HEM337      0.0000
     38  O2D       83.2260    9.6960   22.2510 O.co2 337  HEM337      0.0000
     39  NA        77.8620   10.0790   16.2030 N.ar  337  HEM337      0.0000
     40  NB        77.5220   11.7690   13.8810 N.2   337  HEM337      0.0000
     41  NC        80.1910   12.5490   14.0570 N.ar  337  HEM337      0.0000
     42  ND        80.5430   10.9480   16.4510 N.2   337  HEM337      0.0000
     43 FE         79.0410   11.3590   15.1180 Fe    337  HEM337      0.0000
@<TRIPOS>BOND
     1    26    23    1
     2    20    21    1
     3    20    17    1
     4    17    18    1
     5    17    16    2
     6     3    18    2
     7     3    22    1
     8    23    22   ar
     9    23    24   ar
    10    19    16    1
    11    18    40    1
    12    16    15    1
    13    22    41   ar
    14    27    28    1
    15    27    24    1
    16    24    25   ar
    17    40    15    2
    18    40    43    1
    19    15     2    1
    20    41    25   ar
    21    41    43    1
    22    25     4    1
    23     2     8    2
    24    43    39    1
    25    43    42    1
    26     4    29    2
    27     8    39   ar
    28     8     7   ar
    29    39     5   ar
    30    29    42    1
    31    29    30    1
    32    42    32    2
    33     7     9    1
    34     7     6   ar
    35     5     6   ar
    36     5     1    2
    37    30    33    1
    38    30    31    2
    39    32     1    1
    40    32    31    1
    41     6    10    1
    42    11    10    1
    43    11    12    1
    44    31    34    1
    45    12    13   ar
    46    12    14   ar
    47    34    35    1
    48    35    36    1
    49    36    38   ar
    50    36    37   ar
