@<TRIPOS>MOLECULE
2prc_NS5_M_1.pdb
 40 39 0 0 0
SMALL
GASTEIGER

@<TRIPOS>ATOM
      1  C1       128.3090   50.5180   -7.6940 C.3   600  NS5600      0.0000
      2  CM1      128.1840   50.6950   -9.1980 C.3   600  NS5600      0.0000
      3  CM2      127.9400   51.8040   -6.9680 C.3   600  NS5600      0.0000
      4  C2       127.4410   49.3520   -7.2130 C.3   600  NS5600      0.0000
      5  C3       127.6840   48.9500   -5.7680 C.3   600  NS5600      0.0000
      6  C4       126.5520   48.0770   -5.2450 C.3   600  NS5600      0.0000
      7  C5       126.6960   47.7050   -3.8060 C.3   600  NS5600      0.0000
      8  C6       127.4830   48.6570   -2.9610 C.3   600  NS5600      0.0000
      9  C7       125.9110   46.7550   -3.2700 C.3   600  NS5600      0.0003
     10  C8       126.0300   46.2710   -1.8770 C.3   600  NS5600      0.0043
     11  C9       124.8470   45.3760   -1.4670 C.3   600  NS5600      0.0220
     12  C10      124.2250   45.8170   -0.1440 C.2   600  NS5600     -0.0439
     13  C11      123.1080   46.8020   -0.2970 C.3   600  NS5600      0.0264
     14  C12      124.8760   45.5880    1.0330 C.2   600  NS5600     -0.0088
     15  C13      124.5500   46.0740    2.3790 C.2   600  NS5600     -0.0049
     16  C14      124.6300   47.3530    2.7840 C.2   600  NS5600     -0.0221
     17  C15      124.3100   47.8250    4.0900 C.3   600  NS5600      0.0437
     18  C16      123.1130   48.7110    4.0970 C.3   600  NS5600      0.0094
     19  C17      125.1550   47.6670    5.1440 C.2   600  NS5600     -0.0263
     20  C18      125.1230   48.4170    6.3890 C.2   600  NS5600     -0.0257
     21  C19      125.7300   48.2180    7.5820 C.3   600  NS5600      0.0513
     22  C20      126.8790   47.3820    7.9290 C.2   600  NS5600     -0.0257
     23  C21      127.6970   47.5980    9.0110 C.2   600  NS5600     -0.0258
     24  C22      127.6950   48.8670    9.8080 C.3   600  NS5600      0.0307
     25  C23      128.6480   46.5560    9.4940 C.2   600  NS5600     -0.0046
     26  C24      129.7920   46.7930   10.1700 C.2   600  NS5600     -0.0007
     27  C25      130.7410   45.7810   10.6060 C.2   600  NS5600     -0.0043
     28  C26      132.0850   45.8720   10.7520 C.2   600  NS5600     -0.0218
     29  C27      132.8830   47.0690   10.3290 C.3   600  NS5600      0.0310
     30  C28      132.8550   44.7130   11.2860 C.2   600  NS5600     -0.0043
     31  C29      134.2030   44.6350   11.3430 C.2   600  NS5600     -0.0010
     32  C30      134.9960   43.5760   12.0100 C.2   600  NS5600     -0.0085
     33  C31      136.3070   43.5810   12.3870 C.2   600  NS5600     -0.0439
     34  C32      137.2070   44.7550   12.2130 C.3   600  NS5600      0.0264
     35  C33      136.8270   42.5100   13.3350 C.3   600  NS5600      0.0220
     36  C34      138.2090   42.0140   12.9330 C.3   600  NS5600      0.0043
     37  C35      138.6230   40.8230   13.7200 C.3   600  NS5600      0.0003
     38  C36      138.4560   39.5490   13.3180 C.3   600  NS5600      0.0000
     39  CM3      138.2530   39.1860   11.8880 C.3   600  NS5600      0.0000
     40  CM4      138.7960   38.4030   14.1960 C.3   600  NS5600      0.0000
@<TRIPOS>BOND
     1     2     1    1
     2     1     4    1
     3     1     3    1
     4     4     5    1
     5     5     6    1
     6     6     7    1
     7     7     9    1
     8     7     8    1
     9     9    10    1
    10    10    11    1
    11    11    12    1
    12    13    12    1
    13    12    14    2
    14    14    15    1
    15    15    16    2
    16    16    17    1
    17    17    18    1
    18    17    19    1
    19    19    20    2
    20    20    21    1
    21    21    22    1
    22    22    23    2
    23    23    25    1
    24    23    24    1
    25    25    26    2
    26    26    27    1
    27    29    28    1
    28    27    28    2
    29    28    30    1
    30    30    31    2
    31    31    32    1
    32    39    38    1
    33    32    33    2
    34    34    33    1
    35    33    35    1
    36    36    35    1
    37    36    37    1
    38    38    37    1
    39    38    40    1
