@<TRIPOS>MOLECULE
2prc_MQ7_M_1.pdb
 48 49 0 0 0
SMALL
GASTEIGER

@<TRIPOS>ATOM
      1  C1       125.4610   82.3040    7.7920 C.2   501  MQ7501      0.1915
      2  O1       125.4760   81.6180    6.7920 O.2   501  MQ7501     -0.2869
      3  C2       124.6220   81.9590    8.9190 C.2   501  MQ7501      0.0165
      4  C2M      123.6420   80.8060    8.7320 C.3   501  MQ7501      0.0342
      5  C3       124.6520   82.7080   10.0600 C.2   501  MQ7501      0.0202
      6  C4       125.5040   83.8770   10.1190 C.2   501  MQ7501      0.1918
      7  O4       125.4950   84.5790   11.1350 O.2   501  MQ7501     -0.2869
      8  C5       126.3320   84.2240    8.9810 C.ar  501  MQ7501      0.0417
      9  C6       127.1990   85.3000    9.0430 C.ar  501  MQ7501      0.0033
     10  C7       128.0430   85.5720    7.9860 C.ar  501  MQ7501      0.0001
     11  C8       128.0170   84.7750    6.8650 C.ar  501  MQ7501      0.0001
     12  C9       127.1560   83.7290    6.8060 C.ar  501  MQ7501      0.0033
     13  C10      126.3120   83.4580    7.8670 C.ar  501  MQ7501      0.0417
     14  C11      123.8370   82.2750   11.2860 C.3   501  MQ7501      0.0547
     15  C12      124.5940   81.3970   12.1800 C.2   501  MQ7501     -0.0298
     16  C13      125.1610   81.5640   13.4260 C.2   501  MQ7501     -0.0475
     17  C14      125.1020   82.8340   14.1920 C.3   501  MQ7501      0.0260
     18  C15      125.8770   80.4190   14.0950 C.3   501  MQ7501      0.0264
     19  C16      125.0580   79.8710   15.2550 C.3   501  MQ7501      0.0297
     20  C17      123.7030   79.5640   14.8960 C.2   501  MQ7501     -0.0342
     21  C18      123.0010   78.3880   15.1380 C.2   501  MQ7501     -0.0478
     22  C19      123.5420   77.1760   15.8840 C.3   501  MQ7501      0.0260
     23  C20      121.5770   78.2000   14.7160 C.3   501  MQ7501      0.0263
     24  C21      120.6690   78.1510   15.9350 C.3   501  MQ7501      0.0297
     25  C22      120.4680   79.4370   16.5140 C.2   501  MQ7501     -0.0342
     26  C23      120.1220   79.7040   17.8190 C.2   501  MQ7501     -0.0478
     27  C24      119.8790   78.6550   18.8670 C.3   501  MQ7501      0.0260
     28  C25      119.9390   81.0730   18.3290 C.3   501  MQ7501      0.0263
     29  C26      118.4600   81.1620   18.5220 C.3   501  MQ7501      0.0297
     30  C27      118.0910   82.4730   18.9190 C.2   501  MQ7501     -0.0342
     31  C28      116.8720   83.1220   18.7710 C.2   501  MQ7501     -0.0478
     32  C29      115.6330   82.5820   18.0630 C.3   501  MQ7501      0.0260
     33  C30      116.6490   84.5470   19.2800 C.3   501  MQ7501      0.0263
     34  C31      115.5540   84.6440   20.3060 C.3   501  MQ7501      0.0297
     35  C32      115.3900   86.0800   20.5770 C.2   501  MQ7501     -0.0342
     36  C33      114.2310   86.8530   20.7280 C.2   501  MQ7501     -0.0478
     37  C34      112.8050   86.2410   20.6350 C.3   501  MQ7501      0.0260
     38  C35      114.1980   88.3780   20.9970 C.3   501  MQ7501      0.0263
     39  C36      113.5610   89.0410   19.7910 C.3   501  MQ7501      0.0297
     40  C37      113.4980   90.4630   19.8830 C.2   501  MQ7501     -0.0342
     41  C38      112.5940   91.2360   19.1670 C.2   501  MQ7501     -0.0478
     42  C39      111.5620   90.6200   18.1970 C.3   501  MQ7501      0.0260
     43  C40      112.4980   92.7610   19.2390 C.3   501  MQ7501      0.0263
     44  C41      111.8940   93.3400   20.5160 C.3   501  MQ7501      0.0297
     45  C42      112.9470   93.1730   21.4480 C.2   501  MQ7501     -0.0342
     46  C43      113.1300   92.6970   22.7440 C.2   501  MQ7501     -0.0478
     47  C44      112.0540   92.1470   23.7120 C.3   501  MQ7501      0.0260
     48  C45      114.5530   92.6840   23.3800 C.3   501  MQ7501      0.0260
@<TRIPOS>BOND
     1     2     1    2
     2    12    11   ar
     3    12    13   ar
     4    11    10   ar
     5     1    13    1
     6     1     3    1
     7    13     8   ar
     8    10     9   ar
     9     4     3    1
    10     3     5    2
    11     8     9   ar
    12     8     6    1
    13     5     6    1
    14     5    14    1
    15     6     7    2
    16    14    15    1
    17    15    16    2
    18    16    18    1
    19    16    17    1
    20    18    19    1
    21    23    21    1
    22    23    24    1
    23    20    21    2
    24    20    19    1
    25    21    22    1
    26    24    25    1
    27    25    26    2
    28    26    28    1
    29    26    27    1
    30    32    31    1
    31    42    41    1
    32    28    29    1
    33    29    30    1
    34    31    30    2
    35    31    33    1
    36    41    43    1
    37    41    40    2
    38    43    44    1
    39    33    34    1
    40    39    40    1
    41    39    38    1
    42    34    35    1
    43    44    45    1
    44    35    36    2
    45    37    36    1
    46    36    38    1
    47    45    46    2
    48    46    48    1
    49    46    47    1
