@<TRIPOS>MOLECULE
2prc_UQ2_L_1.pdb
 23 23 0 0 0
SMALL
GASTEIGER

@<TRIPOS>ATOM
      1  C1       132.2990   71.7410   -4.0490 C.2   502  UQ2502      0.2135
      2  C2       132.4410   73.0970   -3.5140 C.2   502  UQ2502      0.2103
      3  C3       132.2890   73.3220   -2.1850 C.2   502  UQ2502      0.2134
      4  C4       131.9820   72.1980   -1.2850 C.2   502  UQ2502      0.2249
      5  C5       131.8730   70.8390   -1.8370 C.2   502  UQ2502      0.0056
      6  C6       132.0310   70.6180   -3.1700 C.3   502  UQ2502      0.0909
      7  CM2      134.0490   73.8540   -5.1000 C.3   502  UQ2502      0.2528
      8  CM3      132.8030   75.7790   -2.2130 C.3   502  UQ2502      0.2528
      9  CM5      131.6130   69.6840   -0.8390 C.3   502  UQ2502      0.0302
     10  C7       132.0100   69.2240   -3.7210 C.3   502  UQ2502      0.0373
     11  C8       130.8070   68.8690   -4.1220 C.2   502  UQ2502     -0.0338
     12  C9       130.5060   67.5920   -4.5150 C.2   502  UQ2502     -0.0478
     13  C10      131.5550   66.5040   -4.6090 C.3   502  UQ2502      0.0260
     14  C11      129.0700   67.2770   -4.9080 C.3   502  UQ2502      0.0263
     15  C12      128.6100   65.8520   -4.6410 C.3   502  UQ2502      0.0297
     16  C13      127.5660   65.6990   -3.5850 C.2   502  UQ2502     -0.0342
     17  C14      127.4720   65.7850   -2.1930 C.2   502  UQ2502     -0.0478
     18  C15      128.6610   66.1290   -1.2850 C.3   502  UQ2502      0.0260
     19  C16      126.1510   65.5500   -1.3880 C.3   502  UQ2502      0.0260
     20  O1       132.3520   71.5380   -5.2920 O.2   502  UQ2502     -0.2877
     21  O2       132.8180   74.0570   -4.4220 O.2   502  UQ2502     -0.4654
     22  O3       132.4600   74.5820   -1.6190 O.2   502  UQ2502     -0.4652
     23  O4       131.7660   72.3990   -0.0250 O.2   502  UQ2502     -0.2839
@<TRIPOS>BOND
     1    20     1    2
     2     7    21    1
     3    14    15    1
     4    14    12    1
     5    15    16    1
     6    13    12    1
     7    12    11    2
     8    21     2    1
     9    11    10    1
    10     1     2    1
    11     1     6    1
    12    10     6    1
    13    16    17    2
    14     2     3    2
    15     6     5    1
    16     8    22    1
    17    17    19    1
    18    17    18    1
    19     3    22    1
    20     3     4    1
    21     5     4    2
    22     5     9    1
    23     4    23    1
