@<TRIPOS>MOLECULE
2pre_E64_A_1.pdb
 25 24 0 0 0
SMALL
GASTEIGER

@<TRIPOS>ATOM
      1  C1        16.8060   26.6230   12.0630 C.2   302  E64302      0.3680
      2  O1        17.4930   27.6640   12.4120 O.co2 302  E64302     -0.2455
      3  O2        17.1130   25.4960   12.4390 O.co2 302  E64302     -0.2455
      4  C2        15.6140   26.8210   11.1760 C.3   302  E64302      0.1564
      5  C3        15.3140   25.5940   10.3210 C.3   302  E64302      0.2403
      6  O3        16.2680   24.7250    9.7030 O.3   302  E64302     -0.2126
      7  C4        13.8810   25.6050    9.8470 C.2   302  E64302      0.2728
      8  O4        12.9610   25.2760   10.5930 O.2   302  E64302     -0.2706
      9  N1        13.6900   26.0030    8.6000 N.am  302  E64302     -0.1956
     10  C6        12.4510   26.6520    8.2290 C.3   302  E64302      0.1728
     11  C7        12.6680   28.1520    8.0500 C.3   302  E64302      0.0311
     12  C8        11.5810   29.0720    8.6150 C.3   302  E64302      0.0022
     13  C9        10.5120   29.2880    7.5630 C.3   302  E64302      0.0001
     14  C10       10.9800   28.4700    9.8770 C.3   302  E64302      0.0001
     15  C11       11.9260   26.0530    6.9490 C.2   302  E64302      0.2612
     16  O5        11.0370   26.6150    6.3170 O.2   302  E64302     -0.2715
     17  N2        12.4790   24.9040    6.5700 N.am  302  E64302     -0.2040
     18  C12       11.8390   23.9430    5.6730 C.3   302  E64302      0.1153
     19  C13       11.7730   22.5430    6.2700 C.3   302  E64302      0.0271
     20  C14       10.8550   21.6420    5.4510 C.3   302  E64302      0.0487
     21  C15       10.5820   20.3190    6.1540 C.3   302  E64302      0.2205
     22  N3        10.7940   19.1770    5.2690 N.pl3 302  E64302     -0.0865
     23  C16        9.8640   18.6710    4.4640 C.cat 302  E64302      0.5346
     24  N4         9.2820   17.5230    4.7940 N.pl3 302  E64302      0.1354
     25  N5         9.4990   19.2770    3.3360 N.pl3 302  E64302      0.1354
@<TRIPOS>BOND
     1    25    23    1
     2    23    24    1
     3    23    22    2
     4    22    21    1
     5    20    21    1
     6    20    19    1
     7    18    19    1
     8    18    17    1
     9    16    15    2
    10    17    15   am
    11    15    10    1
    12    13    12    1
    13    11    10    1
    14    11    12    1
    15    10     9    1
    16     9     7   am
    17    12    14    1
    18     6     5    1
    19     7     5    1
    20     7     8    2
    21     5     4    1
    22     4     1    1
    23     1     2   ar
    24     1     3   ar
