@<TRIPOS>MOLECULE
2prg_BRL_A_1.pdb
 25 27 0 0 0
SMALL
GASTEIGER

@<TRIPOS>ATOM
      1  S1        52.9760  -36.0350   21.8510 S.3     1  BRL1        0.0093
      2  O2        55.0240  -35.8750   23.5610 O.2     1  BRL1       -0.2017
      3  O4        55.2870  -33.7310   19.6440 O.2     1  BRL1       -0.2125
      4  O13       47.1400  -36.1210   18.3160 O.3     1  BRL1       -0.4736
      5  N3        55.3240  -34.7160   21.6920 N.2     1  BRL1       -0.2557
      6  N16       46.1500  -38.6850   17.0350 N.pl3   1  BRL1       -0.2879
      7  N18       47.3640  -40.9920   16.9650 N.ar    1  BRL1       -0.2292
      8  C2        54.6030  -35.5160   22.4620 C.1     1  BRL1        0.2450
      9  C4        54.7320  -34.3990   20.5320 C.1     1  BRL1        0.2022
     10  C5        53.3170  -34.9730   20.3740 C.3     1  BRL1        0.1865
     11  C6        52.1840  -33.8970   20.0940 C.3     1  BRL1        0.0562
     12  C7        50.8300  -34.3830   19.6160 C.ar    1  BRL1       -0.0199
     13  C8        50.5740  -34.7610   18.2310 C.ar    1  BRL1       -0.0011
     14  C9        49.3120  -35.3250   17.8760 C.ar    1  BRL1        0.0366
     15  C10       48.2790  -35.5120   18.8700 C.ar    1  BRL1        0.1386
     16  C11       48.5230  -35.0510   20.2400 C.ar    1  BRL1        0.0366
     17  C12       49.7880  -34.4950   20.6110 C.ar    1  BRL1       -0.0011
     18  C14       45.9890  -36.8120   18.9200 C.3     1  BRL1        0.2267
     19  C15       45.3650  -37.5740   17.7320 C.3     1  BRL1        0.1396
     20  C16       46.4180  -38.2460   15.5880 C.3     1  BRL1        0.1137
     21  C17       46.5170  -40.1170   17.6320 C.ar    1  BRL1        0.1318
     22  C19       47.7350  -42.2140   17.4320 C.ar    1  BRL1        0.1003
     23  C20       47.2430  -42.6970   18.7040 C.ar    1  BRL1        0.0208
     24  C21       46.3570  -41.8640   19.4600 C.ar    1  BRL1        0.0045
     25  C22       45.9890  -40.5800   18.9330 C.ar    1  BRL1        0.0343
@<TRIPOS>BOND
     1    20     6    1
     2     7    22   ar
     3     7    21   ar
     4     6    21    1
     5     6    19    1
     6    22    23   ar
     7    21    25   ar
     8    19    18    1
     9    14    13   ar
    10    14    15   ar
    11    13    12   ar
    12     4    15    1
    13     4    18    1
    14    23    24   ar
    15    15    16   ar
    16    25    24   ar
    17    12    11    1
    18    12    17   ar
    19     3     9    2
    20    11    10    1
    21    16    17   ar
    22    10     9    1
    23    10     1    1
    24     9     5    2
    25     5     8    2
    26     1     8    1
    27     8     2    2
