@<TRIPOS>MOLECULE
2prh_238_A_1.pdb
 28 31 0 0 0
SMALL
GASTEIGER

@<TRIPOS>ATOM
      1  F1        54.4340   48.0210   -3.2080 F     400  238400     -0.2042
      2  C19       54.9160   47.8690   -1.9460 C.ar  400  238400      0.1401
      3  C22       55.9660   48.6640   -1.4480 C.ar  400  238400      0.0296
      4  C21       56.3970   48.5680   -0.1080 C.ar  400  238400      0.0023
      5  C20       55.9750   47.4370    0.6770 C.ar  400  238400      0.0001
      6  C18       54.8460   46.6430    0.2590 C.ar  400  238400      0.0022
      7  C17       54.3420   46.8360   -1.0740 C.ar  400  238400      0.0275
      8  C16       53.2620   45.8530   -1.4710 C.ar  400  238400      0.0022
      9  C12       53.5620   45.0500   -2.6080 C.ar  400  238400      0.0001
     10  C13       52.0230   45.6590   -0.6880 C.ar  400  238400      0.0001
     11  C9        51.1290   44.6550   -1.1350 C.ar  400  238400      0.0022
     12  C23       51.4650   43.8900   -2.2910 C.ar  400  238400      0.0257
     13  C8        52.7070   44.0640   -3.0610 C.ar  400  238400      0.0022
     14  C3        50.5430   42.8270   -2.7550 C.2   400  238400      0.1128
     15  N1        50.2120   42.0480   -1.6180 N.2   400  238400     -0.4059
     16  C7        49.3740   40.9660   -1.6760 C.ar  400  238400      0.1309
     17  C11       49.0920   40.2560   -0.4490 C.ar  400  238400      0.0329
     18  C15       48.2240   39.1200   -0.4820 C.ar  400  238400      0.0140
     19  C14       47.6550   38.7200   -1.7560 C.ar  400  238400      0.0578
     20 CL1        46.5990   37.3740   -1.8630 Cl    400  238400     -0.0822
     21  C10       47.9420   39.4230   -2.9380 C.ar  400  238400      0.0138
     22  C6        48.8160   40.5770   -2.9070 C.ar  400  238400      0.0332
     23  C4        49.1660   41.3560   -4.0990 C.2   400  238400      0.0663
     24  C5        48.6220   40.9270   -5.4340 C.2   400  238400      0.3843
     25  O2        49.3590   40.3300   -6.1810 O.co2 400  238400     -0.2409
     26  O1        47.3990   41.2040   -5.7900 O.co2 400  238400     -0.2409
     27  C2        50.0460   42.5120   -4.0470 C.3   400  238400      0.0812
     28  C1        50.3890   43.2750   -5.2070 C.3   400  238400      0.0124
@<TRIPOS>BOND
     1    25    24   ar
     2    26    24   ar
     3    24    23    1
     4    28    27    1
     5    23    27    1
     6    23    22    2
     7    27    14    1
     8     1     2    1
     9    13     9   ar
    10    13    12   ar
    11    21    22   ar
    12    21    19   ar
    13    22    16   ar
    14    14    12    1
    15    14    15    2
    16     9     8   ar
    17    12    11   ar
    18     2     3   ar
    19     2     7   ar
    20    20    19    1
    21    19    18   ar
    22    16    15    2
    23    16    17   ar
    24     8     7    1
    25     8    10   ar
    26     3     4   ar
    27    11    10   ar
    28     7     6   ar
    29    18    17   ar
    30     4     5   ar
    31     6     5   ar
