@<TRIPOS>MOLECULE
2prh_FMN_A_1.pdb
 31 33 0 0 0
SMALL
GASTEIGER

@<TRIPOS>ATOM
      1  N1        41.8020   36.2140    8.6130 N.2   398  FMN398     -0.2890
      2  C2        42.1710   35.5160    9.7410 C.1   398  FMN398      0.3669
      3  O2        41.5360   35.6940   10.7940 O.2   398  FMN398     -0.1744
      4  N3        43.2460   34.6360    9.6750 N.2   398  FMN398     -0.2300
      5  C4        43.9490   34.4510    8.4980 C.1   398  FMN398      0.2513
      6  O4        45.0630   33.9120    8.5450 O.2   398  FMN398     -0.2057
      7  C4A       43.5650   35.1570    7.3470 C.2   398  FMN398      0.2700
      8  N5        44.2450   35.0090    6.1440 N.2   398  FMN398     -0.3878
      9  C5A       43.8460   35.7220    5.0220 C.2   398  FMN398      0.1320
     10  C6        44.5270   35.5630    3.8230 C.2   398  FMN398      0.0250
     11  C7        44.1480   36.2960    2.6960 C.2   398  FMN398     -0.0238
     12  C7M       45.1260   36.3610    1.5420 C.3   398  FMN398      0.0308
     13  C8        43.0550   37.1890    2.7640 C.2   398  FMN398     -0.0280
     14  C8M       42.7960   38.1980    1.6700 C.3   398  FMN398      0.0304
     15  C9        42.3700   37.3440    3.9640 C.2   398  FMN398     -0.0041
     16  C9A       42.7600   36.6150    5.0980 C.3   398  FMN398      0.1497
     17  N10       42.0860   36.7620    6.3090 N.pl3 398  FMN398     -0.2691
     18  C10       42.4880   36.0430    7.4250 C.2   398  FMN398      0.2416
     19  C1'       40.8210   37.5650    6.4320 C.3   398  FMN398      0.1294
     20  C2'       41.1260   39.0400    6.6970 C.3   398  FMN398      0.2044
     21  O2'       41.7960   39.2130    7.9310 O.3   398  FMN398     -0.2185
     22  C3'       39.8340   39.8570    6.7100 C.3   398  FMN398      0.2164
     23  O3'       39.0070   39.3830    7.7620 O.3   398  FMN398     -0.2175
     24  C4'       39.1110   39.7900    5.3560 C.3   398  FMN398      0.2147
     25  O4'       40.0330   39.6770    4.2820 O.3   398  FMN398     -0.2176
     26  C5'       38.2270   41.0090    5.1370 C.3   398  FMN398      0.1892
     27  O5'       39.0170   42.1740    5.0840 O.3   398  FMN398     -0.2674
     28  P         39.4260   42.8500    3.6880 P.3   398  FMN398      0.5327
     29  O1P       40.4790   41.9850    3.0210 O.3   398  FMN398     -0.1145
     30  O2P       39.9420   44.2360    3.9910 O.3   398  FMN398     -0.1145
     31  O3P       38.2330   42.8990    2.7530 O.2   398  FMN398     -0.2224
@<TRIPOS>BOND
     1    12    11    1
     2    14    13    1
     3    11    13    1
     4    11    10    2
     5    31    28    2
     6    13    15    2
     7    29    28    1
     8    28    30    1
     9    28    27    1
    10    10     9    1
    11    15    16    1
    12    25    24    1
    13     9    16    1
    14     9     8    2
    15    27    26    1
    16    16    17    1
    17    26    24    1
    18    24    22    1
    19     8     7    2
    20    17    19    1
    21    17    18    1
    22    19    20    1
    23    20    22    1
    24    20    21    1
    25    22    23    1
    26     7    18    1
    27     7     5    1
    28    18     1    2
    29     5     6    2
    30     5     4    2
    31     1     2    2
    32     4     2    2
    33     2     3    2
