@<TRIPOS>MOLECULE
2pri_PLP_A_1.pdb
 15 15 0 0 0
SMALL
GASTEIGER

@<TRIPOS>ATOM
      1  N1        24.7550   25.5840   30.3860 N.ar  999  PLP999     -0.2452
      2  C2        23.6570   24.8320   30.6390 C.ar  999  PLP999      0.0978
      3  C2A       22.5950   25.4340   31.5320 C.3   999  PLP999      0.0555
      4  C3        23.4430   23.6630   29.9280 C.ar  999  PLP999      0.2049
      5  O3        22.2880   22.9030   30.1350 O.3   999  PLP999     -0.2857
      6  C4        24.3540   23.2890   28.9420 C.ar  999  PLP999      0.0182
      7  C4A       24.0850   21.9840   28.1080 C.3   999  PLP999      0.0342
      8  C5        25.4830   24.1020   28.6960 C.ar  999  PLP999      0.0261
      9  C6        25.6590   25.2200   29.4220 C.ar  999  PLP999      0.0965
     10  C5A       26.4920   23.8510   27.5600 C.3   999  PLP999      0.1815
     11  O4P       26.1250   24.5760   26.4010 O.3   999  PLP999     -0.2653
     12  P         27.0900   24.7360   25.1160 P.3   999  PLP999      0.5329
     13  O1P       26.2460   25.3570   24.0870 O.2   999  PLP999     -0.2224
     14  O2P       28.1680   25.7950   25.6640 O.3   999  PLP999     -0.1145
     15  O3P       27.8250   23.4620   24.8260 O.3   999  PLP999     -0.1145
@<TRIPOS>BOND
     1    13    12    2
     2    15    12    1
     3    12    14    1
     4    12    11    1
     5    11    10    1
     6    10     8    1
     7     7     6    1
     8     8     6   ar
     9     8     9   ar
    10     6     4   ar
    11     9     1   ar
    12     4     5    1
    13     4     2   ar
    14     1     2   ar
    15     2     3    1
