@<TRIPOS>MOLECULE
2pri_D6G_A_1.pdb
 15 15 0 0 0
SMALL
GASTEIGER

@<TRIPOS>ATOM
      1  C1        25.0610    5.5700   50.7420 C.3   930  D6G930      0.2716
      2  C2        23.8000    4.6460   50.9740 C.3   930  D6G930      0.0999
      3  C3        24.0260    3.6410   52.1390 C.3   930  D6G930      0.1898
      4  C4        25.3430    2.8390   51.9490 C.3   930  D6G930      0.2117
      5  C5        26.5730    3.8370   51.7010 C.3   930  D6G930      0.1806
      6  C6        27.8140    3.0880   51.2980 C.3   930  D6G930      0.1859
      7  O1        25.2540    6.5610   51.7570 O.3   930  D6G930     -0.1898
      8  O3        22.9590    2.7130   52.2730 O.3   930  D6G930     -0.2201
      9  O4        25.5400    2.0550   53.1290 O.3   930  D6G930     -0.2177
     10  O5        26.2690    4.7480   50.6160 O.3   930  D6G930     -0.3256
     11  O6        28.9460    3.9110   51.4130 O.3   930  D6G930     -0.2675
     12  P         30.4890    3.3820   51.3260 P.3   930  D6G930      0.5327
     13  O1P       30.6510    2.4330   52.4850 O.3   930  D6G930     -0.1145
     14  O2P       31.4090    4.5450   51.5030 O.3   930  D6G930     -0.1145
     15  O3P       30.5510    2.8050   49.9090 O.2   930  D6G930     -0.2224
@<TRIPOS>BOND
     1    15    12    2
     2    10     1    1
     3    10     5    1
     4     1     2    1
     5     1     7    1
     6     2     3    1
     7     6    11    1
     8     6     5    1
     9    12    11    1
    10    12    14    1
    11    12    13    1
    12     5     4    1
    13     4     3    1
    14     4     9    1
    15     3     8    1
