@<TRIPOS>MOLECULE
2prj_PLP_A_1.pdb
 15 15 0 0 0
SMALL
GASTEIGER

@<TRIPOS>ATOM
      1  N1        24.6010   25.7030   30.2470 N.ar  999  PLP999     -0.2452
      2  C2        23.4990   24.9430   30.4760 C.ar  999  PLP999      0.0978
      3  C2A       22.5730   25.3890   31.5490 C.3   999  PLP999      0.0555
      4  C3        23.3080   23.7620   29.8060 C.ar  999  PLP999      0.2049
      5  O3        22.1600   23.0000   30.0310 O.3   999  PLP999     -0.2857
      6  C4        24.2520   23.3460   28.8930 C.ar  999  PLP999      0.0182
      7  C4A       24.0150   22.0380   28.1040 C.3   999  PLP999      0.0342
      8  C5        25.3910   24.1350   28.6810 C.ar  999  PLP999      0.0261
      9  C6        25.5470   25.2910   29.3780 C.ar  999  PLP999      0.0965
     10  C5A       26.3640   23.9000   27.4840 C.3   999  PLP999      0.1815
     11  O4P       26.0220   24.7750   26.3660 O.3   999  PLP999     -0.2653
     12  P         26.9510   24.8720   25.0660 P.3   999  PLP999      0.5329
     13  O1P       26.0940   25.4510   24.0270 O.2   999  PLP999     -0.2224
     14  O2P       28.0590   25.9450   25.5350 O.3   999  PLP999     -0.1145
     15  O3P       27.6460   23.5710   24.8270 O.3   999  PLP999     -0.1145
@<TRIPOS>BOND
     1    13    12    2
     2    15    12    1
     3    12    14    1
     4    12    11    1
     5    11    10    1
     6    10     8    1
     7     7     6    1
     8     8     6   ar
     9     8     9   ar
    10     6     4   ar
    11     9     1   ar
    12     4     5    1
    13     4     2   ar
    14     1     2   ar
    15     2     3    1
