@<TRIPOS>MOLECULE
2prj_IMP_A_1.pdb
 23 25 0 0 0
SMALL
GASTEIGER

@<TRIPOS>ATOM
      1  P         31.0520    2.2290   51.3030 P.3   930  IMP930      0.5327
      2  O1P       31.1060    2.1270   49.8090 O.2   930  IMP930     -0.2224
      3  O2P       30.7080    3.7250   51.7520 O.3   930  IMP930     -0.1145
      4  O3P       32.2310    1.7710   51.9120 O.3   930  IMP930     -0.1145
      5  O5'       29.8820    1.3270   51.8390 O.3   930  IMP930     -0.2675
      6  C5'       29.1200    0.5790   51.0590 C.3   930  IMP930      0.1860
      7  C4'       27.8530   -0.2550   51.6130 C.3   930  IMP930      0.1823
      8  O4'       28.4740   -1.5860   51.6250 O.3   930  IMP930     -0.3135
      9  C3'       27.4820   -0.0800   53.1210 C.3   930  IMP930      0.2184
     10  O3'       26.3880    0.7930   53.3320 O.3   930  IMP930     -0.2174
     11  C2'       27.1000   -1.5840   53.4950 C.3   930  IMP930      0.2570
     12  O2'       25.8720   -2.0650   52.8960 O.3   930  IMP930     -0.2130
     13  C1'       28.1340   -2.4100   52.7870 C.3   930  IMP930      0.3186
     14  N9        29.3160   -2.6470   53.6800 N.pl3 930  IMP930     -0.1435
     15  C8        30.4620   -1.8360   53.7480 C.3   930  IMP930      0.3382
     16  N7        31.3360   -2.4550   54.7960 N.2   930  IMP930     -0.2054
     17  C5        30.6030   -3.5710   55.2210 C.2   930  IMP930      0.2446
     18  C6        31.0720   -4.5550   56.2280 C.1   930  IMP930      0.1792
     19  O6        32.1310   -4.5260   56.8650 O.2   930  IMP930     -0.2203
     20  N1        30.1240   -5.5410   56.3820 N.2   930  IMP930     -0.1458
     21  C2        28.9150   -5.5920   55.6820 C.3   930  IMP930      0.4017
     22  N3        28.5170   -4.7000   54.7680 N.2   930  IMP930     -0.0334
     23  C4        29.4220   -3.7000   54.5580 C.2   930  IMP930      0.3528
@<TRIPOS>BOND
     1     2     1    2
     2     6     7    1
     3     6     5    1
     4     1     3    1
     5     1     5    1
     6     1     4    1
     7     7     8    1
     8     7     9    1
     9     8    13    1
    10    13    11    1
    11    13    14    1
    12    12    11    1
    13     9    10    1
    14     9    11    1
    15    14    15    1
    16    14    23    1
    17    15    16    1
    18    23    22    2
    19    23    17    1
    20    22    21    1
    21    16    17    2
    22    17    18    1
    23    21    20    1
    24    18    20    2
    25    18    19    2
