@<TRIPOS>MOLECULE
2prj_NBG_A_1.pdb
 15 15 0 0 0
SMALL
GASTEIGER

@<TRIPOS>ATOM
      1  C1        33.9360   22.7760   27.7630 C.3   998  NBG998      0.2446
      2  C2        33.9510   23.0930   26.2730 C.3   998  NBG998      0.2326
      3  C3        32.6630   22.5660   25.6160 C.3   998  NBG998      0.2190
      4  C4        32.4430   21.1000   25.9790 C.3   998  NBG998      0.2144
      5  C5        32.3540   20.9620   27.5390 C.3   998  NBG998      0.1828
      6  C6        32.1480   19.5350   27.9330 C.3   998  NBG998      0.2142
      7  C7        35.5810   23.6360   29.2910 C.2   998  NBG998      0.2440
      8  C8        37.1030   23.8370   29.5690 C.3   998  NBG998      0.0965
      9  N1        35.2790   23.0300   28.1470 N.am  998  NBG998     -0.1751
     10  O3        32.7600   22.6940   24.2070 O.3   998  NBG998     -0.2174
     11  O2        34.0520   24.4820   26.0970 O.3   998  NBG998     -0.2157
     12  O4        31.2830   20.6510   25.3480 O.3   998  NBG998     -0.2176
     13  O5        33.5820   21.3990   28.1090 O.3   998  NBG998     -0.3315
     14  O6        33.2120   18.7960   27.3760 O.3   998  NBG998     -0.2176
     15  O7        34.7260   24.0190   30.0990 O.2   998  NBG998     -0.2733
@<TRIPOS>BOND
     1    10     3    1
     2    12     4    1
     3     3     4    1
     4     3     2    1
     5     4     5    1
     6    11     2    1
     7     2     1    1
     8    14     6    1
     9     5     6    1
    10     5    13    1
    11     1    13    1
    12     1     9    1
    13     9     7   am
    14     7     8    1
    15     7    15    2
