@<TRIPOS>MOLECULE
2prl_FMN_A_1.pdb
 31 33 0 0 0
SMALL
GASTEIGER

@<TRIPOS>ATOM
      1  N1        41.7970   36.1570    8.5850 N.2   398  FMN398     -0.2887
      2  C2        42.1920   35.4550    9.7010 C.1   398  FMN398      0.3669
      3  O2        41.5810   35.5950   10.7680 O.2   398  FMN398     -0.1744
      4  N3        43.2680   34.5930    9.6130 N.2   398  FMN398     -0.2300
      5  C4        43.9500   34.4300    8.4210 C.1   398  FMN398      0.2513
      6  O4        44.9870   33.7740    8.4130 O.2   398  FMN398     -0.2057
      7  C4A       43.5540   35.1380    7.2870 C.2   398  FMN398      0.2703
      8  N5        44.2150   34.9830    6.0780 N.2   398  FMN398     -0.3882
      9  C5A       43.8210   35.6990    4.9620 C.2   398  FMN398      0.1277
     10  C6        44.5020   35.5570    3.7460 C.3   398  FMN398      0.0820
     11  C7        44.0900   36.2900    2.6250 C.2   398  FMN398     -0.0408
     12  C7M       44.9570   36.2690    1.3940 C.3   398  FMN398      0.0265
     13  C8        43.0010   37.1680    2.7260 C.2   398  FMN398     -0.0280
     14  C8M       42.6410   38.1480    1.6380 C.3   398  FMN398      0.0304
     15  C9        42.3410   37.3020    3.9410 C.2   398  FMN398      0.0123
     16  C9A       42.7400   36.5790    5.0620 C.2   398  FMN398      0.0793
     17  N10       42.0630   36.7200    6.2770 N.pl3 398  FMN398     -0.2545
     18  C10       42.4680   36.0040    7.3820 C.2   398  FMN398      0.2449
     19  C1'       40.7970   37.5190    6.3690 C.3   398  FMN398      0.1336
     20  C2'       41.1190   39.0040    6.5980 C.3   398  FMN398      0.2048
     21  O2'       41.7520   39.1730    7.8500 O.3   398  FMN398     -0.2185
     22  C3'       39.8410   39.8530    6.5540 C.3   398  FMN398      0.2165
     23  O3'       38.9810   39.4250    7.5910 O.3   398  FMN398     -0.2175
     24  C4'       39.0980   39.7430    5.2140 C.3   398  FMN398      0.2147
     25  O4'       40.0200   39.6470    4.1580 O.3   398  FMN398     -0.2176
     26  C5'       38.1840   40.9340    4.9400 C.3   398  FMN398      0.1892
     27  O5'       38.9490   42.1100    4.9030 O.3   398  FMN398     -0.2674
     28  P         39.3780   42.8080    3.5150 P.3   398  FMN398      0.5327
     29  O1P       40.4800   41.9960    2.8800 O.3   398  FMN398     -0.1145
     30  O2P       39.8690   44.1840    3.8430 O.3   398  FMN398     -0.1145
     31  O3P       38.1880   42.8820    2.5850 O.2   398  FMN398     -0.2224
@<TRIPOS>BOND
     1    12    11    1
     2    14    13    1
     3    31    28    2
     4    11    13    2
     5    11    10    1
     6    13    15    1
     7    29    28    1
     8    28    30    1
     9    28    27    1
    10    10     9    1
    11    15    16    2
    12    25    24    1
    13    27    26    1
    14    26    24    1
    15     9    16    1
    16     9     8    2
    17    16    17    1
    18    24    22    1
    19     8     7    2
    20    17    19    1
    21    17    18    1
    22    19    20    1
    23    22    20    1
    24    22    23    1
    25    20    21    1
    26     7    18    1
    27     7     5    1
    28    18     1    2
    29     6     5    2
    30     5     4    2
    31     1     2    2
    32     4     2    2
    33     2     3    2
