@<TRIPOS>MOLECULE
2prl_R2C_A_1.pdb
 25 27 0 0 0
SMALL
GASTEIGER

@<TRIPOS>ATOM
      1  C1        48.2330   39.8020   -2.7330 C.ar  400  R2C400      0.0448
      2  C2        48.4850   39.6010   -1.3400 C.ar  400  R2C400      0.1390
      3  C3        49.3370   40.5010   -0.6690 C.ar  400  R2C400      0.0382
      4  C4        49.9540   41.6120   -1.3550 C.ar  400  R2C400      0.0198
      5  C5        49.7000   41.8150   -2.7520 C.ar  400  R2C400      0.0770
      6  C6        48.8190   40.8910   -3.4470 C.ar  400  R2C400      0.0980
      7  C7        48.4890   41.0270   -4.9110 C.2   400  R2C400      0.3891
      8  O8        47.4490   40.4270   -5.4440 O.co2 400  R2C400     -0.2405
      9  O9        49.2180   41.7200   -5.6180 O.co2 400  R2C400     -0.2405
     10  O10       47.9230   38.5450   -0.6470 O.3   400  R2C400     -0.4714
     11  C11       47.0670   37.6190   -1.3370 C.3   400  R2C400      0.2525
     12  N12       50.2970   42.9180   -3.4770 N.pl3 400  R2C400     -0.2123
     13  C13       51.1890   43.8950   -2.9040 C.ar  400  R2C400      0.0707
     14  C14       50.8970   44.5630   -1.5350 C.ar  400  R2C400      0.0196
     15  C15       51.8270   45.5200   -1.0290 C.ar  400  R2C400      0.0388
     16  C16       53.0040   45.8480   -1.7830 C.ar  400  R2C400      0.1454
     17  C17       53.2520   45.2140   -3.0600 C.ar  400  R2C400      0.0388
     18  C18       52.3540   44.2560   -3.6050 C.ar  400  R2C400      0.0196
     19  O19       53.9410   46.7440   -1.2130 O.3   400  R2C400     -0.4535
     20  C20       54.7910   47.6280   -1.9100 C.ar  400  R2C400      0.1453
     21  C21       54.3920   48.3820   -3.0670 C.ar  400  R2C400      0.0375
     22  C22       55.3110   49.2510   -3.7330 C.ar  400  R2C400      0.0031
     23  C23       56.6460   49.3750   -3.2480 C.ar  400  R2C400      0.0002
     24  C24       57.0470   48.6280   -2.0960 C.ar  400  R2C400      0.0031
     25  C25       56.1290   47.7590   -1.4260 C.ar  400  R2C400      0.0375
@<TRIPOS>BOND
     1     9     7   ar
     2     8     7   ar
     3     7     6    1
     4    22    23   ar
     5    22    21   ar
     6    18    17   ar
     7    18    13   ar
     8    12    13    1
     9    12     5    1
    10     6     5   ar
    11     6     1   ar
    12    23    24   ar
    13    21    20   ar
    14    17    16   ar
    15    13    14   ar
    16     5     4   ar
    17     1     2   ar
    18    24    25   ar
    19    20    25   ar
    20    20    19    1
    21    16    19    1
    22    16    15   ar
    23    14    15   ar
    24     4     3   ar
    25     2     3   ar
    26     2    10    1
    27    11    10    1
