@<TRIPOS>MOLECULE
2prm_FMN_A_1.pdb
 31 33 0 0 0
SMALL
GASTEIGER

@<TRIPOS>ATOM
      1  N1        41.5190   35.8980    8.6860 N.2   398  FMN398     -0.2887
      2  C2        41.8890   35.2150    9.8280 C.1   398  FMN398      0.3669
      3  O2        41.2810   35.3730   10.9040 O.2   398  FMN398     -0.1744
      4  N3        42.9440   34.3580    9.7810 N.2   398  FMN398     -0.2300
      5  C4        43.6170   34.1850    8.6280 C.1   398  FMN398      0.2513
      6  O4        44.6620   33.5480    8.7450 O.2   398  FMN398     -0.2057
      7  C4A       43.2440   34.8740    7.4610 C.2   398  FMN398      0.2706
      8  N5        43.9130   34.7390    6.2480 N.2   398  FMN398     -0.3841
      9  C5A       43.5130   35.4150    5.1040 C.2   398  FMN398      0.1452
     10  C6        44.1940   35.2610    3.9050 C.2   398  FMN398      0.0252
     11  C7        43.7890   35.9620    2.7770 C.2   398  FMN398     -0.0375
     12  C7M       44.6690   35.8600    1.5560 C.3   398  FMN398      0.0268
     13  C8        42.6840   36.8340    2.8400 C.3   398  FMN398      0.0417
     14  C8M       42.5060   37.9590    1.8670 C.3   398  FMN398      0.0091
     15  C9        42.0120   36.9830    4.0360 C.2   398  FMN398     -0.0049
     16  C9A       42.4230   36.2750    5.1690 C.2   398  FMN398      0.0795
     17  N10       41.7720   36.4430    6.3790 N.pl3 398  FMN398     -0.2545
     18  C10       42.1730   35.7370    7.5030 C.2   398  FMN398      0.2449
     19  C1'       40.4840   37.1910    6.3730 C.3   398  FMN398      0.1336
     20  C2'       40.7480   38.6340    6.6830 C.3   398  FMN398      0.2048
     21  O2'       41.2270   38.5860    7.9940 O.3   398  FMN398     -0.2185
     22  C3'       39.4520   39.4490    6.6490 C.3   398  FMN398      0.2165
     23  O3'       38.5550   38.9600    7.6430 O.3   398  FMN398     -0.2175
     24  C4'       38.7020   39.4850    5.2960 C.3   398  FMN398      0.2147
     25  O4'       39.5500   39.4580    4.1840 O.3   398  FMN398     -0.2176
     26  C5'       37.8700   40.7460    5.1290 C.3   398  FMN398      0.1892
     27  O5'       38.7030   41.8810    5.0160 O.3   398  FMN398     -0.2674
     28  P         39.2490   42.4040    3.6180 P.3   398  FMN398      0.5327
     29  O1P       40.4520   41.6040    3.2690 O.3   398  FMN398     -0.1145
     30  O2P       39.7000   43.8490    3.7750 O.3   398  FMN398     -0.1145
     31  O3P       38.2360   42.2900    2.5180 O.2   398  FMN398     -0.2224
@<TRIPOS>BOND
     1    12    11    1
     2    14    13    1
     3    31    28    2
     4    11    13    1
     5    11    10    2
     6    13    15    1
     7    29    28    1
     8    28    30    1
     9    28    27    1
    10    10     9    1
    11    15    16    2
    12    25    24    1
    13    27    26    1
    14     9    16    1
    15     9     8    2
    16    26    24    1
    17    16    17    1
    18    24    22    1
    19     8     7    2
    20    19    17    1
    21    19    20    1
    22    17    18    1
    23    22    20    1
    24    22    23    1
    25    20    21    1
    26     7    18    1
    27     7     5    1
    28    18     1    2
    29     5     6    2
    30     5     4    2
    31     1     2    2
    32     4     2    2
    33     2     3    2
