@<TRIPOS>MOLECULE
2prn_C8E_A_1.pdb
 21 20 0 0 0
SMALL
GASTEIGER

@<TRIPOS>ATOM
      1  C1         4.1910   59.6510   44.6380 C.3   291  C8E291      0.0000
      2  C2         3.2110   58.8800   43.8840 C.3   291  C8E291      0.0000
      3  C3         1.9430   58.7520   44.6270 C.3   291  C8E291      0.0000
      4  C4         2.0440   57.5600   45.4660 C.3   291  C8E291      0.0000
      5  C5         1.9990   58.0730   46.8610 C.3   291  C8E291      0.0001
      6  C6         0.8010   57.5870   47.4970 C.3   291  C8E291      0.0026
      7  C7         1.2730   57.6550   48.8610 C.3   291  C8E291      0.0321
      8  C8         0.1460   57.2930   49.7460 C.3   291  C8E291      0.1423
      9  O9         0.4840   56.9250   51.0780 O.3   291  C8E291     -0.3511
     10  C10        0.8330   57.9600   51.9740 C.3   291  C8E291      0.1741
     11  C11        0.9360   57.3350   53.3430 C.3   291  C8E291      0.1743
     12  O12       -0.1980   56.5140   53.7080 O.3   291  C8E291     -0.3471
     13  C13       -0.2300   55.0830   53.3370 C.3   291  C8E291      0.1894
     14  C14       -1.2950   54.4890   52.3690 C.3   291  C8E291      0.2376
     15  O15       -2.0390   53.2210   52.4490 O.2   291  C8E291     -0.4666
     16  C16       -1.6040   52.2580   51.4820 C.2   291  C8E291      0.2124
     17  C17       -1.9020   52.5000   49.9960 C.2   291  C8E291      0.2124
     18  O18       -1.6970   51.6130   48.9040 O.2   291  C8E291     -0.4665
     19  C19       -2.2200   50.2400   48.9820 C.3   291  C8E291      0.2411
     20  C20       -3.0840   49.7760   47.7070 C.3   291  C8E291      0.2292
     21  O21       -4.4900   49.7550   47.9480 O.3   291  C8E291     -0.2162
@<TRIPOS>BOND
     1     2     3    1
     2     2     1    1
     3     3     4    1
     4     4     5    1
     5     5     6    1
     6     6     7    1
     7    20    21    1
     8    20    19    1
     9     7     8    1
    10    18    19    1
    11    18    17    1
    12     8     9    1
    13    17    16    2
    14     9    10    1
    15    16    15    1
    16    10    11    1
    17    14    15    1
    18    14    13    1
    19    13    12    1
    20    11    12    1
