@<TRIPOS>MOLECULE
2prz_OMP_A_1.pdb
 24 25 0 0 0
SMALL
GASTEIGER

@<TRIPOS>ATOM
      1  P         78.7150   37.2500   17.2540 P.3   450  OMP450      0.5327
      2  O1P       79.3980   38.2950   18.0950 O.3   450  OMP450     -0.1145
      3  O2P       78.4200   37.6060   15.8160 O.2   450  OMP450     -0.2224
      4  O3P       79.5150   36.0120   17.3170 O.3   450  OMP450     -0.1145
      5  O5'       77.2810   36.9640   17.9080 O.3   450  OMP450     -0.2675
      6  C5'       77.1210   36.2750   19.1450 C.3   450  OMP450      0.1859
      7  C4'       76.5410   37.2480   20.1640 C.3   450  OMP450      0.1801
      8  O4'       75.2150   37.6680   19.8040 O.3   450  OMP450     -0.3319
      9  C3'       76.4200   36.6460   21.5500 C.3   450  OMP450      0.2158
     10  O3'       77.5640   37.0030   22.3390 O.3   450  OMP450     -0.2175
     11  C2'       75.1290   37.2680   22.0550 C.3   450  OMP450      0.2319
     12  O2'       75.3840   38.5820   22.5530 O.3   450  OMP450     -0.2157
     13  C1'       74.2380   37.4030   20.8220 C.3   450  OMP450      0.2402
     14  N1        73.5220   36.1480   20.4680 N.am  450  OMP450     -0.1714
     15  C2        73.1020   35.1980   21.4470 C.1   450  OMP450      0.2847
     16  O2        73.2870   35.3880   22.6730 O.2   450  OMP450     -0.1918
     17  N3        72.4820   34.0640   21.0780 N.2   450  OMP450     -0.2452
     18  C4        72.2260   33.7590   19.7980 C.1   450  OMP450      0.2184
     19  O4        71.6440   32.6860   19.5240 O.2   450  OMP450     -0.2085
     20  C5        72.6090   34.6260   18.7840 C.2   450  OMP450      0.1296
     21  C6        73.2550   35.8210   19.1030 C.2   450  OMP450      0.1573
     22  C7        73.6110   36.7540   17.9860 C.2   450  OMP450      0.4026
     23  O71       73.0580   37.8780   18.0170 O.co2 450  OMP450     -0.2391
     24  O72       74.3880   36.4180   17.0730 O.co2 450  OMP450     -0.2391
@<TRIPOS>BOND
     1     3     1    2
     2    24    22   ar
     3     1     4    1
     4     1     5    1
     5     1     2    1
     6     5     6    1
     7    22    23   ar
     8    22    21    1
     9    20    21    2
    10    20    18    1
    11    21    14    1
    12     6     7    1
    13    19    18    2
    14    18    17    2
    15     8     7    1
    16     8    13    1
    17     7     9    1
    18    14    13    1
    19    14    15   am
    20    13    11    1
    21    17    15    2
    22    15    16    2
    23     9    11    1
    24     9    10    1
    25    11    12    1
