@<TRIPOS>MOLECULE
2ps1_ORO_A_1.pdb
 11 11 0 0 0
SMALL
GASTEIGER

@<TRIPOS>ATOM
      1  N1         8.8130    6.0970  -14.3500 N.2   500  ORO500     -0.3044
      2  C2         9.0120    6.7440  -13.1920 C.1   500  ORO500      0.3651
      3  O2         8.8350    6.1310  -12.1180 O.2   500  ORO500     -0.1745
      4  N3         9.4050    8.0310  -13.1760 N.2   500  ORO500     -0.2366
      5  C4         9.6040    8.7040  -14.3210 C.1   500  ORO500      0.2010
      6  O4         9.9680    9.9020  -14.2970 O.2   500  ORO500     -0.2129
      7  C5         9.3990    8.0600  -15.5370 C.3   500  ORO500      0.2022
      8  C6         8.9960    6.7260  -15.5220 C.2   500  ORO500      0.2212
      9  C7         8.7620    5.9700  -16.7920 C.2   500  ORO500      0.4149
     10  O71        8.2970    6.5630  -17.7920 O.co2 500  ORO500     -0.2380
     11  O72        9.0300    4.7480  -16.8080 O.co2 500  ORO500     -0.2380
@<TRIPOS>BOND
     1    10     9   ar
     2    11     9   ar
     3     9     8    1
     4     7     8    1
     5     7     5    1
     6     8     1    2
     7     1     2    2
     8     5     6    2
     9     5     4    2
    10     2     4    2
    11     2     3    2
