@<TRIPOS>MOLECULE
2ps1_PRP_A_1.pdb
 22 22 0 0 0
SMALL
GASTEIGER

@<TRIPOS>ATOM
      1  C1         6.0520    3.2820  -14.2680 C.3   700  PRP700      0.2742
      2  C2         5.2810    4.3090  -13.4560 C.3   700  PRP700      0.2408
      3  C3         4.0100    4.5440  -14.2540 C.3   700  PRP700      0.2167
      4  C4         4.4300    4.2330  -15.6850 C.3   700  PRP700      0.1808
      5  C5         4.4630    5.4920  -16.5450 C.3   700  PRP700      0.1859
      6  O1         5.5700    1.9640  -13.9650 O.3   700  PRP700     -0.2857
      7  O2         4.9920    3.8420  -12.1350 O.3   700  PRP700     -0.2149
      8  O3         2.9870    3.6190  -13.8600 O.3   700  PRP700     -0.2175
      9  O4         5.7320    3.6260  -15.6150 O.3   700  PRP700     -0.3255
     10  O5         4.8020    5.1440  -17.8890 O.3   700  PRP700     -0.2675
     11  P          3.7320    5.2230  -19.0930 P.3   700  PRP700      0.5327
     12  O1P        2.9080    6.4700  -18.8610 O.3   700  PRP700     -0.1145
     13  O2P        2.9460    3.9440  -18.9680 O.3   700  PRP700     -0.1145
     14  O3P        4.6260    5.2850  -20.3140 O.2   700  PRP700     -0.2224
     15  PA         6.4850    0.6380  -13.9780 P.3   700  PRP700      0.2249
     16  O1A        5.6290   -0.5760  -14.2410 O.3   700  PRP700     -0.4370
     17  O2A        7.6400    0.9070  -14.9180 O.2   700  PRP700     -0.5169
     18  O3A        7.1530    0.5820  -12.5010 O.3   700  PRP700     -0.2260
     19  PB         6.6220    0.0290  -11.0720 P.3   700  PRP700      0.5373
     20  O1B        6.8200   -1.4640  -11.1390 O.2   700  PRP700     -0.2221
     21  O2B        7.5890    0.7360  -10.1570 O.3   700  PRP700     -0.1143
     22  O3B        5.1850    0.4650  -10.9140 O.3   700  PRP700     -0.1143
@<TRIPOS>BOND
     1    14    11    2
     2    11    13    1
     3    11    12    1
     4    11    10    1
     5    10     5    1
     6     5     4    1
     7     4     9    1
     8     4     3    1
     9     9     1    1
    10    17    15    2
    11     1     6    1
    12     1     2    1
    13     3     8    1
    14     3     2    1
    15    16    15    1
    16    15     6    1
    17    15    18    1
    18     2     7    1
    19    18    19    1
    20    20    19    2
    21    19    22    1
    22    19    21    1
