@<TRIPOS>MOLECULE
2psj_CEI_A_1.pdb
 31 34 0 0 0
SMALL
GASTEIGER

@<TRIPOS>ATOM
      1  O33      -17.6830    1.3380   39.5290 O.2   501  CEI501     -0.2425
      2  C2       -17.8210    1.3980   38.3150 C.2   501  CEI501      0.3568
      3  C10      -18.6620    2.4950   37.7130 C.3   501  CEI501      0.1430
      4  C11      -17.8320    3.6980   37.3250 C.ar  501  CEI501     -0.0104
      5  C12      -16.9980    4.3290   38.2490 C.ar  501  CEI501     -0.0004
      6  C13      -16.2550    5.4440   37.8710 C.ar  501  CEI501      0.0417
      7  C14      -16.3440    5.9350   36.5700 C.ar  501  CEI501      0.1957
      8  O17      -15.6220    7.0250   36.1870 O.3   501  CEI501     -0.2866
      9  C15      -17.1750    5.3060   35.6500 C.ar  501  CEI501      0.0417
     10  C16      -17.9190    4.1910   36.0260 C.ar  501  CEI501     -0.0004
     11  N1       -17.2710    0.5330   37.4590 N.am  501  CEI501      0.0341
     12  C9       -16.4930   -0.5170   37.9540 C.2   501  CEI501      0.3903
     13  C8       -15.1050   -0.4460   37.9800 C.2   501  CEI501      0.1984
     14  C26      -14.3580    0.7660   37.4700 C.3   501  CEI501      0.0932
     15  C27      -14.2760    0.7090   35.9660 C.ar  501  CEI501     -0.0149
     16  C28      -14.8060    1.7480   35.2000 C.ar  501  CEI501     -0.0038
     17  C29      -14.7290    1.6890   33.8090 C.ar  501  CEI501     -0.0003
     18  C30      -14.1290    0.5930   33.1880 C.ar  501  CEI501     -0.0000
     19  C31      -13.5990   -0.4450   33.9530 C.ar  501  CEI501     -0.0003
     20  C32      -13.6730   -0.3870   35.3430 C.ar  501  CEI501     -0.0038
     21  N7       -14.3910   -1.4850   38.4630 N.2   501  CEI501     -0.3981
     22  C6       -15.0210   -2.5870   38.9290 C.2   501  CEI501      0.1623
     23  C5       -16.4150   -2.6490   38.9090 C.3   501  CEI501      0.3214
     24  N4       -17.1270   -1.6210   38.4230 N.2   501  CEI501     -0.0517
     25  C19      -14.2150   -3.7160   39.4750 C.ar  501  CEI501      0.0300
     26  C20      -13.0790   -3.4350   40.2320 C.ar  501  CEI501      0.0056
     27  C21      -12.3210   -4.4790   40.7580 C.ar  501  CEI501      0.0421
     28  C22      -12.7010   -5.8010   40.5310 C.ar  501  CEI501      0.1957
     29  O25      -11.9570   -6.8140   41.0460 O.3   501  CEI501     -0.2866
     30  C23      -13.8390   -6.0870   39.7800 C.ar  501  CEI501      0.0421
     31  C24      -14.5940   -5.0430   39.2500 C.ar  501  CEI501      0.0056
@<TRIPOS>BOND
     1    18    17   ar
     2    18    19   ar
     3    17    16   ar
     4    19    20   ar
     5    16    15   ar
     6    20    15   ar
     7     9    10   ar
     8     9     7   ar
     9    15    14    1
    10    10     4   ar
    11     8     7    1
    12     7     6   ar
    13     4     3    1
    14     4     5   ar
    15    11    12    1
    16    11     2   am
    17    14    13    1
    18     3     2    1
    19     6     5   ar
    20    12    13    1
    21    12    24    2
    22    13    21    2
    23     2     1    2
    24    24    23    1
    25    21    22    2
    26    23    22    1
    27    22    25    1
    28    31    25   ar
    29    31    30   ar
    30    25    26   ar
    31    30    28   ar
    32    26    27   ar
    33    28    27   ar
    34    28    29    1
