@<TRIPOS>MOLECULE
2psu_MUU_A_1.pdb
 36 38 0 0 0
SMALL
GASTEIGER

@<TRIPOS>ATOM
      1  O10       17.2920   31.4310   14.3860 O.2   200  MUU200     -0.1528
      2  S8        18.0940   32.4720   14.9510 S.O2  200  MUU200      0.0635
      3  O9        18.6180   33.3620   13.9520 O.2   200  MUU200     -0.1528
      4  C5        17.1650   33.3670   15.9940 C.ar  200  MUU200      0.1252
      5  C6        17.4560   34.7120   16.2010 C.ar  200  MUU200      0.0568
      6  C7        16.6970   35.4830   17.0750 C.ar  200  MUU200      0.1401
      7  O19       17.0410   36.8120   17.2240 O.3   200  MUU200     -0.4714
      8  C18       16.5380   37.6470   18.2600 C.3   200  MUU200      0.2525
      9  C2        15.6190   34.8970   17.7490 C.ar  200  MUU200      0.0370
     10  C3        15.3250   33.5550   17.5580 C.ar  200  MUU200      0.0045
     11  C4        16.0940   32.7910   16.6790 C.ar  200  MUU200      0.0201
     12  N11       19.3830   31.7780   15.6630 N.3   200  MUU200     -0.1529
     13  C12       20.2230   32.7280   16.4250 C.3   200  MUU200      0.0958
     14  C13       21.6600   32.1990   16.4240 C.3   200  MUU200      0.0178
     15  C15       22.7920   33.2120   16.2430 C.3   200  MUU200      0.0015
     16  C14       22.4180   32.2840   15.0960 C.3   200  MUU200      0.0015
     17  C16       19.0940   30.5310   16.4100 C.3   200  MUU200      0.1304
     18  C17       19.9810   29.4260   15.7850 C.3   200  MUU200      0.1897
     19  O18       19.9780   28.2750   16.6280 O.3   200  MUU200     -0.2197
     20  C19       19.5790   29.0160   14.3550 C.3   200  MUU200      0.1313
     21  C32       18.2550   28.2500   14.3090 C.3   200  MUU200      0.0506
     22  C38       17.9680   27.8560   12.8810 C.ar  200  MUU200     -0.0204
     23  C33       18.1700   26.5430   12.4570 C.ar  200  MUU200     -0.0042
     24  C34       17.9270   26.1740   11.1450 C.ar  200  MUU200     -0.0003
     25  C35       17.4740   27.1230   10.2400 C.ar  200  MUU200     -0.0000
     26  C36       17.2930   28.4230   10.6550 C.ar  200  MUU200     -0.0003
     27  C37       17.5190   28.7950   11.9680 C.ar  200  MUU200     -0.0042
     28  N20       20.6400   28.1910   13.7550 N.am  200  MUU200     -0.2042
     29  C21       21.4040   28.5930   12.7310 C.2   200  MUU200      0.2419
     30  O22       21.3000   29.6940   12.2220 O.2   200  MUU200     -0.2733
     31  C23       22.4730   27.6930   12.1880 C.3   200  MUU200      0.0964
     32  C24       21.8470   26.6510   11.2930 C.3   200  MUU200      0.0964
     33  C25       22.9450   25.7490   10.7890 C.2   200  MUU200      0.2419
     34  O26       23.6570   25.1260   11.5870 O.2   200  MUU200     -0.2733
     35  N27       23.1030   25.6580    9.4670 N.am  200  MUU200     -0.2035
     36  C28       24.1110   24.8000    8.8660 C.3   200  MUU200      0.1385
@<TRIPOS>BOND
     1    36    35    1
     2    35    33   am
     3    25    26   ar
     4    25    24   ar
     5    26    27   ar
     6    33    32    1
     7    33    34    2
     8    24    23   ar
     9    32    31    1
    10    27    22   ar
    11    31    29    1
    12    30    29    2
    13    23    22   ar
    14    29    28   am
    15    22    21    1
    16    28    20    1
    17     3     2    2
    18    21    20    1
    19    20    18    1
    20     1     2    2
    21     2    12    1
    22     2     4    1
    23    16    15    1
    24    16    14    1
    25    12    17    1
    26    12    13    1
    27    18    17    1
    28    18    19    1
    29     4     5   ar
    30     4    11   ar
    31     5     6   ar
    32    15    14    1
    33    14    13    1
    34    11    10   ar
    35     6     7    1
    36     6     9   ar
    37     7     8    1
    38    10     9   ar
