@<TRIPOS>MOLECULE
2psv_MUV_A_1.pdb
 33 35 0 0 0
SMALL
GASTEIGER

@<TRIPOS>ATOM
      1  O26       23.6790   25.1250   11.5560 O.2   200  MUV200     -0.2733
      2  C25       22.9250   25.7410   10.8070 C.2   200  MUV200      0.2419
      3  N27       22.9470   25.5900    9.4790 N.am  200  MUV200     -0.2035
      4  C28       23.8490   24.6740    8.8030 C.3   200  MUV200      0.1385
      5  C24       21.9070   26.6880   11.4080 C.3   200  MUV200      0.0964
      6  C23       22.6170   27.7090   12.2780 C.3   200  MUV200      0.0964
      7  C21       21.5230   28.6390   12.7800 C.2   200  MUV200      0.2419
      8  O22       21.3950   29.7300   12.2460 O.2   200  MUV200     -0.2733
      9  N20       20.7320   28.2140   13.7660 N.am  200  MUV200     -0.2042
     10  C19       19.6360   28.9880   14.3450 C.3   200  MUV200      0.1313
     11  C32       18.3700   28.1310   14.2540 C.3   200  MUV200      0.0506
     12  C38       18.1040   27.7700   12.7980 C.ar  200  MUV200     -0.0204
     13  C37       17.5650   28.7160   11.9310 C.ar  200  MUV200     -0.0042
     14  C36       17.3200   28.3920   10.5950 C.ar  200  MUV200     -0.0003
     15  C35       17.6200   27.1180   10.1230 C.ar  200  MUV200     -0.0000
     16  C34       18.1490   26.1710   10.9900 C.ar  200  MUV200     -0.0003
     17  C33       18.3920   26.4970   12.3180 C.ar  200  MUV200     -0.0042
     18  C17       20.0070   29.3580   15.7910 C.3   200  MUV200      0.1897
     19  O18       20.0510   28.1880   16.6180 O.3   200  MUV200     -0.2197
     20  C16       19.0580   30.4050   16.3950 C.3   200  MUV200      0.1305
     21  N11       19.3530   31.6990   15.7310 N.3   200  MUV200     -0.1501
     22  C12       20.0950   32.6440   16.5880 C.3   200  MUV200      0.0960
     23  C13       21.5440   32.1580   16.6800 C.3   200  MUV200      0.0178
     24  C14       22.4220   32.3340   15.4410 C.3   200  MUV200      0.0015
     25  C15       22.6320   33.2310   16.6520 C.3   200  MUV200      0.0015
     26  S8        18.0870   32.3400   14.9480 S.O2  200  MUV200      0.0959
     27  O9        18.6330   33.3030   14.0350 O.2   200  MUV200     -0.1498
     28  O10       17.4160   31.2880   14.2590 O.2   200  MUV200     -0.1498
     29  C5        16.9610   33.1090   15.9000 C.ar  200  MUV200      0.2673
     30  O4        16.7390   34.4600   15.9210 O.2   200  MUV200     -0.4325
     31  C3        15.6930   34.6580   16.8190 C.ar  200  MUV200      0.1814
     32  C2        15.2890   33.4230   17.3250 C.ar  200  MUV200      0.0453
     33  C1        16.1050   32.4180   16.7070 C.ar  200  MUV200      0.0617
@<TRIPOS>BOND
     1     4     3    1
     2     3     2   am
     3    15    14   ar
     4    15    16   ar
     5    14    13   ar
     6     2     5    1
     7     2     1    2
     8    16    17   ar
     9     5     6    1
    10    13    12   ar
    11     8     7    2
    12     6     7    1
    13    17    12   ar
    14     7     9   am
    15    12    11    1
    16     9    10    1
    17    27    26    2
    18    11    10    1
    19    28    26    2
    20    10    18    1
    21    26    21    1
    22    26    29    1
    23    24    25    1
    24    24    23    1
    25    21    20    1
    26    21    22    1
    27    18    20    1
    28    18    19    1
    29    29    30   ar
    30    29    33   ar
    31    30    31   ar
    32    22    23    1
    33    25    23    1
    34    33    32   ar
    35    31    32   ar
