@<TRIPOS>MOLECULE
2psw_COA_A_1.pdb
 48 50 0 0 0
SMALL
GASTEIGER

@<TRIPOS>ATOM
      1  N1A       45.6450  335.9690 -102.0040 N.2   201  COA201      0.0021
      2  C2A       47.0270  336.0800 -102.0350 C.3   201  COA201      0.5254
      3  N3A       47.6950  336.8970 -101.1310 N.2   201  COA201     -0.0055
      4  C4A       47.0030  337.5890 -100.1960 C.2   201  COA201      0.3518
      5  C5A       45.6030  337.5040 -100.1430 C.2   201  COA201      0.2526
      6  C6A       44.9210  336.6790 -101.0630 C.2   201  COA201      0.4393
      7  N6A       43.5950  336.6450 -101.1230 N.pl3 201  COA201      0.2180
      8  N7A       45.1850  338.3030  -99.1340 N.2   201  COA201     -0.2095
      9  C8A       46.2840  338.8750  -98.5720 C.3   201  COA201      0.3377
     10  N9A       47.4250  338.4470  -99.2100 N.pl3 201  COA201     -0.1439
     11  C1B       48.8330  338.8420  -98.9200 C.3   201  COA201      0.3185
     12  C2B       49.3640  339.7470 -100.0050 C.3   201  COA201      0.2543
     13  O2B       50.7700  339.6480 -100.1280 O.3   201  COA201     -0.2131
     14  C3B       48.9980  341.1210  -99.4840 C.3   201  COA201      0.1928
     15  O3B       49.8040  342.1050 -100.0620 O.3   201  COA201     -0.2673
     16  P3B       49.4020  342.6410 -101.5250 P.3   201  COA201      0.5327
     17  O7A       50.3670  343.7800 -101.7610 O.3   201  COA201     -0.1145
     18  O8A       49.6190  341.4910 -102.4970 O.2   201  COA201     -0.2224
     19  O9A       47.9790  343.1610 -101.5960 O.3   201  COA201     -0.1145
     20  C4B       49.2080  340.9860  -97.9930 C.3   201  COA201      0.1795
     21  O4B       48.8710  339.6460  -97.7590 O.3   201  COA201     -0.3136
     22  C5B       48.2940  341.8330  -97.1200 C.3   201  COA201      0.1812
     23  O5B       47.1340  342.2900  -97.7670 O.3   201  COA201     -0.3112
     24  P1A       46.0640  343.1680  -96.9350 P.3   201  COA201      0.2189
     25  O1A       45.3760  344.0660  -97.9020 O.2   201  COA201     -0.5170
     26  O2A       46.8140  343.9570  -95.8800 O.3   201  COA201     -0.4371
     27  O3A       45.1050  342.0820  -96.2600 O.3   201  COA201     -0.2703
     28  P2A       43.4750  342.1810  -96.1310 P.3   201  COA201      0.2188
     29  O4A       43.1800  343.6280  -95.8530 O.3   201  COA201     -0.4371
     30  O5A       42.8770  341.6170  -97.3970 O.2   201  COA201     -0.5170
     31  O6A       43.3580  341.1550  -94.9290 O.3   201  COA201     -0.3138
     32  CBP       42.7140  338.9060  -94.2880 C.3   201  COA201      0.0645
     33  CCP       43.7390  339.7880  -95.0410 C.3   201  COA201      0.1519
     34  CDP       43.1600  337.4600  -94.2720 C.3   201  COA201      0.0056
     35  CEP       42.6740  339.4430  -92.8470 C.3   201  COA201      0.0056
     36  CAP       41.3550  338.9340  -95.0330 C.3   201  COA201      0.2312
     37  OAP       41.3920  338.1380  -96.1990 O.3   201  COA201     -0.2131
     38  C9P       40.1980  338.4910  -94.2020 C.2   201  COA201      0.2719
     39  O9P       39.4440  339.4410  -93.5210 O.2   201  COA201     -0.2706
     40  N8P       39.9240  337.2120  -94.1670 N.am  201  COA201     -0.2028
     41  C7P       38.6940  336.7340  -93.5630 C.3   201  COA201      0.1248
     42  C6P       38.8630  336.5120  -92.0690 C.3   201  COA201      0.1102
     43  C5P       39.8810  335.4200  -91.8210 C.2   201  COA201      0.2432
     44  O5P       39.6600  334.2560  -92.1750 O.2   201  COA201     -0.2733
     45  N4P       40.9980  335.7540  -91.1920 N.am  201  COA201     -0.2044
     46  C3P       41.8810  334.7980  -90.5280 C.3   201  COA201      0.1276
     47  C2P       41.4580  334.2940  -89.1410 C.3   201  COA201      0.0920
     48  S1P       40.1470  333.0340  -89.0730 S.3   201  COA201     -0.0802
@<TRIPOS>BOND
     1    18    16    2
     2     2     1    1
     3     2     3    1
     4     1     6    2
     5    17    16    1
     6    19    16    1
     7    16    15    1
     8     3     4    2
     9     7     6    1
    10     6     5    1
    11     4     5    1
    12     4    10    1
    13     5     8    2
    14    13    12    1
    15    15    14    1
    16    12    14    1
    17    12    11    1
    18    14    20    1
    19    10    11    1
    20    10     9    1
    21     8     9    1
    22    11    21    1
    23    20    21    1
    24    20    22    1
    25    25    24    2
    26    23    22    1
    27    23    24    1
    28    30    28    2
    29    24    27    1
    30    24    26    1
    31    27    28    1
    32    37    36    1
    33    28    29    1
    34    28    31    1
    35    33    31    1
    36    33    32    1
    37    36    32    1
    38    36    38    1
    39    32    34    1
    40    32    35    1
    41    38    40   am
    42    38    39    2
    43    40    41    1
    44    41    42    1
    45    44    43    2
    46    42    43    1
    47    43    45   am
    48    45    46    1
    49    46    47    1
    50    47    48    1
