@<TRIPOS>MOLECULE
2psx_III_B_1.pdb
 30 29 0 0 0
SMALL
GASTEIGER

@<TRIPOS>ATOM
      1  C          2.7160   -0.8430   22.6310 C.2   2001  ACE2001     0.2423
      2  O          2.6210   -1.5500   23.6390 O.2   2001  ACE2001    -0.2733
      3  CH3        2.6400    0.6820   22.7410 C.3   2001  ACE2001     0.0964
      4  N          2.8550   -1.3130   21.4000 N.am  2002  LEU2002    -0.1978
      5  CA         2.9100   -2.7570   21.1130 C.3   2002  LEU2002     0.1727
      6  C          4.3580   -3.2230   20.9540 C.2   2002  LEU2002     0.2616
      7  O          5.2260   -2.4800   20.4840 O.2   2002  LEU2002    -0.2715
      8  CB         2.1870   -3.0370   19.7960 C.3   2002  LEU2002     0.0311
      9  CG         0.6750   -2.9590   20.0030 C.3   2002  LEU2002     0.0022
     10  CD1       -0.0490   -3.1810   18.6740 C.3   2002  LEU2002     0.0001
     11  CD2        0.2310   -4.0020   21.0310 C.3   2002  LEU2002     0.0001
     12  N          4.5710   -4.4730   21.3310 N.am  2003  LEU2003    -0.1963
     13  CA         5.8980   -5.1050   21.2260 C.3   2003  LEU2003     0.1728
     14  C          6.1780   -5.3780   19.7460 C.2   2003  LEU2003     0.2612
     15  O          5.2780   -5.7270   18.9860 O.2   2003  LEU2003    -0.2715
     16  CB         5.9180   -6.4240   21.9990 C.3   2003  LEU2003     0.0311
     17  CG         5.7310   -6.1620   23.4960 C.3   2003  LEU2003     0.0022
     18  CD1        5.6630   -7.4860   24.2600 C.3   2003  LEU2003     0.0001
     19  CD2        6.8630   -5.2930   24.0480 C.3   2003  LEU2003     0.0001
     20  N          7.4380   -5.1940   19.3680 N.am  2004  AR72004    -0.2031
     21  CA         7.8590   -5.4130   17.9760 C.3   2004  AR72004     0.1283
     22  C          8.7990   -6.6180   17.9210 C.3   2004  AR72004     0.2036
     23  O          9.1730   -6.8680   16.5640 O.3   2004  AR72004    -0.2185
     24  CB         8.5640   -4.1550   17.4660 C.3   2004  AR72004     0.0281
     25  CG         7.5850   -2.9800   17.4350 C.3   2004  AR72004     0.0488
     26  CD         8.2640   -1.6860   16.9860 C.3   2004  AR72004     0.2205
     27  NE         7.2340   -0.6480   16.8260 N.pl3 2004  AR72004    -0.0865
     28  CZ         7.5540    0.6020   16.5150 C.cat 2004  AR72004     0.5346
     29  NH1        6.5920    1.5040   16.3410 N.pl3 2004  AR72004     0.1354
     30  NH2        8.8280    0.9530   16.3470 N.pl3 2004  AR72004     0.1354
@<TRIPOS>BOND
     1    29    28    1
     2    30    28    1
     3    28    27    2
     4    23    22    1
     5    27    26    1
     6    26    25    1
     7    25    24    1
     8    24    21    1
     9    22    21    1
    10    21    20    1
    11    10     9    1
    12    15    14    2
    13    20    14   am
    14    14    13    1
    15     8     9    1
    16     8     5    1
    17     9    11    1
    18     7     6    2
    19     6     5    1
    20     6    12   am
    21     5     4    1
    22    13    12    1
    23    13    16    1
    24     4     1   am
    25    16    17    1
    26     1     3    1
    27     1     2    2
    28    17    19    1
    29    17    18    1
