@<TRIPOS>MOLECULE
2psy_III_B_1.pdb
 30 29 0 0 0
SMALL
GASTEIGER

@<TRIPOS>ATOM
      1  C          2.2870   -0.6480   22.3700 C.2   501  ACE501      0.2423
      2  O          2.1590    0.5600   22.5650 O.2   501  ACE501     -0.2733
      3  CH3        2.1680   -1.6420   23.5290 C.3   501  ACE501      0.0964
      4  N          2.5370   -1.1810   21.1770 N.am  502  LEU502     -0.1978
      5  CA         2.6850   -2.6270   20.9560 C.3   502  LEU502      0.1727
      6  C          4.1600   -2.9700   20.7520 C.2   502  LEU502      0.2616
      7  O          4.9410   -2.1570   20.2550 O.2   502  LEU502     -0.2715
      8  CB         1.9160   -3.0320   19.6960 C.3   502  LEU502      0.0311
      9  CG         0.4130   -3.0150   19.9780 C.3   502  LEU502      0.0022
     10  CD1       -0.3740   -3.3350   18.7060 C.3   502  LEU502      0.0001
     11  CD2        0.0710   -4.0290   21.0730 C.3   502  LEU502      0.0001
     12  N          4.5020   -4.1900   21.1510 N.am  503  LEU503     -0.1963
     13  CA         5.8730   -4.6970   21.0170 C.3   503  LEU503      0.1728
     14  C          6.1590   -4.9060   19.5260 C.2   503  LEU503      0.2612
     15  O          5.2570   -5.2140   18.7500 O.2   503  LEU503     -0.2715
     16  CB         6.0100   -6.0260   21.7650 C.3   503  LEU503      0.0311
     17  CG         5.8190   -5.7960   23.2650 C.3   503  LEU503      0.0022
     18  CD1        5.8110   -7.1300   24.0150 C.3   503  LEU503      0.0001
     19  CD2        6.9140   -4.8820   23.8210 C.3   503  LEU503      0.0001
     20  N          7.4200   -4.7150   19.1580 N.am  504  AR7504     -0.2031
     21  CA         7.8330   -4.8740   17.7550 C.3   504  AR7504      0.1283
     22  C          8.7460   -6.0890   17.6020 C.3   504  AR7504      0.2036
     23  O          8.0480   -7.2550   18.0560 O.3   504  AR7504     -0.2185
     24  CB         8.5410   -3.5940   17.3060 C.3   504  AR7504      0.0281
     25  CG         7.5350   -2.4430   17.2950 C.3   504  AR7504      0.0488
     26  CD         8.1830   -1.1230   16.8760 C.3   504  AR7504      0.2205
     27  NE         7.1130   -0.1300   16.6910 N.pl3 504  AR7504     -0.0865
     28  CZ         7.3890    1.1270   16.3670 C.cat 504  AR7504      0.5346
     29  NH1        8.6520    1.5250   16.2210 N.pl3 504  AR7504      0.1354
     30  NH2        6.3920    1.9920   16.2050 N.pl3 504  AR7504      0.1354
@<TRIPOS>BOND
     1    30    28    1
     2    29    28    1
     3    28    27    2
     4    27    26    1
     5    26    25    1
     6    25    24    1
     7    24    21    1
     8    22    21    1
     9    22    23    1
    10    21    20    1
    11    10     9    1
    12    15    14    2
    13    20    14   am
    14    14    13    1
    15     8     9    1
    16     8     5    1
    17     9    11    1
    18     7     6    2
    19     6     5    1
    20     6    12   am
    21     5     4    1
    22    13    12    1
    23    13    16    1
    24     4     1   am
    25    16    17    1
    26     1     2    2
    27     1     3    1
    28    17    19    1
    29    17    18    1
