@<TRIPOS>MOLECULE
2pt3_HEM_A_1.pdb
 43 50 0 0 0
SMALL
GASTEIGER

@<TRIPOS>ATOM
      1  CHA        8.5480    0.0400   28.3830 C.2   623  HEM623      0.0000
      2  CHB        8.8030    4.7980   28.0330 C.2   623  HEM623      0.0000
      3  CHC       10.5560    4.4620   23.5590 C.2   623  HEM623      0.0000
      4  CHD       10.3410   -0.2310   23.8730 C.2   623  HEM623      0.0000
      5  C1A        8.4650    1.3540   28.6800 C.2   623  HEM623      0.0000
      6  C2A        7.8880    1.8730   29.9100 C.2   623  HEM623      0.0000
      7  C3A        7.9380    3.1930   29.8200 C.2   623  HEM623      0.0000
      8  C4A        8.5440    3.5300   28.5280 C.2   623  HEM623      0.0000
      9  CMA        7.3850    4.1280   30.8940 C.3   623  HEM623      0.0000
     10  CAA        7.2710    1.0340   31.0440 C.3   623  HEM623      0.0000
     11  CBA        8.4370    0.5730   31.8170 C.3   623  HEM623      0.0000
     12  CGA        8.0380   -0.4210   32.8560 C.2   623  HEM623      0.0000
     13  O1A        7.1580   -0.0910   33.7060 O.co2 623  HEM623      0.0000
     14  O2A        8.6850   -1.5060   32.8310 O.co2 623  HEM623      0.0000
     15  C1B        9.2870    5.1110   26.7910 C.ar  623  HEM623      0.0000
     16  C2B        9.3940    6.4460   26.2150 C.ar  623  HEM623      0.0000
     17  C3B        9.8990    6.3460   24.9870 C.ar  623  HEM623      0.0000
     18  C4B       10.0540    4.9400   24.7310 C.ar  623  HEM623      0.0000
     19  CMB        9.1060    7.7790   26.9420 C.3   623  HEM623      0.0000
     20  CAB       10.2620    7.4840   23.9770 C.2   623  HEM623      0.0000
     21  CBB       10.5660    8.7660   24.3100 C.2   623  HEM623      0.0000
     22  C1C       10.6480    3.1740   23.2220 C.2   623  HEM623      0.0000
     23  C2C       11.3630    2.6670   22.0890 C.2   623  HEM623      0.0000
     24  C3C       11.1870    1.3480   22.1200 C.2   623  HEM623      0.0000
     25  C4C       10.5840    1.0080   23.3880 C.2   623  HEM623      0.0000
     26  CMC       11.8140    3.5740   20.9080 C.3   623  HEM623      0.0000
     27  CAC       11.6680    0.3080   21.1010 C.2   623  HEM623      0.0000
     28  CBC       12.0890    0.6900   19.8690 C.2   623  HEM623      0.0000
     29  C1D        9.7480   -0.5470   25.0740 C.ar  623  HEM623      0.0000
     30  C2D        9.2790   -1.8760   25.3740 C.ar  623  HEM623      0.0000
     31  C3D        8.7390   -1.8040   26.7620 C.ar  623  HEM623      0.0000
     32  C4D        8.9260   -0.4270   27.1560 C.ar  623  HEM623      0.0000
     33  CMD        9.2630   -3.1670   24.5190 C.3   623  HEM623      0.0000
     34  CAD        8.0370   -2.9910   27.4890 C.3   623  HEM623      0.0000
     35  CBD        6.5730   -2.9740   26.9500 C.3   623  HEM623      0.0000
     36  CGD        5.7820   -4.1340   27.5910 C.2   623  HEM623      0.0000
     37  O1D        5.8600   -5.2570   26.9940 O.co2 623  HEM623      0.0000
     38  O2D        5.1070   -3.9600   28.6780 O.co2 623  HEM623      0.0000
     39  NA         8.8540    2.3650   27.8820 N.2   623  HEM623      0.0000
     40  NB         9.6700    4.1810   25.8380 N.ar  623  HEM623      0.0000
     41  NC        10.2660    2.1410   24.0280 N.2   623  HEM623      0.0000
     42  ND         9.5070    0.3150   26.1440 N.ar  623  HEM623      0.0000
     43 FE          9.7590    2.3170   25.9340 Fe    623  HEM623      0.0000
@<TRIPOS>BOND
     1    28    27    2
     2    26    23    1
     3    27    24    1
     4    23    24    2
     5    23    22    1
     6    24    25    1
     7    22     3    2
     8    22    41    1
     9    25     4    1
    10    25    41    2
    11     3    18    1
    12     4    29    2
    13    20    21    2
    14    20    17    1
    15    41    43    1
    16    33    30    1
    17    18    17   ar
    18    18    40   ar
    19    17    16   ar
    20    29    30   ar
    21    29    42   ar
    22    30    31   ar
    23    40    43    1
    24    40    15   ar
    25    43    42    1
    26    43    39    1
    27    42    32   ar
    28    16    15   ar
    29    16    19    1
    30    31    32   ar
    31    31    34    1
    32    15     2    1
    33    35    34    1
    34    35    36    1
    35    37    36   ar
    36    32     1    2
    37    36    38   ar
    38    39     8    1
    39    39     5    2
    40     2     8    2
    41     1     5    1
    42     8     7    1
    43     5     6    1
    44     7     6    2
    45     7     9    1
    46     6    10    1
    47    10    11    1
    48    11    12    1
    49    14    12   ar
    50    12    13   ar
