@<TRIPOS>MOLECULE
2pt6_S4M_A_1.pdb
 24 26 0 0 0
SMALL
GASTEIGER

@<TRIPOS>ATOM
      1  CA        15.1710  -20.2750    7.8890 C.3   501  S4M501      0.1102
      2  N         15.5420  -21.6850    8.0400 N.3   501  S4M501     -0.1314
      3  CB        14.8840  -19.9700    6.4320 C.3   501  S4M501      0.0313
      4  CG        15.9560  -19.1110    5.7290 C.3   501  S4M501      0.0498
      5  SD        17.6640  -18.9880    6.4210 S.3   501  S4M501     -0.1761
      6  CE        17.5170  -17.5260    7.4520 C.3   501  S4M501      0.0590
      7  C5'       18.7560  -18.4530    5.0160 C.3   501  S4M501      0.0806
      8  C4'       20.2690  -18.3320    5.3450 C.3   501  S4M501      0.1622
      9  O4'       21.1830  -18.7610    4.2930 O.3   501  S4M501     -0.3153
     10  C1'       22.3620  -17.9660    4.4890 C.3   501  S4M501      0.3185
     11  C2'       21.7680  -16.5780    4.6130 C.3   501  S4M501      0.2569
     12  O2'       22.7390  -15.7110    5.1990 O.3   501  S4M501     -0.2130
     13  C3'       20.5950  -16.8460    5.5530 C.3   501  S4M501      0.2168
     14  O3'       21.0250  -16.7100    6.8860 O.3   501  S4M501     -0.2175
     15  N9        23.2440  -17.9960    3.2970 N.pl3 501  S4M501     -0.1439
     16  C8        23.0150  -17.3940    2.1230 C.3   501  S4M501      0.3377
     17  N7        24.0210  -17.6450    1.2850 N.2   501  S4M501     -0.2095
     18  C5        24.8950  -18.4170    1.9310 C.2   501  S4M501      0.2526
     19  C6        26.1140  -18.9790    1.5710 C.2   501  S4M501      0.4393
     20  N6        26.6170  -18.7800    0.3380 N.pl3 501  S4M501      0.2180
     21  C4        24.4050  -18.6320    3.2160 C.2   501  S4M501      0.3518
     22  N3        25.1070  -19.3880    4.0780 N.2   501  S4M501     -0.0055
     23  C2        26.2700  -19.9140    3.6980 C.3   501  S4M501      0.5254
     24  N1        26.7690  -19.7200    2.4840 N.2   501  S4M501      0.0021
@<TRIPOS>BOND
     1    20    19    1
     2    17    18    2
     3    17    16    1
     4    19    18    1
     5    19    24    2
     6    18    21    1
     7    16    15    1
     8    24    23    1
     9    21    15    1
    10    21    22    2
    11    15    10    1
    12    23    22    1
    13     9    10    1
    14     9     8    1
    15    10    11    1
    16    11    12    1
    17    11    13    1
    18     7     8    1
    19     7     5    1
    20     8    13    1
    21    13    14    1
    22     4     5    1
    23     4     3    1
    24     5     6    1
    25     3     1    1
    26     1     2    1
