@<TRIPOS>MOLECULE
2pt9_S4M_A_1.pdb
 24 26 0 0 0
SMALL
GASTEIGER

@<TRIPOS>ATOM
      1  CA        14.5650  -20.5660    7.6640 C.3   501  S4M501      0.1102
      2  N         15.5110  -21.5300    8.2540 N.3   501  S4M501     -0.1314
      3  CB        15.1390  -20.0240    6.3560 C.3   501  S4M501      0.0313
      4  CG        15.9150  -18.7360    6.6160 C.3   501  S4M501      0.0498
      5  SD        17.7130  -18.9580    6.8690 S.3   501  S4M501     -0.1761
      6  CE        17.8990  -17.5910    7.9950 C.3   501  S4M501      0.0590
      7  C5'       18.5900  -18.3980    5.3250 C.3   501  S4M501      0.0806
      8  C4'       20.1510  -18.3200    5.3820 C.3   501  S4M501      0.1622
      9  O4'       20.9340  -18.5730    4.1560 O.3   501  S4M501     -0.3153
     10  C1'       22.1810  -17.9400    4.4370 C.3   501  S4M501      0.3185
     11  C2'       21.6550  -16.5510    4.7320 C.3   501  S4M501      0.2569
     12  O2'       22.6830  -15.7740    5.3580 O.3   501  S4M501     -0.2130
     13  C3'       20.5110  -16.8720    5.6960 C.3   501  S4M501      0.2168
     14  O3'       20.9900  -16.8470    7.0170 O.3   501  S4M501     -0.2175
     15  N9        23.0520  -17.9240    3.2460 N.pl3 501  S4M501     -0.1439
     16  C8        22.7700  -17.2920    2.1120 C.3   501  S4M501      0.3377
     17  N7        23.7680  -17.4960    1.2420 N.2   501  S4M501     -0.2095
     18  C5        24.6960  -18.2720    1.8150 C.2   501  S4M501      0.2526
     19  C6        25.9250  -18.8010    1.3930 C.2   501  S4M501      0.4393
     20  N6        26.3980  -18.5690    0.1580 N.pl3 501  S4M501      0.2180
     21  C4        24.2420  -18.5360    3.1100 C.2   501  S4M501      0.3518
     22  N3        25.0040  -19.3210    3.9110 N.2   501  S4M501     -0.0055
     23  C2        26.1740  -19.8130    3.4790 C.3   501  S4M501      0.5254
     24  N1        26.6370  -19.5640    2.2460 N.2   501  S4M501      0.0021
@<TRIPOS>BOND
     1    20    19    1
     2    17    18    2
     3    17    16    1
     4    19    18    1
     5    19    24    2
     6    18    21    1
     7    16    15    1
     8    24    23    1
     9    21    15    1
    10    21    22    2
    11    15    10    1
    12    23    22    1
    13     9    10    1
    14     9     8    1
    15    10    11    1
    16    11    12    1
    17    11    13    1
    18     7     8    1
    19     7     5    1
    20     8    13    1
    21    13    14    1
    22     3     4    1
    23     3     1    1
    24     4     5    1
    25     5     6    1
    26     1     2    1
