@<TRIPOS>MOLECULE
2ptf_FMN_A_1.pdb
 31 33 0 0 0
SMALL
GASTEIGER

@<TRIPOS>ATOM
      1  N1        17.0730   38.1760   21.5310 N.2   301  FMN301     -0.2887
      2  C2        15.9600   38.7030   22.2070 C.1   301  FMN301      0.3669
      3  O2        15.3910   39.7310   21.8160 O.2   301  FMN301     -0.1744
      4  N3        15.4530   38.0900   23.3230 N.2   301  FMN301     -0.2300
      5  C4        16.0300   36.9510   23.8150 C.1   301  FMN301      0.2513
      6  O4        15.4090   36.3260   24.7010 O.2   301  FMN301     -0.2057
      7  C4A       17.1400   36.4070   23.1750 C.2   301  FMN301      0.2703
      8  N5        17.7280   35.2430   23.6510 N.2   301  FMN301     -0.3882
      9  C5A       18.8460   34.6930   23.0010 C.2   301  FMN301      0.1277
     10  C6        19.4350   33.4990   23.4550 C.3   301  FMN301      0.0820
     11  C7        20.5290   32.9570   22.7900 C.2   301  FMN301     -0.0408
     12  C7M       20.9420   31.5430   23.1580 C.3   301  FMN301      0.0265
     13  C8        21.0520   33.6260   21.6350 C.2   301  FMN301     -0.0280
     14  C8M       22.1940   33.1000   20.8060 C.3   301  FMN301      0.0304
     15  C9        20.4540   34.7920   21.1730 C.2   301  FMN301      0.0123
     16  C9A       19.3560   35.3160   21.8510 C.2   301  FMN301      0.0793
     17  N10       18.7700   36.4750   21.3880 N.pl3 301  FMN301     -0.2545
     18  C10       17.6590   37.0270   22.0330 C.2   301  FMN301      0.2449
     19  C1'       19.4550   37.2330   20.3070 C.3   301  FMN301      0.1336
     20  C2'       18.6950   36.9510   19.0010 C.3   301  FMN301      0.2048
     21  O2'       18.5540   35.5730   18.6610 O.3   301  FMN301     -0.2185
     22  C3'       19.4910   37.6570   17.9130 C.3   301  FMN301      0.2165
     23  O3'       19.2870   39.0290   18.0390 O.3   301  FMN301     -0.2175
     24  C4'       19.0380   37.3030   16.5260 C.3   301  FMN301      0.2147
     25  O4'       20.0460   37.7270   15.6240 O.3   301  FMN301     -0.2176
     26  C5'       17.7080   37.9700   16.2320 C.3   301  FMN301      0.1892
     27  O5'       17.5310   37.7950   14.8490 O.3   301  FMN301     -0.2674
     28  P         16.1990   38.2190   14.0710 P.3   301  FMN301      0.5327
     29  O1P       16.5310   39.6020   13.5600 O.3   301  FMN301     -0.1145
     30  O2P       14.9700   38.1360   14.9070 O.3   301  FMN301     -0.1145
     31  O3P       15.9600   37.1750   13.0380 O.2   301  FMN301     -0.2224
@<TRIPOS>BOND
     1    31    28    2
     2    29    28    1
     3    28    27    1
     4    28    30    1
     5    27    26    1
     6    25    24    1
     7    26    24    1
     8    24    22    1
     9    22    23    1
    10    22    20    1
    11    21    20    1
    12    20    19    1
    13    19    17    1
    14    14    13    1
    15    15    13    1
    16    15    16    2
    17    17    16    1
    18    17    18    1
    19     1    18    2
    20     1     2    2
    21    13    11    2
    22     3     2    2
    23    16     9    1
    24    18     7    1
    25     2     4    2
    26    11    12    1
    27    11    10    1
    28     9    10    1
    29     9     8    2
    30     7     8    2
    31     7     5    1
    32     4     5    2
    33     5     6    2
