@<TRIPOS>MOLECULE
2ptm_CMP_A_1.pdb
 22 25 0 0 0
SMALL
GASTEIGER

@<TRIPOS>ATOM
      1  P         23.6640   35.4540   21.7680 P.3   401  CMP401      0.2141
      2  O1P       24.4160   35.9980   23.0230 O.3   401  CMP401     -0.4373
      3  O2P       22.2360   35.7130   21.6720 O.2   401  CMP401     -0.5172
      4  O5'       24.5990   36.0120   20.5840 O.3   401  CMP401     -0.3114
      5  C5'       25.8020   35.4320   20.1380 C.3   401  CMP401      0.1812
      6  C4'       25.7170   33.9170   20.0120 C.3   401  CMP401      0.1793
      7  O4'       26.9570   33.2220   19.9410 O.3   401  CMP401     -0.3136
      8  C3'       25.1620   33.3920   21.3140 C.3   401  CMP401      0.1884
      9  O3'       23.9530   33.8600   21.8060 O.3   401  CMP401     -0.3111
     10  C2'       25.3190   31.8720   21.2520 C.3   401  CMP401      0.2541
     11  O2'       24.3720   31.3500   20.3310 O.3   401  CMP401     -0.2131
     12  C1'       26.6760   31.8770   20.4680 C.3   401  CMP401      0.3185
     13  N9        27.7770   31.4990   21.3060 N.pl3 401  CMP401     -0.1439
     14  C8        28.4220   32.2400   22.3280 C.3   401  CMP401      0.3377
     15  N7        29.4570   31.5780   22.8720 N.2   401  CMP401     -0.2095
     16  C5        29.4930   30.3460   22.2090 C.2   401  CMP401      0.2526
     17  C6        30.3120   29.1840   22.3050 C.2   401  CMP401      0.4393
     18  N6        31.3530   29.1340   23.1970 N.pl3 401  CMP401      0.2180
     19  N1        30.0470   28.1190   21.4890 N.2   401  CMP401      0.0021
     20  C2        29.0280   28.2090   20.6050 C.3   401  CMP401      0.5254
     21  N3        28.1750   29.2340   20.3910 N.2   401  CMP401     -0.0055
     22  C4        28.4490   30.2850   21.2010 C.2   401  CMP401      0.3518
@<TRIPOS>BOND
     1     7     6    1
     2     7    12    1
     3     6     5    1
     4     6     8    1
     5     5     4    1
     6    11    10    1
     7    21    20    1
     8    21    22    2
     9    12    10    1
    10    12    13    1
    11     4     1    1
    12    20    19    1
    13    22    13    1
    14    22    16    1
    15    10     8    1
    16    13    14    1
    17     8     9    1
    18    19    17    2
    19     3     1    2
    20     1     9    1
    21     1     2    1
    22    16    17    1
    23    16    15    2
    24    17    18    1
    25    14    15    1
