@<TRIPOS>MOLECULE
2ptq_AMP_A_1.pdb
 23 25 0 0 0
SMALL
GASTEIGER

@<TRIPOS>ATOM
      1  P         35.0240  -19.0650   21.3240 P.3   2200  AMP2200     0.5327
      2  O1P       35.9130  -18.4670   22.4310 O.3   2200  AMP2200    -0.1145
      3  O2P       35.8330  -19.9990   20.4980 O.3   2200  AMP2200    -0.1145
      4  O3P       34.4730  -17.9320   20.4380 O.2   2200  AMP2200    -0.2224
      5  O5'       33.7790  -19.8760   21.9640 O.3   2200  AMP2200    -0.2675
      6  C5'       32.8320  -19.2500   22.8110 C.3   2200  AMP2200     0.1860
      7  C4'       31.9240  -20.2840   23.4930 C.3   2200  AMP2200     0.1823
      8  O4'       31.0870  -19.6460   24.4460 O.3   2200  AMP2200    -0.3135
      9  C3'       31.0060  -20.9860   22.5020 C.3   2200  AMP2200     0.2184
     10  O3'       31.1340  -22.3770   22.7450 O.3   2200  AMP2200    -0.2174
     11  C2'       29.6100  -20.5110   22.8370 C.3   2200  AMP2200     0.2570
     12  O2'       28.6000  -21.4700   22.6800 O.3   2200  AMP2200    -0.2130
     13  C1'       29.7140  -19.9810   24.2410 C.3   2200  AMP2200     0.3186
     14  N9        28.9140  -18.7810   24.5740 N.pl3 2200  AMP2200    -0.1439
     15  C8        27.9750  -18.1420   23.7980 C.3   2200  AMP2200     0.3377
     16  N7        27.4760  -17.0770   24.4790 N.2   2200  AMP2200    -0.2095
     17  C5        28.0910  -17.0400   25.6770 C.2   2200  AMP2200     0.2526
     18  C6        27.9530  -16.1550   26.7460 C.2   2200  AMP2200     0.4393
     19  N6        27.0950  -15.1380   26.6720 N.pl3 2200  AMP2200     0.2180
     20  N1        28.7460  -16.3790   27.8890 N.2   2200  AMP2200     0.0021
     21  C2        29.6450  -17.4410   27.9680 C.3   2200  AMP2200     0.5254
     22  N3        29.7790  -18.3230   26.8880 N.2   2200  AMP2200    -0.0055
     23  C4        29.0000  -18.1060   25.7620 C.2   2200  AMP2200     0.3518
@<TRIPOS>BOND
     1     4     1    2
     2     3     1    1
     3     1     5    1
     4     1     2    1
     5     5     6    1
     6     9    10    1
     7     9    11    1
     8     9     7    1
     9    12    11    1
    10     6     7    1
    11    11    13    1
    12     7     8    1
    13    15    16    1
    14    15    14    1
    15    13     8    1
    16    13    14    1
    17    16    17    2
    18    14    23    1
    19    17    23    1
    20    17    18    1
    21    23    22    2
    22    19    18    1
    23    18    20    2
    24    22    21    1
    25    20    21    1
