@<TRIPOS>MOLECULE
2ptr_2SA_B_1.pdb
 31 33 0 0 0
SMALL
GASTEIGER

@<TRIPOS>ATOM
      1  PA        65.4500  -17.4650   16.5930 P.3   1100  2SA1100     0.5327
      2  O1A       64.8590  -18.6090   17.3960 O.3   1100  2SA1100    -0.1145
      3  O2A       64.5680  -17.1190   15.4140 O.2   1100  2SA1100    -0.2224
      4  O3A       65.7000  -16.2390   17.4620 O.3   1100  2SA1100    -0.1145
      5  O5'       66.9090  -18.0250   16.0240 O.3   1100  2SA1100    -0.2675
      6  C5'       67.6630  -17.7010   15.1410 C.3   1100  2SA1100     0.1860
      7  C4'       68.5760  -18.5760   14.3030 C.3   1100  2SA1100     0.1823
      8  O4'       69.3150  -17.7340   13.3480 O.3   1100  2SA1100    -0.3135
      9  C1'       70.6360  -18.0990   13.5440 C.3   1100  2SA1100     0.3186
     10  N9        71.5100  -17.0070   13.0750 N.pl3 1100  2SA1100    -0.1439
     11  C4        71.2860  -16.2290   11.9530 C.2   1100  2SA1100     0.3517
     12  N3        70.2290  -16.2980   11.0790 N.2   1100  2SA1100    -0.0055
     13  C2        70.3280  -15.3880   10.0900 C.3   1100  2SA1100     0.5253
     14  N1        71.3070  -14.4730    9.8900 N.2   1100  2SA1100    -0.0020
     15  C6        72.3610  -14.4300   10.7800 C.2   1100  2SA1100     0.3859
     16  N6        73.4770  -13.5900   10.5380 N.pl3 1100  2SA1100    -0.0218
     17  C61       74.7780  -14.1230   10.1640 C.3   1100  2SA1100     0.3175
     18  C62       75.6770  -12.9840   10.6290 C.2   1100  2SA1100     0.4115
     19  C63       75.1020  -14.8690    8.7690 C.3   1100  2SA1100     0.1768
     20  C64       74.8270  -16.2490    8.3650 C.2   1100  2SA1100     0.3697
     21  O65       76.6890  -13.2920   11.3520 O.co2 1100  2SA1100    -0.2410
     22  O66       75.3830  -11.8020   10.2810 O.co2 1100  2SA1100    -0.2410
     23  O67       74.4410  -17.0900    9.1910 O.co2 1100  2SA1100    -0.2455
     24  O68       75.0750  -16.5020    7.1810 O.co2 1100  2SA1100    -0.2455
     25  C5        72.3670  -15.3540   11.8870 C.2   1100  2SA1100     0.2478
     26  N7        73.2570  -15.5720   12.9360 N.2   1100  2SA1100    -0.2097
     27  C8        72.7130  -16.5540   13.6100 C.3   1100  2SA1100     0.3377
     28  C2'       70.8750  -18.4050   14.9690 C.3   1100  2SA1100     0.2570
     29  O2'       72.1240  -19.0500   15.2020 O.3   1100  2SA1100    -0.2130
     30  C3'       69.6250  -19.2500   15.1980 C.3   1100  2SA1100     0.2184
     31  O3'       69.7940  -20.5930   14.7940 O.3   1100  2SA1100    -0.2174
@<TRIPOS>BOND
     1    24    20   ar
     2    20    19    1
     3    20    23   ar
     4    19    17    1
     5    14    13    1
     6    14    15    2
     7    13    12    1
     8    17    16    1
     9    17    18    1
    10    22    18   ar
    11    16    15    1
    12    18    21   ar
    13    15    25    1
    14    12    11    2
    15    25    11    1
    16    25    26    2
    17    11    10    1
    18    26    27    1
    19    10     9    1
    20    10    27    1
    21     8     9    1
    22     8     7    1
    23     9    28    1
    24     7     6    1
    25     7    30    1
    26    31    30    1
    27    28    30    1
    28    28    29    1
    29     6     5    1
    30     3     1    2
    31     5     1    1
    32     1     2    1
    33     1     4    1
