@<TRIPOS>MOLECULE
2pty_PEP_A_1.pdb
 10 9 0 0 0
SMALL
GASTEIGER

@<TRIPOS>ATOM
      1  C1        13.8490   29.2780   36.4000 C.2   600  PEP600      0.3919
      2  O1        14.8160   29.8130   35.8340 O.co2 600  PEP600     -0.2429
      3  O2'       14.0370   28.3540   37.2370 O.co2 600  PEP600     -0.2429
      4  C2        12.4810   29.8460   36.0640 C.3   600  PEP600      0.2285
      5  C3        12.2270   30.0800   34.5580 C.3   600  PEP600      0.0450
      6  O2        11.4760   29.0650   36.7240 O.3   600  PEP600     -0.2611
      7  P         10.6870   29.6110   38.0410 P.3   600  PEP600      0.5330
      8  O1P       11.7980   29.6400   39.0270 O.3   600  PEP600     -0.1145
      9  O2P        9.6560   28.5430   38.2620 O.3   600  PEP600     -0.1145
     10  O3P       10.1480   30.9530   37.6480 O.2   600  PEP600     -0.2224
@<TRIPOS>BOND
     1     5     4    1
     2     2     1   ar
     3     4     1    1
     4     4     6    1
     5     1     3   ar
     6     6     7    1
     7    10     7    2
     8     7     9    1
     9     7     8    1
