@<TRIPOS>MOLECULE
2pu1_FSG_A_1.pdb
 10 9 0 0 0
SMALL
GASTEIGER

@<TRIPOS>ATOM
      1  O1P       26.6900   24.4750  -16.8690 O.2   600  FSG600     -0.4570
      2  P         26.4250   25.8380  -16.3870 P.3   600  FSG600      0.1559
      3  O3P       27.6630   26.5850  -16.1440 O.3   600  FSG600     -0.3551
      4  O2P       25.4870   25.9090  -15.2800 O.3   600  FSG600     -0.3551
      5  C1        25.6410   26.7240  -17.7910 C.3   600  FSG600      0.2560
      6  F         25.8300   28.0530  -17.6240 F     600  FSG600     -0.2224
      7  C2        24.1600   26.5140  -17.8150 C.2   600  FSG600      0.1269
      8  O2        23.4380   27.1010  -17.0480 O.2   600  FSG600     -0.5369
      9  N3        23.7290   25.6730  -18.7300 N.am  600  FSG600     -0.1997
     10  O3        22.4060   25.3770  -18.8540 O.3   600  FSG600     -0.4026
@<TRIPOS>BOND
     1    10     9    1
     2     9     7   am
     3     7     5    1
     4     7     8    2
     5     5     6    1
     6     5     2    1
     7     1     2    2
     8     2     3    1
     9     2     4    1
