@<TRIPOS>MOLECULE
2pu2_DK2_A_1.pdb
 26 28 0 0 0
SMALL
GASTEIGER

@<TRIPOS>ATOM
      1  O11       26.2870    5.7260   14.5780 O.2   702  DK2702     -0.2695
      2  C7        24.9910    5.7100   14.5920 C.2   702  DK2702      0.2555
      3  C5        24.1830    5.3260   13.4120 C.ar  702  DK2702      0.0584
      4  C4        22.8610    5.4360   13.8190 C.ar  702  DK2702      0.0586
      5  C3        21.8120    5.1480   12.9500 C.ar  702  DK2702      0.0112
      6  C6        24.5120    4.9110   12.1390 C.ar  702  DK2702      0.0049
      7  C1        23.4710    4.6160   11.2630 C.ar  702  DK2702      0.0067
      8  C2        22.1350    4.7190   11.6600 C.ar  702  DK2702      0.0799
      9  C23       21.0830    4.3940   10.6400 C.2   702  DK2702      0.3878
     10  O24       21.3650    4.6380    9.4370 O.co2 702  DK2702     -0.2406
     11  O25       19.9760    3.8910   10.9690 O.co2 702  DK2702     -0.2406
     12  N8        24.2540    6.0390   15.6700 N.am  702  DK2702     -0.2133
     13  C9        22.9700    5.8910   15.2410 C.2   702  DK2702      0.2555
     14  O10       21.9320    6.1140   15.9700 O.2   702  DK2702     -0.2695
     15  C12       24.7830    6.5010   16.9940 C.3   702  DK2702      0.1900
     16  C13       25.8200    5.5510   17.5100 C.2   702  DK2702      0.3832
     17  O14       26.8510    6.0230   18.0410 O.co2 702  DK2702     -0.2438
     18  O15       25.6290    4.3330   17.3590 O.co2 702  DK2702     -0.2438
     19  C16       25.3860    7.9060   16.8150 C.3   702  DK2702      0.0582
     20  C17       24.2960    8.8280   16.3140 C.ar  702  DK2702     -0.0197
     21  C18       24.1500    9.0610   14.9420 C.ar  702  DK2702     -0.0009
     22  C19       23.1250    9.8930   14.4900 C.ar  702  DK2702      0.0417
     23  C20       22.2530   10.4790   15.4130 C.ar  702  DK2702      0.1957
     24  O26       21.2490   11.2830   14.9720 O.3   702  DK2702     -0.2866
     25  C21       22.3890   10.2350   16.7860 C.ar  702  DK2702      0.0417
     26  C22       23.4160    9.4070   17.2350 C.ar  702  DK2702     -0.0009
@<TRIPOS>BOND
     1    10     9   ar
     2     9    11   ar
     3     9     8    1
     4     7     8   ar
     5     7     6   ar
     6     8     5   ar
     7     6     3   ar
     8     5     4   ar
     9     3     4   ar
    10     3     2    1
    11     4    13    1
    12    22    21   ar
    13    22    23   ar
    14     1     2    2
    15     2    12   am
    16    21    20   ar
    17    24    23    1
    18    13    12   am
    19    13    14    2
    20    23    25   ar
    21    12    15    1
    22    20    19    1
    23    20    26   ar
    24    25    26   ar
    25    19    15    1
    26    15    16    1
    27    18    16   ar
    28    16    17   ar
