@<TRIPOS>MOLECULE
2pu4_OX6_A_1.pdb
 17 17 0 0 0
SMALL
GASTEIGER

@<TRIPOS>ATOM
      1  C1        29.0160   -2.5030   -3.3350 C.ar  901  OX6901      0.3057
      2  O12       25.8750    0.2220   -1.1990 O.2   901  OX6901     -0.2246
      3  C8        25.4600   -0.8640   -1.5520 C.2   901  OX6901      0.4213
      4  O9        24.2200   -0.8960   -2.3060 O.3   901  OX6901     -0.4408
      5  C10       23.7390    0.3300   -2.8790 C.3   901  OX6901      0.1379
      6  C14       23.6910    1.4510   -1.8340 C.3   901  OX6901      0.0437
      7  C13       22.3280    0.1700   -3.4120 C.3   901  OX6901      0.0437
      8  C11       24.6700    0.6570   -4.0450 C.3   901  OX6901      0.0437
      9  N7        26.1630   -1.9130   -1.1630 N.am  901  OX6901     -0.1609
     10  C6        26.0190   -3.3130   -1.4650 C.3   901  OX6901      0.1760
     11  C15       26.4460   -4.0530   -0.1900 C.3   901  OX6901      0.0292
     12  C17       25.2550   -4.7150    0.4980 C.3   901  OX6901      0.0023
     13  C16       27.5610   -5.0800   -0.3760 C.3   901  OX6901      0.0023
     14  C3        27.1030   -3.2980   -2.4810 C.ar  901  OX6901      0.2463
     15  O2        28.0850   -2.3740   -2.2150 O.2   901  OX6901     -0.4143
     16  N5        28.5430   -3.4550   -4.1670 N.ar  901  OX6901     -0.1022
     17  N4        27.3350   -3.9440   -3.6350 N.ar  901  OX6901     -0.1094
@<TRIPOS>BOND
     1    16    17   ar
     2    16     1   ar
     3     8     5    1
     4    17    14   ar
     5     7     5    1
     6     1    15   ar
     7     5     4    1
     8     5     6    1
     9    14    15   ar
    10    14    10    1
    11     4     3    1
    12     3     2    2
    13     3     9   am
    14    10     9    1
    15    10    11    1
    16    13    11    1
    17    11    12    1
