@<TRIPOS>MOLECULE
2pu4_OX7_B_1.pdb
 17 17 0 0 0
SMALL
GASTEIGER

@<TRIPOS>ATOM
      1  C1        29.6440   32.8270  -37.8830 C.ar  902  OX7902      0.3057
      2  O12       26.5080   30.5810  -40.1910 O.2   902  OX7902     -0.2246
      3  C8        26.1130   31.6700  -39.8500 C.2   902  OX7902      0.4213
      4  O9        24.8190   31.7120  -39.1790 O.3   902  OX7902     -0.4408
      5  C10       24.2300   30.4770  -38.6600 C.3   902  OX7902      0.1379
      6  C14       24.5560   29.2360  -39.4830 C.3   902  OX7902      0.0437
      7  C13       22.7140   30.6080  -38.6020 C.3   902  OX7902      0.0437
      8  C11       24.7160   30.2000  -37.2510 C.3   902  OX7902      0.0437
      9  N7        26.8900   32.6110  -40.3390 N.am  902  OX7902     -0.1609
     10  C6        27.3290   33.9810  -40.2870 C.3   902  OX7902      0.1760
     11  C15       26.6130   35.2470  -40.7440 C.3   902  OX7902      0.0292
     12  C17       25.8540   35.1010  -42.0630 C.3   902  OX7902      0.0023
     13  C16       27.7520   36.2180  -41.0110 C.3   902  OX7902      0.0023
     14  C3        28.1400   33.9080  -39.0760 C.ar  902  OX7902      0.2463
     15  O2        28.9420   32.8030  -39.1640 O.2   902  OX7902     -0.4143
     16  N5        29.2240   33.8950  -37.1750 N.ar  902  OX7902     -0.1022
     17  N4        28.2550   34.5750  -37.9150 N.ar  902  OX7902     -0.1094
@<TRIPOS>BOND
     1    12    11    1
     2    13    11    1
     3    11    10    1
     4     9    10    1
     5     9     3   am
     6    10    14    1
     7     2     3    2
     8     3     4    1
     9     6     5    1
    10     4     5    1
    11    15    14   ar
    12    15     1   ar
    13    14    17   ar
    14     5     7    1
    15     5     8    1
    16    17    16   ar
    17     1    16   ar
