@<TRIPOS>MOLECULE
2pua_6MP_A_1.pdb
 10 11 0 0 0
SMALL
GASTEIGER

@<TRIPOS>ATOM
      1  N9        58.4780    5.8250  -10.1830 N.2   599  6MP599     -0.1916
      2  C4        57.9170    4.5790  -10.3310 C.1   599  6MP599      0.0493
      3  N3        58.1570    3.4990   -9.5550 N.2   599  6MP599     -0.1917
      4  C2        57.4760    2.4450   -9.9710 C.3   599  6MP599      0.2607
      5  N1        56.6130    2.4510  -11.0400 N.2   599  6MP599     -0.2458
      6  C6        56.3290    3.5620  -11.8240 C.2   599  6MP599      0.0830
      7  C7        55.3070    3.4560  -12.9660 C.3   599  6MP599      0.0541
      8  C5        57.0730    4.6870  -11.4110 C.2   599  6MP599      0.1526
      9  N7        57.1010    5.9710  -11.9350 N.2   599  6MP599     -0.2323
     10  C8        57.9540    6.6030  -11.1820 C.3   599  6MP599      0.2616
@<TRIPOS>BOND
     1     7     6    1
     2     9     8    2
     3     9    10    1
     4     6     8    1
     5     6     5    2
     6     8     2    1
     7    10     1    1
     8     5     4    1
     9     2     1    2
    10     2     3    2
    11     4     3    1
