@<TRIPOS>MOLECULE
2pub_ADE_A_1.pdb
 10 11 0 0 0
SMALL
GASTEIGER

@<TRIPOS>ATOM
      1  N9        58.5780    5.9550  -10.1330 N.2   599  ADE599     -0.1914
      2  C8        58.1260    6.6310  -11.2350 C.3   599  ADE599      0.2618
      3  N7        57.3370    5.9150  -11.9850 N.2   599  ADE599     -0.2267
      4  C5        57.2810    4.6750  -11.3680 C.2   599  ADE599      0.2303
      5  C6        56.5970    3.4820  -11.7120 C.2   599  ADE599      0.4393
      6  N6        55.7950    3.2780  -12.7550 N.pl3 599  ADE599      0.2185
      7  N1        56.8330    2.4510  -10.8160 N.2   599  ADE599     -0.0265
      8  C2        57.6230    2.5620   -9.7050 C.3   599  ADE599      0.4008
      9  N3        58.2560    3.6740   -9.3560 N.2   599  ADE599     -0.1640
     10  C4        58.0550    4.6860  -10.2310 C.1   599  ADE599      0.0579
@<TRIPOS>BOND
     1     6     5    1
     2     3     4    2
     3     3     2    1
     4     5     4    1
     5     5     7    2
     6     4    10    1
     7     2     1    1
     8     7     8    1
     9    10     1    2
    10    10     9    2
    11     8     9    1
