@<TRIPOS>MOLECULE
2pud_HPA_A_1.pdb
 10 11 0 0 0
SMALL
GASTEIGER

@<TRIPOS>ATOM
      1  N1        57.1070    2.6890  -10.7950 N.2   599  HPA599     -0.1726
      2  C2        58.0050    2.8120   -9.7610 C.3   599  HPA599      0.2725
      3  N3        58.6470    3.9310   -9.4670 N.2   599  HPA599     -0.1902
      4  C4        58.3320    4.9390  -10.3100 C.1   599  HPA599      0.0598
      5  C5        57.4510    4.9170  -11.3630 C.2   599  HPA599      0.2226
      6  C6        56.7670    3.7130  -11.6680 C.1   599  HPA599      0.1796
      7  O6        55.9390    3.4840  -12.5540 O.2   599  HPA599     -0.2200
      8  N7        57.4520    6.1440  -12.0040 N.2   599  HPA599     -0.2230
      9  C8        58.2800    6.8770  -11.3200 C.3   599  HPA599      0.2622
     10  N9        58.8520    6.2090  -10.2710 N.2   599  HPA599     -0.1910
@<TRIPOS>BOND
     1     7     6    2
     2     8     5    2
     3     8     9    1
     4     6     5    1
     5     6     1    2
     6     5     4    1
     7     9    10    1
     8     1     2    1
     9     4    10    2
    10     4     3    2
    11     2     3    1
