@<TRIPOS>MOLECULE
2pue_ADE_A_1.pdb
 10 11 0 0 0
SMALL
GASTEIGER

@<TRIPOS>ATOM
      1  N9        58.6820    6.3930  -10.2210 N.2   599  ADE599     -0.1914
      2  C8        58.0110    7.0010  -11.2530 C.3   599  ADE599      0.2618
      3  N7        57.1530    6.2180  -11.8440 N.2   599  ADE599     -0.2267
      4  C5        57.2750    5.0150  -11.1660 C.2   599  ADE599      0.2303
      5  C6        56.6120    3.7860  -11.3640 C.2   599  ADE599      0.4393
      6  N6        55.7040    3.5450  -12.3110 N.pl3 599  ADE599      0.2185
      7  N1        57.0090    2.8010  -10.4660 N.2   599  ADE599     -0.0265
      8  C2        57.9460    2.9970   -9.4770 C.3   599  ADE599      0.4008
      9  N3        58.5740    4.1490   -9.2670 N.2   599  ADE599     -0.1640
     10  C4        58.2020    5.1050  -10.1560 C.1   599  ADE599      0.0579
@<TRIPOS>BOND
     1     6     5    1
     2     3     2    1
     3     3     4    2
     4     5     4    1
     5     5     7    2
     6     2     1    1
     7     4    10    1
     8     7     8    1
     9     1    10    2
    10    10     9    2
    11     8     9    1
