@<TRIPOS>MOLECULE
2puf_GUN_A_1.pdb
 11 12 0 0 0
SMALL
GASTEIGER

@<TRIPOS>ATOM
      1  N9        58.6790    6.0580  -10.4440 N.2   599  GUN599     -0.1802
      2  C8        57.9460    6.8710  -11.2710 C.3   599  GUN599      0.2633
      3  N7        56.9580    6.2620  -11.8560 N.2   599  GUN599     -0.2212
      4  C5        57.0390    4.9580  -11.3920 C.2   599  GUN599      0.2482
      5  C6        56.2300    3.8340  -11.6840 C.1   599  GUN599      0.2442
      6  O6        55.2500    3.7700  -12.4340 O.2   599  GUN599     -0.2063
      7  N1        56.6580    2.7000  -10.9980 N.2   599  GUN599     -0.2474
      8  C2        57.7290    2.6580  -10.1410 C.1   599  GUN599      0.2608
      9  N2        57.9840    1.4740   -9.5740 N.pl3 599  GUN599     -0.0220
     10  N3        58.4930    3.7040   -9.8590 N.2   599  GUN599     -0.2682
     11  C4        58.0920    4.8160  -10.5200 C.1   599  GUN599      0.1289
@<TRIPOS>BOND
     1     6     5    2
     2     3     4    2
     3     3     2    1
     4     5     4    1
     5     5     7    2
     6     4    11    1
     7     2     1    1
     8     7     8    2
     9    11     1    2
    10    11    10    2
    11     8    10    2
    12     8     9    1
