@<TRIPOS>MOLECULE
2pug_HPA_A_1.pdb
 10 11 0 0 0
SMALL
GASTEIGER

@<TRIPOS>ATOM
      1  N1        56.8410    2.7520  -10.9460 N.2   599  HPA599     -0.1726
      2  C2        57.7750    2.7420   -9.9330 C.3   599  HPA599      0.2725
      3  N3        58.4690    3.8060   -9.5510 N.2   599  HPA599     -0.1902
      4  C4        58.1550    4.8970  -10.2910 C.1   599  HPA599      0.0598
      5  C5        57.2420    5.0120  -11.3170 C.2   599  HPA599      0.2226
      6  C6        56.4910    3.8730  -11.6970 C.1   599  HPA599      0.1796
      7  O6        55.6320    3.7820  -12.5850 O.2   599  HPA599     -0.2200
      8  N7        57.2090    6.3100  -11.8080 N.2   599  HPA599     -0.2230
      9  C8        58.0810    6.9490  -11.0810 C.3   599  HPA599      0.2622
     10  N9        58.6690    6.1600  -10.1210 N.2   599  HPA599     -0.1910
@<TRIPOS>BOND
     1     7     6    2
     2     8     5    2
     3     8     9    1
     4     6     5    1
     5     6     1    2
     6     5     4    1
     7     9    10    1
     8     1     2    1
     9     4    10    2
    10     4     3    2
    11     2     3    1
