@<TRIPOS>MOLECULE
2puh_HPK_A_1.pdb
 16 16 0 0 0
SMALL
GASTEIGER

@<TRIPOS>ATOM
      1  CB3        4.6360   14.2640  -15.8830 C.ar  289  HPK289      0.0001
      2  CB4        4.5810   13.2390  -14.9360 C.ar  289  HPK289      0.0000
      3  CB5        3.3800   12.6160  -14.6530 C.ar  289  HPK289      0.0001
      4  CB6        2.2290   12.9920  -15.3420 C.ar  289  HPK289      0.0029
      5  CB1        2.2730   14.0280  -16.2850 C.ar  289  HPK289      0.0350
      6  CB2        3.4880   14.6650  -16.5590 C.ar  289  HPK289      0.0029
      7  CA6        1.0130   14.4460  -17.0090 C.2   289  HPK289      0.1774
      8  OA4        0.8820   15.6280  -17.3410 O.2   289  HPK289     -0.2910
      9  CA5       -0.0300   13.3680  -17.2330 C.3   289  HPK289      0.0952
     10  CA4       -1.4650   13.8320  -17.3420 C.2   289  HPK289     -0.0145
     11  CA3       -1.8300   14.6280  -18.3490 C.2   289  HPK289      0.0449
     12  CA2       -3.2270   15.0860  -18.4590 C.2   289  HPK289      0.2744
     13  OA3       -4.0690   14.8470  -17.5770 O.2   289  HPK289     -0.2795
     14  CA1       -3.5720   15.8130  -19.6840 C.2   289  HPK289      0.4260
     15  OA2       -4.7270   16.2500  -19.8390 O.co2 289  HPK289     -0.2369
     16  OA1       -2.6940   15.9500  -20.5620 O.co2 289  HPK289     -0.2369
@<TRIPOS>BOND
     1    16    14   ar
     2    15    14   ar
     3    14    12    1
     4    12    11    1
     5    12    13    2
     6    11    10    2
     7    10     9    1
     8     8     7    2
     9     9     7    1
    10     7     5    1
    11     6     5   ar
    12     6     1   ar
    13     5     4   ar
    14     1     2   ar
    15     4     3   ar
    16     2     3   ar
