@<TRIPOS>MOLECULE
2pui_ADP_A_1.pdb
 27 29 0 0 0
SMALL
GASTEIGER

@<TRIPOS>ATOM
      1  PB        71.1980   28.9420   14.3250 P.3   999  ADP999      0.5373
      2  O1B       70.2760   29.6960   13.4060 O.2   999  ADP999     -0.2221
      3  O2B       70.9300   27.4370   14.3640 O.3   999  ADP999     -0.1143
      4  O3B       72.6780   29.2920   14.2470 O.3   999  ADP999     -0.1143
      5  PA        71.3920   29.5550   17.1510 P.3   999  ADP999      0.2231
      6  O1A       70.6930   28.5740   18.0730 O.3   999  ADP999     -0.4370
      7  O2A       72.8890   29.4090   16.9450 O.2   999  ADP999     -0.5169
      8  O3A       70.6620   29.5450   15.7200 O.3   999  ADP999     -0.2261
      9  O5'       71.0550   31.0250   17.7320 O.3   999  ADP999     -0.3111
     10  C5'       71.0970   32.1960   16.9030 C.3   999  ADP999      0.1813
     11  C4'       71.3480   33.4530   17.7380 C.3   999  ADP999      0.1821
     12  O4'       70.1540   33.8070   18.4520 O.3   999  ADP999     -0.3135
     13  C3'       72.4200   33.2580   18.8060 C.3   999  ADP999      0.2184
     14  O3'       73.7470   33.5440   18.3750 O.3   999  ADP999     -0.2174
     15  C2'       71.9790   34.1920   19.9190 C.3   999  ADP999      0.2570
     16  O2'       72.5260   35.5080   19.7540 O.3   999  ADP999     -0.2130
     17  C1'       70.4510   34.1700   19.8010 C.3   999  ADP999      0.3186
     18  N9        70.0070   33.0860   20.7230 N.pl3 999  ADP999     -0.1439
     19  C8        69.8460   31.7730   20.4290 C.3   999  ADP999      0.3377
     20  N7        69.4580   31.1110   21.5430 N.2   999  ADP999     -0.2095
     21  C5        69.3940   32.0120   22.5470 C.2   999  ADP999      0.2526
     22  C6        69.0710   31.9300   23.8910 C.2   999  ADP999      0.4393
     23  N6        68.7250   30.7470   24.4480 N.pl3 999  ADP999      0.2180
     24  N1        69.0980   33.0590   24.6420 N.2   999  ADP999      0.0021
     25  C2        69.4460   34.2430   24.1170 C.3   999  ADP999      0.5254
     26  N3        69.7650   34.3500   22.8180 N.2   999  ADP999     -0.0055
     27  C4        69.7460   33.2560   22.0230 C.2   999  ADP999      0.3518
@<TRIPOS>BOND
     1     2     1    2
     2     4     1    1
     3     1     3    1
     4     1     8    1
     5     8     5    1
     6    10     9    1
     7    10    11    1
     8     7     5    2
     9     5     9    1
    10     5     6    1
    11    11    12    1
    12    11    13    1
    13    14    13    1
    14    12    17    1
    15    13    15    1
    16    16    15    1
    17    17    15    1
    18    17    18    1
    19    19    18    1
    20    19    20    1
    21    18    27    1
    22    20    21    2
    23    27    21    1
    24    27    26    2
    25    21    22    1
    26    26    25    1
    27    22    23    1
    28    22    24    2
    29    25    24    1
