@<TRIPOS>MOLECULE
2puj_HPZ_A_1.pdb
 16 16 0 0 0
SMALL
GASTEIGER

@<TRIPOS>ATOM
      1  CB3        3.8600   14.3200  -14.9860 C.ar  289  HPZ289      0.0001
      2  CB4        3.7160   12.9990  -14.5690 C.ar  289  HPZ289      0.0000
      3  CB5        2.5920   12.2580  -14.9500 C.ar  289  HPZ289      0.0001
      4  CB6        1.5890   12.8240  -15.7620 C.ar  289  HPZ289      0.0032
      5  CB1        1.7410   14.1410  -16.1820 C.ar  289  HPZ289      0.0390
      6  CB2        2.8700   14.8770  -15.8040 C.ar  289  HPZ289      0.0032
      7  CA6        0.7070   14.7980  -17.0590 C.2   289  HPZ289      0.1956
      8  OA4        0.5770   16.0000  -16.9490 O.2   289  HPZ289     -0.2866
      9  CA5       -0.0710   14.0670  -18.0800 C.2   289  HPZ289      0.0421
     10  CA4       -1.1450   14.6320  -18.6530 C.2   289  HPZ289      0.0068
     11  CA3       -1.8620   13.9160  -19.7120 C.2   289  HPZ289      0.0491
     12  CA2       -2.8310   14.4540  -20.4950 C.2   289  HPZ289      0.2747
     13  OA3       -3.3860   13.7000  -21.4430 O.2   289  HPZ289     -0.2795
     14  CA1       -3.3620   15.8090  -20.3570 C.2   289  HPZ289      0.4260
     15  OA2       -4.6020   15.9660  -20.4300 O.co2 289  HPZ289     -0.2369
     16  OA1       -2.6260   16.7940  -20.1960 O.co2 289  HPZ289     -0.2369
@<TRIPOS>BOND
     1    13    12    1
     2    12    14    1
     3    12    11    2
     4    15    14   ar
     5    14    16   ar
     6    11    10    1
     7    10     9    2
     8     9     7    1
     9     7     8    2
    10     7     5    1
    11     5     6   ar
    12     5     4   ar
    13     6     1   ar
    14     4     3   ar
    15     1     2   ar
    16     3     2   ar
