@<TRIPOS>MOLECULE
2pul_ACP_A_1.pdb
 31 33 0 0 0
SMALL
GASTEIGER

@<TRIPOS>ATOM
      1  PG       -73.2940  -28.6750   12.9900 P.3   999  ACP999      0.1295
      2  O1G      -72.6190  -28.5900   11.6620 O.2   999  ACP999     -0.4595
      3  O2G      -73.3910  -27.3430   13.6910 O.3   999  ACP999     -0.3567
      4  O3G      -74.7310  -29.2370   12.8220 O.3   999  ACP999     -0.3567
      5  PB       -70.8830  -29.5560   14.5770 P.3   999  ACP999      0.3815
      6  O1B      -69.8280  -30.0670   13.6600 O.2   999  ACP999     -0.2547
      7  O2B      -70.7110  -28.0820   14.8250 O.3   999  ACP999     -0.1391
      8  C3B      -72.3600  -29.7990   14.0700 C.3   999  ACP999      0.1768
      9  PA       -71.3540  -30.1040   17.3780 P.3   999  ACP999      0.2209
     10  O1A      -70.5400  -29.0420   18.1120 O.3   999  ACP999     -0.4371
     11  O2A      -72.8520  -29.8900   17.2730 O.2   999  ACP999     -0.5170
     12  O3A      -70.6760  -30.2400   15.9720 O.3   999  ACP999     -0.2483
     13  O5'      -71.0390  -31.4620   18.0830 O.3   999  ACP999     -0.3111
     14  C5'      -71.0180  -32.7030   17.2760 C.3   999  ACP999      0.1813
     15  C4'      -71.2600  -33.9120   18.1760 C.3   999  ACP999      0.1821
     16  O4'      -70.0260  -34.1040   18.9550 O.3   999  ACP999     -0.3135
     17  C3'      -72.3270  -33.7110   19.2630 C.3   999  ACP999      0.2184
     18  O3'      -73.6560  -33.9680   18.7830 O.3   999  ACP999     -0.2174
     19  C2'      -71.8250  -34.6650   20.3530 C.3   999  ACP999      0.2570
     20  O2'      -72.2430  -36.0390   20.1290 O.3   999  ACP999     -0.2130
     21  C1'      -70.2790  -34.4990   20.3070 C.3   999  ACP999      0.3186
     22  N9       -69.8830  -33.3680   21.2220 N.pl3 999  ACP999     -0.1439
     23  C8       -69.6850  -32.0390   20.8800 C.3   999  ACP999      0.3377
     24  N7       -69.3480  -31.2650   21.9200 N.2   999  ACP999     -0.2095
     25  C5       -69.3150  -32.1340   22.9660 C.2   999  ACP999      0.2526
     26  C6       -69.0290  -31.9080   24.3430 C.2   999  ACP999      0.4393
     27  N6       -68.7210  -30.7740   24.8520 N.pl3 999  ACP999      0.2180
     28  N1       -69.1030  -33.0580   25.1270 N.2   999  ACP999      0.0021
     29  C2       -69.4470  -34.3280   24.6430 C.3   999  ACP999      0.5254
     30  N3       -69.7190  -34.5490   23.3430 N.2   999  ACP999     -0.0055
     31  C4       -69.6550  -33.4480   22.5700 C.2   999  ACP999      0.3518
@<TRIPOS>BOND
     1     2     1    2
     2     4     1    1
     3     1     3    1
     4     1     8    1
     5     6     5    2
     6     8     5    1
     7     5     7    1
     8     5    12    1
     9    12     9    1
    10    11     9    2
    11    14    13    1
    12    14    15    1
    13     9    13    1
    14     9    10    1
    15    15    16    1
    16    15    17    1
    17    18    17    1
    18    16    21    1
    19    17    19    1
    20    20    19    1
    21    21    19    1
    22    21    22    1
    23    23    22    1
    24    23    24    1
    25    22    31    1
    26    24    25    2
    27    31    25    1
    28    31    30    2
    29    25    26    1
    30    30    29    1
    31    26    27    1
    32    26    28    2
    33    29    28    1
