@<TRIPOS>MOLECULE
2pum_HEM_A_1.pdb
 43 50 0 0 0
SMALL
GASTEIGER

@<TRIPOS>ATOM
      1  CHA        8.5940    0.0550   28.9350 C.2   618  HEM618      0.0000
      2  CHB        9.1400    4.8290   28.8660 C.2   618  HEM618      0.0000
      3  CHC       11.0280    4.4920   24.4650 C.2   618  HEM618      0.0000
      4  CHD       11.0240   -0.2830   24.7470 C.2   618  HEM618      0.0000
      5  C1A        8.6520    1.3480   29.3320 C.2   618  HEM618      0.0000
      6  C2A        8.2210    1.8460   30.6190 C.2   618  HEM618      0.0000
      7  C3A        8.3560    3.1800   30.5730 C.2   618  HEM618      0.0000
      8  C4A        8.8680    3.5520   29.2800 C.2   618  HEM618      0.0000
      9  CMA        8.0770    4.1480   31.7250 C.3   618  HEM618      0.0000
     10  CAA        7.6940    1.0090   31.8270 C.3   618  HEM618      0.0000
     11  CBA        8.8190    0.1750   32.3910 C.3   618  HEM618      0.0000
     12  CGA        8.4200   -0.6800   33.5720 C.2   618  HEM618      0.0000
     13  O1A        7.5610   -0.1750   34.3410 O.co2 618  HEM618      0.0000
     14  O2A        8.9440   -1.8370   33.7790 O.co2 618  HEM618      0.0000
     15  C1B        9.6710    5.1690   27.6440 C.ar  618  HEM618      0.0000
     16  C2B        9.9550    6.5100   27.1740 C.ar  618  HEM618      0.0000
     17  C3B       10.4380    6.4130   25.9540 C.ar  618  HEM618      0.0000
     18  C4B       10.5510    5.0090   25.6360 C.ar  618  HEM618      0.0000
     19  CMB        9.6160    7.8380   27.8750 C.3   618  HEM618      0.0000
     20  CAB       10.8560    7.6140   25.0900 C.2   618  HEM618      0.0000
     21  CBB       11.0290    8.8350   25.6490 C.2   618  HEM618      0.0000
     22  C1C       11.1430    3.1770   24.1480 C.2   618  HEM618      0.0000
     23  C2C       11.6290    2.6670   22.8940 C.2   618  HEM618      0.0000
     24  C3C       11.6010    1.3150   22.9610 C.2   618  HEM618      0.0000
     25  C4C       11.1350    0.9670   24.2620 C.2   618  HEM618      0.0000
     26  CMC       12.0230    3.5500   21.6820 C.3   618  HEM618      0.0000
     27  CAC       12.0260    0.3080   21.8610 C.2   618  HEM618      0.0000
     28  CBC       12.8890    0.6290   20.8840 C.2   618  HEM618      0.0000
     29  C1D       10.3050   -0.6360   25.8580 C.ar  618  HEM618      0.0000
     30  C2D        9.9100   -1.9960   26.1500 C.ar  618  HEM618      0.0000
     31  C3D        9.1500   -1.9180   27.4640 C.ar  618  HEM618      0.0000
     32  C4D        9.1690   -0.4920   27.8180 C.ar  618  HEM618      0.0000
     33  CMD       10.2290   -3.2600   25.3400 C.3   618  HEM618      0.0000
     34  CAD        8.4850   -3.1100   28.2010 C.3   618  HEM618      0.0000
     35  CBD        6.9980   -3.1960   27.7770 C.3   618  HEM618      0.0000
     36  CGD        6.3050   -4.3010   28.5310 C.2   618  HEM618      0.0000
     37  O1D        6.3860   -5.5180   28.1560 O.co2 618  HEM618      0.0000
     38  O2D        5.6700   -3.9640   29.5510 O.co2 618  HEM618      0.0000
     39  NA         9.0300    2.4030   28.5360 N.2   618  HEM618      0.0000
     40  NB        10.0720    4.2650   26.6860 N.ar  618  HEM618      0.0000
     41  NC        10.8760    2.1110   24.9750 N.2   618  HEM618      0.0000
     42  ND         9.8480    0.2330   26.8510 N.ar  618  HEM618      0.0000
     43 FE         10.0710    2.2180   26.9170 Fe    618  HEM618      0.0000
@<TRIPOS>BOND
     1    28    27    2
     2    26    23    1
     3    27    24    1
     4    23    24    2
     5    23    22    1
     6    24    25    1
     7    22     3    2
     8    22    41    1
     9    25     4    1
    10    25    41    2
    11     3    18    1
    12     4    29    2
    13    41    43    1
    14    20    21    2
    15    20    17    1
    16    33    30    1
    17    18    17   ar
    18    18    40   ar
    19    29    30   ar
    20    29    42   ar
    21    17    16   ar
    22    30    31   ar
    23    40    43    1
    24    40    15   ar
    25    42    43    1
    26    42    32   ar
    27    43    39    1
    28    16    15   ar
    29    16    19    1
    30    31    32   ar
    31    31    34    1
    32    15     2    1
    33    35    34    1
    34    35    36    1
    35    32     1    2
    36    37    36   ar
    37    36    38   ar
    38    39     8    1
    39    39     5    2
    40     2     8    2
    41     1     5    1
    42     8     7    1
    43     5     6    1
    44     7     6    2
    45     7     9    1
    46     6    10    1
    47    10    11    1
    48    11    12    1
    49    12    14   ar
    50    12    13   ar
