@<TRIPOS>MOLECULE
2pun_SR1_A_1.pdb
 11 11 0 0 0
SMALL
GASTEIGER

@<TRIPOS>ATOM
      1  CS       -75.2780  -25.0530    5.4750 C.3   998  SR1998      0.0693
      2  S        -75.7320  -25.3180    7.1660 S.3   998  SR1998     -0.1367
      3  C5'      -77.4090  -25.8720    7.1460 C.3   998  SR1998      0.0899
      4  C4'      -78.0370  -25.6300    8.5210 C.3   998  SR1998      0.1616
      5  O4'      -77.2810  -26.2370    9.5870 O.3   998  SR1998     -0.3254
      6  C1'      -77.1200  -25.3020   10.6640 C.3   998  SR1998      0.3023
      7  O1'      -77.4110  -25.8920   11.9310 O.3   998  SR1998     -0.1869
      8  C2'      -78.0960  -24.1800   10.3840 C.3   998  SR1998      0.2433
      9  O2'      -79.3860  -24.4820   10.9340 O.3   998  SR1998     -0.2148
     10  C3'      -78.1330  -24.1540    8.8820 C.3   998  SR1998      0.2151
     11  O3'      -79.3200  -23.5490    8.3860 O.3   998  SR1998     -0.2176
@<TRIPOS>BOND
     1     1     2    1
     2     3     2    1
     3     3     4    1
     4    11    10    1
     5     4    10    1
     6     4     5    1
     7    10     8    1
     8     5     6    1
     9     8     6    1
    10     8     9    1
    11     6     7    1
