@<TRIPOS>MOLECULE
2pun_ACP_A_1.pdb
 31 33 0 0 0
SMALL
GASTEIGER

@<TRIPOS>ATOM
      1  PG       -73.2530  -28.9970   12.8080 P.3   999  ACP999      0.1295
      2  O1G      -72.7320  -28.9100   11.4090 O.2   999  ACP999     -0.4595
      3  O2G      -73.4250  -27.6420   13.4640 O.3   999  ACP999     -0.3567
      4  O3G      -74.6030  -29.7570   12.8800 O.3   999  ACP999     -0.3567
      5  PB       -70.8440  -29.5980   14.5580 P.3   999  ACP999      0.3815
      6  O1B      -69.7180  -30.0590   13.7100 O.2   999  ACP999     -0.2547
      7  O2B      -70.8230  -28.1230   14.8690 O.3   999  ACP999     -0.1391
      8  C3B      -72.2100  -29.9920   13.8960 C.3   999  ACP999      0.1768
      9  PA       -71.4630  -30.1970   17.3670 P.3   999  ACP999      0.2209
     10  O1A      -70.7800  -29.1760   18.2630 O.3   999  ACP999     -0.4371
     11  O2A      -72.9370  -30.0080   17.2010 O.2   999  ACP999     -0.5170
     12  O3A      -70.7000  -30.2630   16.0020 O.3   999  ACP999     -0.2483
     13  O5'      -71.1540  -31.5800   18.0650 O.3   999  ACP999     -0.3111
     14  C5'      -71.2720  -32.8490   17.3140 C.3   999  ACP999      0.1813
     15  C4'      -71.4450  -34.0400   18.2490 C.3   999  ACP999      0.1821
     16  O4'      -70.1790  -34.1670   18.9640 O.3   999  ACP999     -0.3135
     17  C3'      -72.4410  -33.8640   19.4040 C.3   999  ACP999      0.2184
     18  O3'      -73.7900  -34.1150   18.9590 O.3   999  ACP999     -0.2174
     19  C2'      -71.8280  -34.8010   20.4690 C.3   999  ACP999      0.2570
     20  O2'      -72.1640  -36.2080   20.3390 O.3   999  ACP999     -0.2130
     21  C1'      -70.2980  -34.5390   20.3270 C.3   999  ACP999      0.3186
     22  N9       -69.9540  -33.3630   21.2270 N.pl3 999  ACP999     -0.1439
     23  C8       -69.8110  -32.0260   20.9030 C.3   999  ACP999      0.3377
     24  N7       -69.5350  -31.2270   21.9440 N.2   999  ACP999     -0.2095
     25  C5       -69.4910  -32.0860   22.9870 C.2   999  ACP999      0.2526
     26  C6       -69.2470  -31.8550   24.3820 C.2   999  ACP999      0.4393
     27  N6       -68.9910  -30.7240   24.9190 N.pl3 999  ACP999      0.2180
     28  N1       -69.2950  -33.0070   25.1640 N.2   999  ACP999      0.0021
     29  C2       -69.5700  -34.2780   24.6610 C.3   999  ACP999      0.5254
     30  N3       -69.8060  -34.5110   23.3570 N.2   999  ACP999     -0.0055
     31  C4       -69.7610  -33.4110   22.5790 C.2   999  ACP999      0.3518
@<TRIPOS>BOND
     1     2     1    2
     2     1     4    1
     3     1     3    1
     4     1     8    1
     5     6     5    2
     6     8     5    1
     7     5     7    1
     8     5    12    1
     9    12     9    1
    10    11     9    2
    11    14    13    1
    12    14    15    1
    13     9    13    1
    14     9    10    1
    15    15    16    1
    16    15    17    1
    17    18    17    1
    18    16    21    1
    19    17    19    1
    20    21    19    1
    21    21    22    1
    22    20    19    1
    23    23    22    1
    24    23    24    1
    25    22    31    1
    26    24    25    2
    27    31    25    1
    28    31    30    2
    29    25    26    1
    30    30    29    1
    31    26    27    1
    32    26    28    2
    33    29    28    1
