@<TRIPOS>MOLECULE
2pup_ADP_A_1.pdb
 27 29 0 0 0
SMALL
GASTEIGER

@<TRIPOS>ATOM
      1  PB       -71.3340  -28.8370   14.5860 P.3   999  ADP999      0.5373
      2  O1B      -70.3380  -29.3200   13.5380 O.2   999  ADP999     -0.2221
      3  O2B      -71.1960  -27.3450   14.8800 O.3   999  ADP999     -0.1143
      4  O3B      -72.7820  -29.3000   14.3720 O.3   999  ADP999     -0.1143
      5  PA       -71.5620  -29.6860   17.2970 P.3   999  ADP999      0.2231
      6  O1A      -71.2350  -28.4690   18.1510 O.3   999  ADP999     -0.4370
      7  O2A      -72.9970  -30.1170   17.0300 O.2   999  ADP999     -0.5169
      8  O3A      -70.7610  -29.5970   15.8880 O.3   999  ADP999     -0.2261
      9  O5'      -70.8060  -30.9740   17.9250 O.3   999  ADP999     -0.3111
     10  C5'      -70.6050  -32.1250   17.0720 C.3   999  ADP999      0.1813
     11  C4'      -71.0130  -33.4000   17.7940 C.3   999  ADP999      0.1821
     12  O4'      -69.9210  -33.7720   18.6490 O.3   999  ADP999     -0.3135
     13  C3'      -72.2150  -33.2140   18.7340 C.3   999  ADP999      0.2184
     14  O3'      -73.4950  -33.4610   18.1250 O.3   999  ADP999     -0.2174
     15  C2'      -71.8890  -34.1210   19.9110 C.3   999  ADP999      0.2570
     16  O2'      -72.4050  -35.4200   19.6260 O.3   999  ADP999     -0.2130
     17  C1'      -70.3560  -34.1230   19.9670 C.3   999  ADP999      0.3186
     18  N9       -69.9340  -33.0480   20.8880 N.pl3 999  ADP999     -0.1439
     19  C8       -69.7730  -31.7390   20.5890 C.3   999  ADP999      0.3377
     20  N7       -69.4030  -31.0170   21.6730 N.2   999  ADP999     -0.2095
     21  C5       -69.3400  -31.8640   22.7080 C.2   999  ADP999      0.2526
     22  C6       -69.0290  -31.7690   24.1550 C.2   999  ADP999      0.4393
     23  N6       -68.7000  -30.5920   24.7490 N.pl3 999  ADP999      0.2180
     24  N1       -69.0900  -32.9000   24.8700 N.2   999  ADP999      0.0021
     25  C2       -69.4200  -34.0710   24.3090 C.3   999  ADP999      0.5254
     26  N3       -69.7230  -34.2380   23.0170 N.2   999  ADP999     -0.0055
     27  C4       -69.6960  -33.1980   22.1800 C.2   999  ADP999      0.3518
@<TRIPOS>BOND
     1     2     1    2
     2     4     1    1
     3     1     3    1
     4     1     8    1
     5     8     5    1
     6     7     5    2
     7    10    11    1
     8    10     9    1
     9     5     9    1
    10     5     6    1
    11    11    12    1
    12    11    13    1
    13    14    13    1
    14    12    17    1
    15    13    15    1
    16    16    15    1
    17    15    17    1
    18    17    18    1
    19    19    18    1
    20    19    20    1
    21    18    27    1
    22    20    21    2
    23    27    21    1
    24    27    26    2
    25    21    22    1
    26    26    25    1
    27    22    23    1
    28    22    24    2
    29    25    24    1
