@<TRIPOS>MOLECULE
2puq_BGC_L_1.pdb
 11 11 0 0 0
SMALL
GASTEIGER

@<TRIPOS>ATOM
      1  C2       -61.1390   -1.7840   20.3460 C.3   143  BGC143      0.2141
      2  C3       -60.2810   -0.5660   20.0110 C.3   143  BGC143      0.2173
      3  C4       -61.0690    0.6790   20.4120 C.3   143  BGC143      0.2142
      4  C5       -61.2110    0.6610   21.9500 C.3   143  BGC143      0.1810
      5  C6       -61.7310    1.9700   22.6170 C.3   143  BGC143      0.2141
      6  C1       -61.5100   -1.7510   21.8370 C.3   143  BGC143      0.1777
      7  O2       -60.4920   -2.9890   19.9590 O.3   143  BGC143     -0.2176
      8  O3       -59.9960   -0.5200   18.6340 O.3   143  BGC143     -0.2175
      9  O4       -60.5060    1.8550   19.8430 O.3   143  BGC143     -0.2176
     10  O5       -62.0160   -0.4790   22.2530 O.3   143  BGC143     -0.3481
     11  O6       -61.9930    1.9510   24.0830 O.3   143  BGC143     -0.2176
@<TRIPOS>BOND
     1     8     2    1
     2     9     3    1
     3     7     1    1
     4     2     1    1
     5     2     3    1
     6     1     6    1
     7     3     4    1
     8     6    10    1
     9     4    10    1
    10     4     5    1
    11     5    11    1
