@<TRIPOS>MOLECULE
2puq_III_I_1.pdb
 31 31 0 0 0
SMALL
GASTEIGER

@<TRIPOS>ATOM
      1  N        -13.7020    8.8360  -15.7150 N.3     1  TYR1       -0.1227
      2  CA       -13.9470    8.6050  -14.2700 C.3     1  TYR1        0.1736
      3  C        -13.9940    7.1510  -13.7520 C.2     1  TYR1        0.2596
      4  O        -14.3480    6.9010  -12.6040 O.2     1  TYR1       -0.2718
      5  CB       -15.2060    9.3580  -13.8070 C.3     1  TYR1        0.0548
      6  CG       -16.2960    9.5500  -14.8560 C.ar    1  TYR1       -0.0200
      7  CD1      -17.1000   10.6960  -14.8510 C.ar    1  TYR1       -0.0009
      8  CD2      -16.5320    8.5730  -15.8390 C.ar    1  TYR1       -0.0009
      9  CE1      -18.0620   10.8730  -15.8030 C.ar    1  TYR1        0.0417
     10  CE2      -17.4950    8.7600  -16.8000 C.ar    1  TYR1        0.0417
     11  CZ       -18.2360    9.9140  -16.7630 C.ar    1  TYR1        0.1957
     12  OH       -19.1650   10.1090  -17.7370 O.3     1  TYR1       -0.2866
     13  N        -13.5510    6.2140  -14.5730 N.am    2  THR2       -0.1939
     14  CA       -13.2910    4.8120  -14.2030 C.3     2  THR2        0.2028
     15  C        -12.0520    4.6860  -13.3430 C.2     2  THR2        0.2638
     16  O        -11.1170    5.3820  -13.5740 O.2     2  THR2       -0.2714
     17  CB       -13.2640    4.0480  -15.5090 C.3     2  THR2        0.1808
     18  OG1      -13.9740    2.8350  -15.3440 O.3     2  THR2       -0.2208
     19  CG2      -11.9230    3.8440  -16.1280 C.3     2  THR2        0.0379
     20  N        -12.0870    3.9540  -12.2250 N.am    3  ARG3       -0.2031
     21  CA       -11.0170    3.9040  -11.1970 C.3     3  ARG3        0.1257
     22  C        -10.2590    2.5100  -11.1570 C.3     3  ARG3        0.1718
     23  O         -9.2710    2.3640  -10.3420 O.3     3  ARG3       -0.2213
     24  CB       -11.5890    4.1100   -9.7580 C.3     3  ARG3        0.0280
     25  CG       -12.1880    5.4590   -9.4660 C.3     3  ARG3        0.0488
     26  CD       -13.0520    5.4770   -8.2290 C.3     3  ARG3        0.2205
     27  NE       -13.7470    6.7650   -8.0210 N.pl3   3  ARG3       -0.0865
     28  CZ       -14.4430    7.0620   -6.9260 C.cat   3  ARG3        0.5346
     29  NH1      -14.5780    6.1620   -5.9640 N.pl3   3  ARG3        0.1354
     30  NH2      -15.0010    8.2410   -6.7850 N.pl3   3  ARG3        0.1354
     31  C1        -9.9750    1.6610  -12.3790 C.3     4  0QE4        0.0373
@<TRIPOS>BOND
     1    12    11    1
     2    10    11   ar
     3    10     8   ar
     4    11     9   ar
     5    19    17    1
     6     8     6   ar
     7     9     7   ar
     8     1     2    1
     9    17    18    1
    10    17    14    1
    11     6     7   ar
    12     6     5    1
    13    13    14    1
    14    13     3   am
    15     2     5    1
    16     2     3    1
    17    14    15    1
    18     3     4    2
    19    16    15    2
    20    15    20   am
    21    31    22    1
    22    20    21    1
    23    21    22    1
    24    21    24    1
    25    22    23    1
    26    24    25    1
    27    25    26    1
    28    26    27    1
    29    27    28    2
    30    28    30    1
    31    28    29    1
