@<TRIPOS>MOLECULE
2puq_FUC_L_1.pdb
 10 10 0 0 0
SMALL
GASTEIGER

@<TRIPOS>ATOM
      1  C1       -49.3970   -4.6100   32.9260 C.3   144  FUC144      0.1776
      2  C2       -49.8020   -5.9920   33.4790 C.3   144  FUC144      0.2141
      3  C3       -49.6610   -7.0880   32.4250 C.3   144  FUC144      0.2172
      4  C4       -48.2320   -6.9740   31.9380 C.3   144  FUC144      0.2116
      5  C5       -47.9640   -5.5800   31.3750 C.3   144  FUC144      0.1483
      6  C6       -46.5970   -5.5190   30.6850 C.3   144  FUC144      0.0349
      7  O2       -51.1340   -5.9320   33.9420 O.3   144  FUC144     -0.2176
      8  O3       -49.9080   -8.3770   32.9580 O.3   144  FUC144     -0.2175
      9  O4       -47.4220   -7.0850   33.0850 O.3   144  FUC144     -0.2177
     10  O5       -48.0740   -4.6210   32.4300 O.3   144  FUC144     -0.3508
@<TRIPOS>BOND
     1     6     5    1
     2     5     4    1
     3     5    10    1
     4     4     3    1
     5     4     9    1
     6     3     8    1
     7     3     2    1
     8    10     1    1
     9     1     2    1
    10     2     7    1
