@<TRIPOS>MOLECULE
2put_UD1_A_1.pdb
 39 41 0 0 0
SMALL
GASTEIGER

@<TRIPOS>ATOM
      1  C1'       71.0040   -3.0970   50.3560 C.3   5002  UD15002     0.2633
      2  C2'       70.7440   -2.7740   48.8910 C.3   5002  UD15002     0.1845
      3  C3'       71.9160   -3.1910   48.0170 C.3   5002  UD15002     0.2094
      4  C4'       73.2410   -2.6400   48.5350 C.3   5002  UD15002     0.2136
      5  C5'       73.4180   -2.8870   50.0340 C.3   5002  UD15002     0.1834
      6  C6'       74.6210   -2.0770   50.5180 C.3   5002  UD15002     0.2142
      7  C7'       68.6910   -2.7360   47.6570 C.2   5002  UD15002     0.2420
      8  C8'       67.4690   -3.4590   47.1650 C.3   5002  UD15002     0.0964
      9  N2'       69.5500   -3.4250   48.3960 N.am  5002  UD15002    -0.1992
     10  O1'       71.0510   -4.5280   50.5180 O.3   5002  UD15002    -0.2864
     11  O3'       71.6650   -2.6610   46.7170 O.3   5002  UD15002    -0.2183
     12  O4'       74.3360   -3.2280   47.8080 O.3   5002  UD15002    -0.2176
     13  O5'       72.2470   -2.4940   50.7640 O.3   5002  UD15002    -0.3260
     14  O6'       74.7960   -2.2230   51.9350 O.3   5002  UD15002    -0.2176
     15  O7'       68.9000   -1.5620   47.3830 O.2   5002  UD15002    -0.2733
     16  N1        62.7320   -5.9540   51.5850 N.am  5002  UD15002    -0.1766
     17  C2        61.4080   -6.1620   51.6860 C.1   5002  UD15002     0.2845
     18  N3        60.8900   -7.3260   51.2520 N.2   5002  UD15002    -0.2452
     19  C4        61.6430   -8.2840   50.6900 C.1   5002  UD15002     0.2182
     20  C5        63.0060   -8.0890   50.5380 C.2   5002  UD15002     0.1242
     21  C6        63.5390   -6.8770   51.0240 C.2   5002  UD15002     0.0929
     22  O2        60.6540   -5.2920   52.2070 O.2   5002  UD15002    -0.1918
     23  O4        61.0780   -9.3220   50.2500 O.2   5002  UD15002    -0.2085
     24  C1B       63.2610   -4.6560   52.0320 C.3   5002  UD15002     0.2401
     25  C2B       64.2540   -4.6410   53.1970 C.3   5002  UD15002     0.2319
     26  O2'       63.5460   -4.5640   54.4440 O.3   5002  UD15002    -0.2157
     27  C3B       65.1530   -3.4170   52.8830 C.3   5002  UD15002     0.2158
     28  C4B       65.1270   -3.3710   51.3660 C.3   5002  UD15002     0.1799
     29  O4B       63.9840   -4.1320   50.9000 O.3   5002  UD15002    -0.3320
     30  O3B       64.5310   -2.2280   53.3910 O.3   5002  UD15002    -0.2175
     31  C5B       66.3870   -3.9380   50.7110 C.3   5002  UD15002     0.1813
     32  O5B       66.6070   -5.2840   51.1500 O.3   5002  UD15002    -0.3112
     33  PA        67.9880   -6.0530   50.8820 P.3   5002  UD15002     0.2189
     34  O1A       68.2580   -5.8270   49.3950 O.2   5002  UD15002    -0.5170
     35  O2A       67.9300   -7.4600   51.4410 O.3   5002  UD15002    -0.4371
     36  O3A       68.9570   -5.1610   51.7880 O.3   5002  UD15002    -0.2703
     37  PB        70.5490   -5.2130   51.8660 P.3   5002  UD15002     0.2208
     38  O1B       71.0050   -6.6400   51.8280 O.2   5002  UD15002    -0.5170
     39  O2B       70.8730   -4.3480   53.0530 O.3   5002  UD15002    -0.4371
@<TRIPOS>BOND
     1    11     3    1
     2     8     7    1
     3    15     7    2
     4     7     9   am
     5    12     4    1
     6     3     4    1
     7     3     2    1
     8     9     2    1
     9     4     5    1
    10     2     1    1
    11    34    33    2
    12     5     6    1
    13     5    13    1
    14    23    19    2
    15     1    10    1
    16     1    13    1
    17     6    14    1
    18    10    37    1
    19    20    19    1
    20    20    21    2
    21    19    18    2
    22    31    32    1
    23    31    28    1
    24    33    32    1
    25    33    35    1
    26    33    36    1
    27    29    28    1
    28    29    24    1
    29    21    16    1
    30    18    17    2
    31    28    27    1
    32    16    17   am
    33    16    24    1
    34    17    22    2
    35    36    37    1
    36    38    37    2
    37    37    39    1
    38    24    25    1
    39    27    25    1
    40    27    30    1
    41    25    26    1
