@<TRIPOS>MOLECULE
2put_F6R_A_1.pdb
 16 15 0 0 0
SMALL
GASTEIGER

@<TRIPOS>ATOM
      1  C1        59.6010  -25.8560   40.8950 C.3   5003  F6R5003     0.2486
      2  C2        59.2130  -24.3930   40.7100 C.2   5003  F6R5003     0.2165
      3  C3        57.8230  -23.9070   41.1250 C.3   5003  F6R5003     0.2440
      4  C4        58.0200  -22.6100   41.9140 C.3   5003  F6R5003     0.2220
      5  C5        56.6440  -22.0900   42.4100 C.3   5003  F6R5003     0.2151
      6  C6        56.7850  -20.8580   43.2930 C.3   5003  F6R5003     0.1892
      7  O1        60.8570  -26.1570   40.3020 O.3   5003  F6R5003    -0.2118
      8  O2        60.0260  -23.6000   40.2580 O.2   5003  F6R5003    -0.2905
      9  O3        57.2610  -24.8960   42.0090 O.3   5003  F6R5003    -0.2122
     10  O4        58.9040  -22.9590   42.9560 O.3   5003  F6R5003    -0.2171
     11  O5        55.9280  -21.7020   41.2640 O.3   5003  F6R5003    -0.2176
     12  O6        57.4950  -19.8260   42.5610 O.3   5003  F6R5003    -0.2674
     13  P         58.0380  -18.5410   43.3400 P.3   5003  F6R5003     0.5327
     14  O1P       57.0010  -17.9410   44.2460 O.3   5003  F6R5003    -0.1145
     15  O2P       59.3140  -18.9510   44.2320 O.3   5003  F6R5003    -0.1145
     16  O3P       58.5380  -17.5570   42.2670 O.2   5003  F6R5003    -0.2224
@<TRIPOS>BOND
     1     8     2    2
     2     7     1    1
     3     2     1    1
     4     2     3    1
     5     3     4    1
     6     3     9    1
     7    11     5    1
     8     4     5    1
     9     4    10    1
    10    16    13    2
    11     5     6    1
    12    12     6    1
    13    12    13    1
    14    13    15    1
    15    13    14    1
