@<TRIPOS>MOLECULE
2puu_G2G_A_1.pdb
 43 48 0 0 0
SMALL
GASTEIGER

@<TRIPOS>ATOM
      1  C3        36.6390   35.2940   22.1870 C.ar  391  G2G391      0.0028
      2  C2        32.3570   33.2080   13.6810 C.ar  391  G2G391      0.1587
      3  N1        33.5540   33.1470   14.5410 N.am  391  G2G391     -0.1418
      4  C7        36.8100   35.8680   23.4780 C.ar  391  G2G391      0.0161
      5  C8        34.7110   34.1510   18.3220 C.ar  391  G2G391      0.0167
      6  C10       31.5250   34.3570   13.5760 C.ar  391  G2G391      0.0527
      7  C25       35.5380   34.3200   17.1610 C.ar  391  G2G391      0.0749
      8  C26       37.5820   35.2960   16.1010 C.ar  391  G2G391      0.0013
      9  C27       38.7730   36.0810   16.1910 C.ar  391  G2G391      0.0000
     10  C9        35.7060   39.3620   26.4900 C.3   391  G2G391      0.1049
     11  C12       30.5300   33.9320   12.6710 C.ar  391  G2G391      0.0811
     12  C13       32.4730   30.8520   12.7660 C.ar  391  G2G391      0.0842
     13  C14       29.3170   34.7460   12.1700 C.3   391  G2G391      0.0372
     14  C15       28.6880   35.4760   13.3820 C.3   391  G2G391      0.0060
     15  C16       28.2750   33.8010   11.5540 C.3   391  G2G391      0.0060
     16  C17       29.7660   35.7730   11.1190 C.3   391  G2G391      0.0060
     17  C18       33.0160   30.0830   13.8740 C.ar  391  G2G391      0.0189
     18  C19       32.4490   30.2620   11.4490 C.ar  391  G2G391      0.0189
     19  C20       32.9450   28.9390   11.2290 C.ar  391  G2G391     -0.0027
     20  C21       33.5190   28.7520   13.6660 C.ar  391  G2G391     -0.0027
     21  C22       33.9750   26.8330   12.0840 C.3   391  G2G391      0.0310
     22  N7        31.9450   32.1630   12.9290 N.ar  391  G2G391     -0.2145
     23  N8        30.7880   32.6380   12.2980 N.ar  391  G2G391     -0.1683
     24  C24       34.0260   34.0690   15.3540 C.2   391  G2G391      0.3491
     25  O1        33.4980   35.1390   15.5480 O.2   391  G2G391     -0.2484
     26  N4        35.1530   33.7130   15.9840 N.am  391  G2G391     -0.1606
     27  C4        36.7390   35.1160   17.2510 C.ar  391  G2G391      0.0154
     28  C5        37.1250   35.7520   18.5370 C.ar  391  G2G391      0.0013
     29  C6        36.2420   35.5520   19.6790 C.ar  391  G2G391      0.0016
     30  C28       39.1510   36.6960   17.4250 C.ar  391  G2G391      0.0000
     31  C29       38.3380   36.5380   18.5870 C.ar  391  G2G391      0.0000
     32  C30       35.0560   34.7540   19.5490 C.ar  391  G2G391      0.0014
     33  C37       36.4590   37.5470   21.2010 C.ar  391  G2G391      0.0984
     34  C1        36.4580   36.1320   21.0370 C.ar  391  G2G391      0.0192
     35  C36       36.7910   37.2950   23.5460 C.ar  391  G2G391      0.0752
     36  N2        36.6240   38.0540   22.4250 N.ar  391  G2G391     -0.2468
     37  C23       36.9320   38.0100   24.8790 C.3   391  G2G391      0.1188
     38  N3        35.6250   38.1490   25.6170 N.3   391  G2G391     -0.2633
     39  C31       34.4360   38.2770   24.6790 C.3   391  G2G391      0.1049
     40  C32       33.1310   38.4090   25.4820 C.3   391  G2G391      0.1595
     41  C33       34.3680   39.5190   27.2580 C.3   391  G2G391      0.1595
     42  O2        33.2460   39.5750   26.3050 O.3   391  G2G391     -0.3508
     43  C34       33.4730   28.1950   12.3340 C.ar  391  G2G391     -0.0218
@<TRIPOS>BOND
     1    16    13    1
     2    19    18   ar
     3    19    43   ar
     4    18    12   ar
     5    15    13    1
     6    21    43    1
     7    13    11    1
     8    13    14    1
     9    23    11   ar
    10    23    22   ar
    11    43    20   ar
    12    11     6   ar
    13    12    22    1
    14    12    17   ar
    15    22     2   ar
    16     6     2   ar
    17    20    17   ar
    18     2     3    1
    19     3    24   am
    20    24    25    2
    21    24    26   am
    22    26     7    1
    23     8     9   ar
    24     8    27   ar
    25     9    30   ar
    26     7    27   ar
    27     7     5   ar
    28    27    28   ar
    29    30    31   ar
    30     5    32   ar
    31    28    31   ar
    32    28    29   ar
    33    32    29   ar
    34    29    34    1
    35    34    33   ar
    36    34     1   ar
    37    33    36   ar
    38     1     4   ar
    39    36    35   ar
    40     4    35   ar
    41    35    37    1
    42    39    40    1
    43    39    38    1
    44    37    38    1
    45    40    42    1
    46    38    10    1
    47    42    41    1
    48    10    41    1
