@<TRIPOS>MOLECULE
2puv_M6R_A_1.pdb
 16 15 0 0 0
SMALL
GASTEIGER

@<TRIPOS>ATOM
      1  O61       56.9340  -18.0340   44.4520 O.3   5003  M6R5003    -0.1145
      2  P6        58.0620  -18.6550   43.5220 P.3   5003  M6R5003     0.5327
      3  O62       58.4960  -17.6130   42.4310 O.2   5003  M6R5003    -0.2224
      4  O63       59.2340  -19.1140   44.3460 O.3   5003  M6R5003    -0.1145
      5  O6        57.3960  -19.8930   42.7140 O.3   5003  M6R5003    -0.2674
      6  C6        56.7360  -20.9040   43.4840 C.3   5003  M6R5003     0.1892
      7  C5        56.4540  -22.1120   42.5740 C.3   5003  M6R5003     0.2147
      8  O5        55.5970  -21.6910   41.5230 O.3   5003  M6R5003    -0.2176
      9  C4        57.7520  -22.6290   41.9620 C.3   5003  M6R5003     0.2163
     10  O4        58.6210  -23.1140   42.9710 O.3   5003  M6R5003    -0.2175
     11  C3        57.4720  -23.8030   41.0030 C.3   5003  M6R5003     0.2048
     12  O3        56.9150  -24.9220   41.7400 O.3   5003  M6R5003    -0.2187
     13  C2        58.7620  -24.2530   40.3070 C.3   5003  M6R5003     0.1575
     14  N2        58.3060  -24.9320   39.0790 N.3   5003  M6R5003    -0.1273
     15  C1        59.5700  -25.1940   41.2440 C.3   5003  M6R5003     0.2036
     16  O1        60.6980  -25.8750   40.6730 O.3   5003  M6R5003    -0.2187
@<TRIPOS>BOND
     1    14    13    1
     2    13    11    1
     3    13    15    1
     4    16    15    1
     5    11    12    1
     6    11     9    1
     7     8     7    1
     8     9     7    1
     9     9    10    1
    10     3     2    2
    11     7     6    1
    12     5     6    1
    13     5     2    1
    14     2     4    1
    15     2     1    1
