@<TRIPOS>MOLECULE
2puv_UD1_A_1.pdb
 39 41 0 0 0
SMALL
GASTEIGER

@<TRIPOS>ATOM
      1  C1'       70.9220   -3.0820   50.3900 C.3   5002  UD15002     0.2633
      2  C2'       70.6820   -2.7950   48.9100 C.3   5002  UD15002     0.1845
      3  C3'       71.8880   -3.1730   48.0720 C.3   5002  UD15002     0.2094
      4  C4'       73.1900   -2.5820   48.5970 C.3   5002  UD15002     0.2136
      5  C5'       73.3300   -2.7410   50.1060 C.3   5002  UD15002     0.1834
      6  C6'       74.4980   -1.8680   50.5580 C.3   5002  UD15002     0.2142
      7  C7'       68.5530   -2.8080   47.8170 C.2   5002  UD15002     0.2420
      8  C8'       67.4300   -3.5850   47.2060 C.3   5002  UD15002     0.0964
      9  N2'       69.5570   -3.5010   48.3290 N.am  5002  UD15002    -0.1992
     10  O1'       71.0440   -4.5080   50.5650 O.3   5002  UD15002    -0.2864
     11  O3'       71.6250   -2.6630   46.7640 O.3   5002  UD15002    -0.2183
     12  O4'       74.3050   -3.2210   47.9390 O.3   5002  UD15002    -0.2176
     13  O5'       72.1160   -2.3680   50.7860 O.3   5002  UD15002    -0.3260
     14  O6'       74.7240   -2.0020   51.9660 O.3   5002  UD15002    -0.2176
     15  O7'       68.5360   -1.5860   47.8410 O.2   5002  UD15002    -0.2733
     16  N1        62.7870   -6.0510   51.6380 N.am  5002  UD15002    -0.1766
     17  C2        61.4480   -6.2550   51.7400 C.1   5002  UD15002     0.2845
     18  N3        60.8990   -7.4080   51.3060 N.2   5002  UD15002    -0.2452
     19  C4        61.6530   -8.3520   50.6850 C.1   5002  UD15002     0.2182
     20  C5        63.0310   -8.1760   50.5380 C.2   5002  UD15002     0.1242
     21  C6        63.5880   -6.9740   51.0390 C.2   5002  UD15002     0.0929
     22  O2        60.6820   -5.4110   52.2880 O.2   5002  UD15002    -0.1918
     23  O4        61.0790   -9.3870   50.2630 O.2   5002  UD15002    -0.2085
     24  C1B       63.3190   -4.7540   52.1050 C.3   5002  UD15002     0.2401
     25  C2B       64.3250   -4.7180   53.2490 C.3   5002  UD15002     0.2319
     26  O2'       63.6550   -4.6650   54.5200 O.3   5002  UD15002    -0.2157
     27  C3B       65.1580   -3.4630   52.9240 C.3   5002  UD15002     0.2158
     28  C4B       65.1370   -3.4090   51.4080 C.3   5002  UD15002     0.1799
     29  O4B       63.9780   -4.1540   50.9750 O.3   5002  UD15002    -0.3320
     30  O3B       64.4760   -2.2830   53.3590 O.3   5002  UD15002    -0.2175
     31  C5B       66.3900   -3.9720   50.7500 C.3   5002  UD15002     0.1813
     32  O5B       66.6050   -5.3310   51.1700 O.3   5002  UD15002    -0.3112
     33  PA        68.0060   -6.0790   50.9120 P.3   5002  UD15002     0.2189
     34  O1A       68.3320   -5.8530   49.4470 O.2   5002  UD15002    -0.5170
     35  O2A       67.9860   -7.4950   51.5020 O.3   5002  UD15002    -0.4371
     36  O3A       68.9660   -5.1640   51.8270 O.3   5002  UD15002    -0.2703
     37  PB        70.5670   -5.2570   51.9010 P.3   5002  UD15002     0.2208
     38  O1B       71.0320   -6.6930   51.8470 O.2   5002  UD15002    -0.5170
     39  O2B       70.9570   -4.3920   53.0650 O.3   5002  UD15002    -0.4371
@<TRIPOS>BOND
     1    11     3    1
     2     8     7    1
     3     7    15    2
     4     7     9   am
     5    12     4    1
     6     3     4    1
     7     3     2    1
     8     9     2    1
     9     4     5    1
    10     2     1    1
    11    34    33    2
    12     5     6    1
    13     5    13    1
    14    23    19    2
    15     1    10    1
    16     1    13    1
    17    20    19    1
    18    20    21    2
    19     6    14    1
    20    10    37    1
    21    19    18    2
    22    31    32    1
    23    31    28    1
    24    33    32    1
    25    33    35    1
    26    33    36    1
    27    29    28    1
    28    29    24    1
    29    21    16    1
    30    18    17    2
    31    28    27    1
    32    16    17   am
    33    16    24    1
    34    17    22    2
    35    36    37    1
    36    38    37    2
    37    37    39    1
    38    24    25    1
    39    27    25    1
    40    27    30    1
    41    25    26    1
