@<TRIPOS>MOLECULE
2puw_BG6_A_1.pdb
 16 16 0 0 0
SMALL
GASTEIGER

@<TRIPOS>ATOM
      1  C1        -3.1960   45.1070   59.3880 C.3   713  BG6713      0.3024
      2  C2        -3.8150   43.6870   59.2010 C.3   713  BG6713      0.2434
      3  O1        -2.1550   45.4250   58.4410 O.3   713  BG6713     -0.1869
      4  O5        -4.2070   46.1860   59.3490 O.3   713  BG6713     -0.3237
      5  C3        -4.8050   43.6240   58.0180 C.3   713  BG6713      0.2199
      6  O2        -2.8040   42.6800   59.0590 O.3   713  BG6713     -0.2148
      7  C4        -5.8640   44.7260   58.1730 C.3   713  BG6713      0.2143
      8  O3        -5.4470   42.3450   57.9940 O.3   713  BG6713     -0.2174
      9  C5        -5.1530   46.1070   58.2010 C.3   713  BG6713      0.1808
     10  O4        -6.8580   44.6380   57.1330 O.3   713  BG6713     -0.2176
     11  C6        -6.1050   47.3480   58.1400 C.3   713  BG6713      0.1859
     12  O6        -6.7180   47.6720   59.3920 O.3   713  BG6713     -0.2675
     13  P         -6.2950   48.9650   60.2250 P.3   713  BG6713      0.5327
     14  O1P       -5.4390   49.9440   59.5110 O.2   713  BG6713     -0.2224
     15  O2P       -7.6720   49.6070   60.7250 O.3   713  BG6713     -0.1145
     16  O3P       -5.6220   48.4040   61.5760 O.3   713  BG6713     -0.1145
@<TRIPOS>BOND
     1    10     7    1
     2     8     5    1
     3     5     7    1
     4     5     2    1
     5    11     9    1
     6    11    12    1
     7     7     9    1
     8     9     4    1
     9     3     1    1
    10     6     2    1
    11     2     1    1
    12     4     1    1
    13    12    13    1
    14    14    13    2
    15    13    15    1
    16    13    16    1
