@<TRIPOS>MOLECULE
2puz_NIG_B_1.pdb
 12 11 0 0 0
SMALL
GASTEIGER

@<TRIPOS>ATOM
      1  O1        27.7330   14.8160    4.2280 O.co2 600  NIG600     -0.2437
      2  NF        32.1520   13.5990    6.0610 N.2   600  NIG600     -0.1270
      3  CF        31.7060   13.6450    4.8880 C.2   600  NIG600      0.2047
      4  N         30.3280   14.1110    4.6290 N.pl3 600  NIG600     -0.2066
      5  CA        30.0610   15.5050    4.2160 C.3   600  NIG600      0.1972
      6  CB        30.8030   15.8500    2.9160 C.3   600  NIG600      0.0450
      7  CG        31.0380   17.3580    2.8310 C.3   600  NIG600      0.1164
      8  CD        32.3660   17.7100    2.1910 C.2   600  NIG600      0.3649
      9  OE1       32.8580   16.9940    1.2770 O.co2 600  NIG600     -0.2457
     10  OE2       32.9760   18.7260    2.5800 O.co2 600  NIG600     -0.2457
     11  C         28.5490   15.7370    4.0310 C.2   600  NIG600      0.3842
     12  O2        28.1230   16.8620    3.6870 O.co2 600  NIG600     -0.2437
@<TRIPOS>BOND
     1     9     8   ar
     2     8    10   ar
     3     8     7    1
     4     7     6    1
     5     6     5    1
     6    12    11   ar
     7    11     5    1
     8    11     1   ar
     9     5     4    1
    10     4     3    1
    11     3     2    2
