@<TRIPOS>MOLECULE
2pv7_NAD_A_1.pdb
 44 48 0 0 0
SMALL
GASTEIGER

@<TRIPOS>ATOM
      1  PA        13.9940   39.7610   66.4440 P.3   400  NAD400      0.2189
      2  O1A       13.1400   40.9080   66.8310 O.2   400  NAD400     -0.5170
      3  O2A       15.2200   39.6240   67.2970 O.3   400  NAD400     -0.4371
      4  O5B       13.0360   38.4740   66.4450 O.3   400  NAD400     -0.3112
      5  C5B       13.5430   37.1680   66.6690 C.3   400  NAD400      0.1813
      6  C4B       12.6130   36.4570   67.6650 C.3   400  NAD400      0.1821
      7  O4B       13.0330   35.1160   67.7460 O.3   400  NAD400     -0.3135
      8  C3B       12.6230   37.0560   69.0840 C.3   400  NAD400      0.2184
      9  O3B       11.2930   37.3150   69.5560 O.3   400  NAD400     -0.2174
     10  C2B       13.3870   35.9990   69.8790 C.3   400  NAD400      0.2570
     11  O2B       13.0530   35.9030   71.2420 O.3   400  NAD400     -0.2130
     12  C1B       13.0090   34.7410   69.1160 C.3   400  NAD400      0.3186
     13  N9A       13.8760   33.5610   69.3080 N.pl3 400  NAD400     -0.1439
     14  C8A       15.2480   33.5110   69.5030 C.3   400  NAD400      0.3377
     15  N7A       15.6040   32.2120   69.6020 N.2   400  NAD400     -0.2095
     16  C5A       14.5060   31.4350   69.4740 C.2   400  NAD400      0.2526
     17  C6A       14.3100   30.0550   69.4770 C.2   400  NAD400      0.4393
     18  N6A       15.2820   29.2250   69.8510 N.pl3 400  NAD400      0.2180
     19  N1A       13.0350   29.5690   69.2780 N.2   400  NAD400      0.0021
     20  C2A       11.9540   30.4130   69.0960 C.3   400  NAD400      0.5254
     21  N3A       12.1500   31.7690   69.0910 N.2   400  NAD400     -0.0055
     22  C4A       13.4040   32.2700   69.2670 C.2   400  NAD400      0.3518
     23  O3        14.4950   39.8860   64.8990 O.3   400  NAD400     -0.2703
     24  PN        13.5770   39.7480   63.5490 P.3   400  NAD400      0.2189
     25  O1N       12.1060   39.8390   63.8240 O.3   400  NAD400     -0.4371
     26  O2N       14.1800   40.7600   62.6360 O.2   400  NAD400     -0.5170
     27  O5D       14.2290   38.3410   63.0090 O.3   400  NAD400     -0.3112
     28  C5D       13.7160   37.0860   62.7110 C.3   400  NAD400      0.1813
     29  C4D       13.8030   36.7490   61.2150 C.3   400  NAD400      0.1799
     30  O4D       13.3430   37.9070   60.5210 O.3   400  NAD400     -0.3327
     31  C3D       15.1210   36.2860   60.5350 C.3   400  NAD400      0.2158
     32  O3D       14.8940   35.0180   59.8670 O.3   400  NAD400     -0.2175
     33  C2D       15.3720   37.4600   59.5470 C.3   400  NAD400      0.2309
     34  O2D       16.1360   37.2300   58.3630 O.3   400  NAD400     -0.2158
     35  C1D       13.9430   37.9080   59.2280 C.3   400  NAD400      0.2263
     36  N1N       13.7690   39.2400   58.5680 N.pl3 400  NAD400     -0.2787
     37  C2N       13.9880   40.3580   59.3300 C.3   400  NAD400      0.1244
     38  C3N       13.8150   41.5970   58.7710 C.2   400  NAD400      0.0544
     39  C7N       13.8830   42.8140   59.6530 C.2   400  NAD400      0.2818
     40  O7N       14.1090   44.0250   59.0050 O.2   400  NAD400     -0.2670
     41  N7N       13.7340   42.7590   60.9990 N.am  400  NAD400     -0.0839
     42  C4N       13.4400   41.6820   57.4210 C.2   400  NAD400      0.0033
     43  C5N       13.2380   40.5500   56.6240 C.2   400  NAD400      0.0157
     44  C6N       13.4200   39.3060   57.2260 C.2   400  NAD400      0.0633
@<TRIPOS>BOND
     1    43    44    2
     2    43    42    1
     3    44    36    1
     4    42    38    2
     5    34    33    1
     6    36    35    1
     7    36    37    1
     8    38    37    1
     9    38    39    1
    10    40    39    2
    11    35    33    1
    12    35    30    1
    13    33    31    1
    14    39    41   am
    15    32    31    1
    16    30    29    1
    17    31    29    1
    18    29    28    1
    19    26    24    2
    20    28    27    1
    21    27    24    1
    22    24    25    1
    23    24    23    1
    24    23     1    1
    25     1     4    1
    26     1     2    2
    27     1     3    1
    28     4     5    1
    29     5     6    1
    30     6     7    1
    31     6     8    1
    32     7    12    1
    33     8     9    1
    34     8    10    1
    35    21    20    1
    36    21    22    2
    37    20    19    1
    38    12    13    1
    39    12    10    1
    40    22    13    1
    41    22    16    1
    42    19    17    2
    43    13    14    1
    44    16    17    1
    45    16    15    2
    46    17    18    1
    47    14    15    1
    48    10    11    1
