@<TRIPOS>MOLECULE
2pv7_TYR_A_1.pdb
 13 13 0 0 0
SMALL
GASTEIGER

@<TRIPOS>ATOM
      1  N         17.1230   46.7880   54.7290 N.3   401  TYR401     -0.1205
      2  CA        15.7470   47.0990   55.2230 C.3   401  TYR401      0.1986
      3  C         15.8340   48.5010   55.8310 C.2   401  TYR401      0.3822
      4  O         16.9720   49.0110   56.0920 O.co2 401  TYR401     -0.2440
      5  CB        15.2700   46.1000   56.2780 C.3   401  TYR401      0.0569
      6  CG        15.4770   44.6410   55.9080 C.ar  401  TYR401     -0.0200
      7  CD1       14.7720   44.0610   54.8590 C.ar  401  TYR401     -0.0009
      8  CD2       16.4450   43.8760   56.5530 C.ar  401  TYR401     -0.0009
      9  CE1       14.9840   42.7010   54.5040 C.ar  401  TYR401      0.0417
     10  CE2       16.6580   42.5590   56.2170 C.ar  401  TYR401      0.0417
     11  CZ        15.9420   41.9660   55.2120 C.ar  401  TYR401      0.1957
     12  OH        16.1800   40.6260   54.8610 O.3   401  TYR401     -0.2866
     13  OXT       14.7580   49.0790   56.0520 O.co2 401  TYR401     -0.2440
@<TRIPOS>BOND
     1     9     7   ar
     2     9    11   ar
     3     1     2    1
     4     7     6   ar
     5    12    11    1
     6    11    10   ar
     7     2     3    1
     8     2     5    1
     9     3    13   ar
    10     3     4   ar
    11     6     5    1
    12     6     8   ar
    13    10     8   ar
