@<TRIPOS>MOLECULE
2pvf_III_B_1.pdb
 34 34 0 0 0
SMALL
GASTEIGER

@<TRIPOS>ATOM
      1  N         10.1310   -4.4340   -9.8880 N.3   604  GLU604     -0.1231
      2  CA         8.8930   -3.6480   -9.6230 C.3   604  GLU604      0.1694
      3  C          9.1910   -2.3680   -8.8520 C.2   604  GLU604      0.2592
      4  O          8.4370   -1.3980   -8.9410 O.2   604  GLU604     -0.2718
      5  CB         7.8870   -4.4950   -8.8540 C.3   604  GLU604      0.0304
      6  N         10.2880   -2.3650   -8.0980 N.am  605  GLU605     -0.1966
      7  CA        10.6650   -1.1860   -7.3250 C.3   605  GLU605      0.1733
      8  C         11.1670   -0.0590   -8.2210 C.2   605  GLU605      0.2616
      9  O         11.0320    1.1170   -7.8780 O.2   605  GLU605     -0.2715
     10  CB        11.7450   -1.5280   -6.2930 C.3   605  GLU605      0.0429
     11  CG        11.3950   -2.6680   -5.3510 C.3   605  GLU605      0.1163
     12  CD         9.9190   -2.7280   -5.0190 C.2   605  GLU605      0.3649
     13  OE1        9.3090   -1.6630   -4.7720 O.co2 605  GLU605     -0.2457
     14  OE2        9.3680   -3.8490   -4.9960 O.co2 605  GLU605     -0.2457
     15  N         11.7420   -0.4080   -9.3680 N.am  606  TYR606     -0.1960
     16  CA        12.2580    0.6060  -10.2810 C.3   606  TYR606      0.1771
     17  C         11.4160    0.6850  -11.5480 C.2   606  TYR606      0.2619
     18  O         11.3500   -0.2740  -12.3190 O.2   606  TYR606     -0.2715
     19  CB        13.7260    0.3080  -10.6120 C.3   606  TYR606      0.0574
     20  CG        14.6250    0.3060   -9.3910 C.ar  606  TYR606     -0.0198
     21  CD1       14.6750   -0.7960   -8.5380 C.ar  606  TYR606     -0.0009
     22  CD2       15.3930    1.4240   -9.0660 C.ar  606  TYR606     -0.0009
     23  CE1       15.4670   -0.7860   -7.3900 C.ar  606  TYR606      0.0417
     24  CE2       16.1870    1.4470   -7.9210 C.ar  606  TYR606      0.0417
     25  CZ        16.2200    0.3430   -7.0880 C.ar  606  TYR606      0.1957
     26  OH        16.9950    0.3600   -5.9480 O.3   606  TYR606     -0.2866
     27  N         10.7750    1.8340  -11.7520 N.am  607  LEU607     -0.1977
     28  CA         9.9030    2.0510  -12.9020 C.3   607  LEU607      0.1596
     29  C         10.2450    3.3130  -13.6870 C.2   607  LEU607      0.2287
     30  O          9.6530    3.4760  -14.7810 O.2   607  LEU607     -0.2864
     31  CB         8.4530    2.1370  -12.4250 C.3   607  LEU607      0.0297
     32  CG         7.9960    0.9810  -11.5280 C.3   607  LEU607      0.0022
     33  CD1        6.6280    1.2920  -10.9380 C.3   607  LEU607      0.0001
     34  CD2        7.9590   -0.3130  -12.3320 C.3   607  LEU607      0.0001
@<TRIPOS>BOND
     1    30    29    2
     2    29    28    1
     3    28    31    1
     4    28    27    1
     5    31    32    1
     6    34    32    1
     7    18    17    2
     8    27    17   am
     9    17    16    1
    10    32    33    1
    11    19    16    1
    12    19    20    1
    13    16    15    1
    14     1     2    1
    15     2     5    1
    16     2     3    1
    17    20    22   ar
    18    20    21   ar
    19    15     8   am
    20    22    24   ar
    21     4     3    2
    22     3     6   am
    23    21    23   ar
    24     8     9    2
    25     8     7    1
    26     6     7    1
    27    24    25   ar
    28    23    25   ar
    29     7    10    1
    30    25    26    1
    31    10    11    1
    32    11    12    1
    33    12    14   ar
    34    12    13   ar
