@<TRIPOS>MOLECULE
2pvf_ACP_A_1.pdb
 31 33 0 0 0
SMALL
GASTEIGER

@<TRIPOS>ATOM
      1  PG        20.8260   -4.7390   -8.7240 P.3   300  ACP300      0.1295
      2  O1G       21.4440   -5.7370   -9.6340 O.2   300  ACP300     -0.4595
      3  O2G       21.0960   -3.3810   -9.1800 O.3   300  ACP300     -0.3567
      4  O3G       19.4250   -4.9520   -8.3540 O.3   300  ACP300     -0.3567
      5  PB        21.9020   -3.8860   -6.0020 P.3   300  ACP300      0.3815
      6  O1B       22.8230   -2.9190   -6.5170 O.2   300  ACP300     -0.2547
      7  O2B       20.5450   -3.5190   -5.6090 O.3   300  ACP300     -0.1391
      8  C3B       21.6450   -5.0070   -7.2520 C.3   300  ACP300      0.1768
      9  PA        23.0290   -4.0460   -3.4340 P.3   300  ACP300      0.2209
     10  O1A       24.4640   -3.6410   -3.4020 O.2   300  ACP300     -0.5170
     11  O2A       22.0400   -3.1270   -2.8410 O.3   300  ACP300     -0.4371
     12  O3A       22.6220   -4.5400   -4.8250 O.3   300  ACP300     -0.2483
     13  O5'       22.9020   -5.4040   -2.5830 O.3   300  ACP300     -0.3111
     14  C5'       21.7790   -6.2660   -2.7800 C.3   300  ACP300      0.1813
     15  C4'       21.5370   -7.1440   -1.5750 C.3   300  ACP300      0.1821
     16  O4'       22.6950   -8.0050   -1.3660 O.3   300  ACP300     -0.3135
     17  C3'       21.3680   -6.4080   -0.2530 C.3   300  ACP300      0.2184
     18  O3'       20.0270   -5.9620   -0.0710 O.3   300  ACP300     -0.2174
     19  C2'       21.7730   -7.4790    0.7520 C.3   300  ACP300      0.2570
     20  O2'       20.7620   -8.4420    0.9890 O.3   300  ACP300     -0.2130
     21  C1'       22.9510   -8.1320    0.0240 C.3   300  ACP300      0.3186
     22  N9        24.2130   -7.4510    0.3170 N.pl3 300  ACP300     -0.1439
     23  C8        24.8250   -6.4650   -0.4200 C.3   300  ACP300      0.3377
     24  N7        25.9300   -6.0120    0.1150 N.2   300  ACP300     -0.2095
     25  C5        26.0640   -6.7570    1.2770 C.2   300  ACP300      0.2526
     26  C6        27.0360   -6.7500    2.2910 C.2   300  ACP300      0.4393
     27  N6        28.0840   -5.9280    2.3000 N.pl3 300  ACP300      0.2180
     28  N1        26.8860   -7.6250    3.3090 N.2   300  ACP300      0.0021
     29  C2        25.8220   -8.4380    3.3030 C.3   300  ACP300      0.5254
     30  N3        24.8350   -8.5300    2.4100 N.2   300  ACP300     -0.0055
     31  C4        25.0200   -7.6530    1.4100 C.2   300  ACP300      0.3518
@<TRIPOS>BOND
     1     2     1    2
     2     3     1    1
     3     1     4    1
     4     1     8    1
     5     8     5    1
     6     6     5    2
     7     5     7    1
     8     5    12    1
     9    12     9    1
    10     9    10    2
    11     9    11    1
    12     9    13    1
    13    14    13    1
    14    14    15    1
    15    15    16    1
    16    15    17    1
    17    16    21    1
    18    23    24    1
    19    23    22    1
    20    17    18    1
    21    17    19    1
    22    21    22    1
    23    21    19    1
    24    24    25    2
    25    22    31    1
    26    19    20    1
    27    25    31    1
    28    25    26    1
    29    31    30    2
    30    26    27    1
    31    26    28    2
    32    30    29    1
    33    29    28    1
