@<TRIPOS>MOLECULE
2pvh_P19_A_1.pdb
 23 26 0 0 0
SMALL
GASTEIGER

@<TRIPOS>ATOM
      1  N01       19.6130   10.4240   19.1490 N.2   501  P19501     -0.1714
      2  C02       19.7530   10.7890   17.8550 C.2   501  P19501      0.1010
      3  C03       20.7410    9.9760   17.2870 C.3   501  P19501      0.1265
      4  C04       21.1840    9.0930   18.3460 C.2   501  P19501      0.2059
      5  N05       20.4670    9.4040   19.4660 N.pl3 501  P19501     -0.1224
      6  N06       22.1120    8.1230   18.3910 N.2   501  P19501     -0.3135
      7  C07       22.2920    7.5010   19.5510 C.1   501  P19501      0.2281
      8  N08       21.6020    7.7910   20.6520 N.2   501  P19501     -0.2916
      9  C09       20.6820    8.7520   20.6000 C.cat 501  P19501      0.2993
     10  N10       19.9680    9.0610   21.7140 N.pl3 501  P19501     -0.1680
     11  C11       20.0910    8.4590   22.9270 C.ar  501  P19501      0.0744
     12  C12       20.2640    7.0810   23.0730 C.ar  501  P19501      0.0166
     13  C13       20.3340    6.4790   24.3290 C.ar  501  P19501      0.0013
     14  C14       20.2250    7.2750   25.4670 C.ar  501  P19501      0.0001
     15  C15       20.0710    8.6550   25.3340 C.ar  501  P19501      0.0013
     16  C16       20.0070    9.2480   24.0730 C.ar  501  P19501      0.0166
     17  N17       23.2470    6.5330   19.5930 N.pl3 501  P19501     -0.1253
     18  C18       23.1830    5.3760   20.3040 C.ar  501  P19501      0.0835
     19  C19       22.5070    5.2570   21.5200 C.ar  501  P19501      0.0174
     20  C20       22.4580    4.0560   22.2260 C.ar  501  P19501      0.0014
     21  C21       23.1040    2.9410   21.6990 C.ar  501  P19501      0.0001
     22  C22       23.7950    3.0460   20.4920 C.ar  501  P19501      0.0014
     23  C23       23.8350    4.2540   19.7960 C.ar  501  P19501      0.0174
@<TRIPOS>BOND
     1     3     2    1
     2     3     4    1
     3     2     1    2
     4     4     6    2
     5     4     5    1
     6     6     7    2
     7     1     5    1
     8     5     9    1
     9     7    17    1
    10     7     8    2
    11    17    18    1
    12    23    18   ar
    13    23    22   ar
    14    18    19   ar
    15    22    21   ar
    16     9     8    2
    17     9    10    1
    18    19    20   ar
    19    21    20   ar
    20    10    11    1
    21    11    12   ar
    22    11    16   ar
    23    12    13   ar
    24    16    15   ar
    25    13    14   ar
    26    15    14   ar
