@<TRIPOS>MOLECULE
2pvj_P44_A_1.pdb
 26 29 0 0 0
SMALL
GASTEIGER

@<TRIPOS>ATOM
      1  N01       20.1150    9.5890   19.7490 N.2   501  P44501     -0.1703
      2  C02       20.3570    9.8500   18.4370 C.2   501  P44501      0.1155
      3  C03       21.3330    8.9370   17.9920 C.3   501  P44501      0.2031
      4  C04       21.6480    8.1070   19.1310 C.2   501  P44501      0.2194
      5  N05       20.8890    8.5490   20.1760 N.pl3 501  P44501     -0.1214
      6  N06       22.4960    7.0790   19.2960 N.2   501  P44501     -0.3126
      7  C07       22.5510    6.5420   20.5110 C.1   501  P44501      0.2237
      8  N08       21.8330    6.9620   21.5460 N.2   501  P44501     -0.2919
      9  C09       20.9950    7.9770   21.3620 C.cat 501  P44501      0.2993
     10  N10       20.2380    8.4540   22.3830 N.pl3 501  P44501     -0.1680
     11  C11       20.3150    8.1190   23.7000 C.ar  501  P44501      0.0744
     12  C12       20.6540    6.8510   24.1700 C.ar  501  P44501      0.0166
     13  C13       20.6440    6.5590   25.5330 C.ar  501  P44501      0.0013
     14  C14       20.2930    7.5460   26.4500 C.ar  501  P44501      0.0001
     15  C15       19.9870    8.8250   25.9910 C.ar  501  P44501      0.0013
     16  C16       19.9990    9.1130   24.6270 C.ar  501  P44501      0.0166
     17  N17       23.3800    5.4860   20.6960 N.pl3 501  P44501     -0.1517
     18  C18       23.5450    4.8670   22.0080 C.3   501  P44501      0.1262
     19  C19       22.5240    3.7540   22.2420 C.3   501  P44501      0.0226
     20  C20       22.6730    2.6100   21.2330 C.3   501  P44501      0.0018
     21  C21       21.5680    1.5720   21.4640 C.3   501  P44501      0.0001
     22  C22       21.6170    1.0080   22.8870 C.3   501  P44501      0.0000
     23  C23       21.4980    2.1430   23.9130 C.3   501  P44501      0.0001
     24  C24       22.5540    3.2280   23.6820 C.3   501  P44501      0.0018
     25  C25       21.9590    8.8590   16.7050 C.1   501  P44501      0.0871
     26  N26       22.5400    8.8590   15.7020 N.1   501  P44501     -0.1950
@<TRIPOS>BOND
     1    26    25    3
     2    25     3    1
     3     3     2    1
     4     3     4    1
     5     2     1    2
     6     4     6    2
     7     4     5    1
     8     6     7    2
     9     1     5    1
    10     5     9    1
    11     7    17    1
    12     7     8    2
    13    17    18    1
    14    20    21    1
    15    20    19    1
    16     9     8    2
    17     9    10    1
    18    21    22    1
    19    18    19    1
    20    19    24    1
    21    10    11    1
    22    22    23    1
    23    24    23    1
    24    11    12   ar
    25    11    16   ar
    26    12    13   ar
    27    16    15   ar
    28    13    14   ar
    29    15    14   ar
