@<TRIPOS>MOLECULE
2pvk_P45_A_1.pdb
 27 30 0 0 0
SMALL
GASTEIGER

@<TRIPOS>ATOM
      1  N01       20.1200    9.4960   19.7630 N.2   501  P45501     -0.1703
      2  C02       20.3890    9.7720   18.4630 C.2   501  P45501      0.1155
      3  C03       21.3940    8.8920   18.0260 C.3   501  P45501      0.2031
      4  C04       21.6970    8.0640   19.1720 C.2   501  P45501      0.2194
      5  N05       20.9030    8.4730   20.2070 N.pl3 501  P45501     -0.1214
      6  N06       22.5530    7.0510   19.3740 N.2   501  P45501     -0.3126
      7  C07       22.5820    6.5020   20.5830 C.1   501  P45501      0.2240
      8  N08       21.8250    6.8860   21.6070 N.2   501  P45501     -0.2919
      9  C09       20.9800    7.8910   21.3940 C.cat 501  P45501      0.2993
     10  N10       20.2110    8.3430   22.4170 N.pl3 501  P45501     -0.1680
     11  C11       20.2970    7.9630   23.7220 C.ar  501  P45501      0.0744
     12  C12       20.6340    6.6690   24.1190 C.ar  501  P45501      0.0166
     13  C13       20.6120    6.2930   25.4620 C.ar  501  P45501      0.0013
     14  C14       20.2480    7.2200   26.4390 C.ar  501  P45501      0.0001
     15  C15       19.9580    8.5300   26.0550 C.ar  501  P45501      0.0013
     16  C16       19.9890    8.9020   24.7120 C.ar  501  P45501      0.0166
     17  N17       23.4510    5.4820   20.7780 N.pl3 501  P45501     -0.1468
     18  C18       23.6170    4.8260   22.0710 C.3   501  P45501      0.1526
     19  C19       22.5940    3.7600   22.3850 C.ar  501  P45501      0.0003
     20  C20       22.3590    3.4210   23.7160 C.ar  501  P45501     -0.0017
     21  C21       21.4360    2.4260   24.0330 C.ar  501  P45501      0.0111
     22  C22       20.7400    1.7500   23.0310 C.ar  501  P45501      0.0577
     23  C23       20.9530    2.1220   21.7060 C.ar  501  P45501      0.0111
     24  C24       21.8790    3.1130   21.3770 C.ar  501  P45501     -0.0017
     25  C25       21.9880    8.8670   16.7230 C.1   501  P45501      0.0871
     26  N26       22.4920    8.9460   15.6820 N.1   501  P45501     -0.1950
     27 CL27       19.6540    0.4560   23.4370 Cl    501  P45501     -0.0822
@<TRIPOS>BOND
     1    26    25    3
     2    25     3    1
     3     3     2    1
     4     3     4    1
     5     2     1    2
     6     4     6    2
     7     4     5    1
     8     6     7    2
     9     1     5    1
    10     5     9    1
    11     7    17    1
    12     7     8    2
    13    17    18    1
    14    24    23   ar
    15    24    19   ar
    16     9     8    2
    17     9    10    1
    18    23    22   ar
    19    18    19    1
    20    19    20   ar
    21    10    11    1
    22    22    27    1
    23    22    21   ar
    24    20    21   ar
    25    11    12   ar
    26    11    16   ar
    27    12    13   ar
    28    16    15   ar
    29    13    14   ar
    30    15    14   ar
