@<TRIPOS>MOLECULE
2pvl_P55_A_1.pdb
 26 29 0 0 0
SMALL
GASTEIGER

@<TRIPOS>ATOM
      1  N01       19.9040    9.4950   19.7460 N.2   501  P55501     -0.1703
      2  C02       20.1960    9.7280   18.4440 C.2   501  P55501      0.1155
      3  C03       21.1950    8.8240   18.0370 C.3   501  P55501      0.2031
      4  C04       21.4780    8.0190   19.2080 C.2   501  P55501      0.2193
      5  N05       20.6740    8.4740   20.2140 N.pl3 501  P55501     -0.1214
      6  N06       22.3180    7.0010   19.4520 N.2   501  P55501     -0.3137
      7  C07       22.3100    6.4970   20.6840 C.1   501  P55501      0.2064
      8  N08       21.5420    6.9320   21.6780 N.2   501  P55501     -0.2930
      9  C09       20.7160    7.9390   21.4220 C.cat 501  P55501      0.2993
     10  N10       19.9170    8.4610   22.3860 N.pl3 501  P55501     -0.1680
     11  C11       20.0020    8.1390   23.7050 C.ar  501  P55501      0.0744
     12  C12       20.1590    6.8170   24.1280 C.ar  501  P55501      0.0166
     13  C13       20.1270    6.4850   25.4800 C.ar  501  P55501      0.0013
     14  C14       19.9420    7.4890   26.4320 C.ar  501  P55501      0.0001
     15  C15       19.8490    8.8180   26.0200 C.ar  501  P55501      0.0013
     16  C16       19.8850    9.1460   24.6640 C.ar  501  P55501      0.0166
     17  N17       23.1660    5.4020   20.9610 N.pl3 501  P55501     -0.2312
     18  C18       23.2550    4.8370   22.3190 C.3   501  P55501      0.1205
     19  C19       22.5450    3.4810   22.4110 C.3   501  P55501      0.0947
     20  N20       22.9970    2.6210   21.3000 N.3   501  P55501     -0.2697
     21  C21       22.8320    3.1840   19.9500 C.3   501  P55501      0.0947
     22  C22       23.5200    4.5420   19.8170 C.3   501  P55501      0.1205
     23  C23       22.4740    1.2450   21.3430 C.3   501  P55501      0.0722
     24  C24       20.9450    1.2080   21.2520 C.3   501  P55501      0.0188
     25  C25       21.8110    8.7640   16.7440 C.1   501  P55501      0.0871
     26  N26       22.3100    8.8090   15.6980 N.1   501  P55501     -0.1950
@<TRIPOS>BOND
     1    26    25    3
     2    25     3    1
     3     3     2    1
     4     3     4    1
     5     2     1    2
     6     4     6    2
     7     4     5    1
     8     6     7    2
     9     1     5    1
    10    22    21    1
    11    22    17    1
    12    21    20    1
    13     5     9    1
    14     7    17    1
    15     7     8    2
    16    17    18    1
    17    24    23    1
    18    20    23    1
    19    20    19    1
    20     9     8    2
    21     9    10    1
    22    18    19    1
    23    10    11    1
    24    11    12   ar
    25    11    16   ar
    26    12    13   ar
    27    16    15   ar
    28    13    14   ar
    29    15    14   ar
