@<TRIPOS>MOLECULE
2pvm_P29_A_1.pdb
 26 29 0 0 0
SMALL
GASTEIGER

@<TRIPOS>ATOM
      1  N01       20.1340    9.9390   19.7070 N.2   501  P29501     -0.1703
      2  C02       20.4390   10.0350   18.3860 C.2   501  P29501      0.1155
      3  C03       21.4070    9.0650   18.0660 C.3   501  P29501      0.2031
      4  C04       21.6650    8.3550   19.3000 C.2   501  P29501      0.2194
      5  N05       20.8760    8.9320   20.2520 N.pl3 501  P29501     -0.1216
      6  N06       22.4740    7.3330   19.6320 N.2   501  P29501     -0.3124
      7  C07       22.4660    6.9290   20.9010 C.1   501  P29501      0.2281
      8  N08       21.7110    7.4830   21.8430 N.2   501  P29501     -0.2920
      9  C09       20.9190    8.4910   21.4950 C.cat 501  P29501      0.2951
     10  N10       20.1550    9.1040   22.4290 N.pl3 501  P29501     -0.1938
     11  C11       20.1440    8.6660   23.8230 C.3   501  P29501      0.1226
     12  C12       21.3140    9.2600   24.6070 C.3   501  P29501      0.0705
     13  C13       21.2570    8.7150   26.0160 C.2   501  P29501      0.0764
     14  N14       21.2900    7.3950   26.3010 N.2   501  P29501     -0.2470
     15  C15       21.2220    7.2880   27.6570 C.3   501  P29501      0.2505
     16  N16       21.1460    8.5320   28.2120 N.2   501  P29501     -0.2415
     17  C17       21.1660    9.4540   27.2120 C.2   501  P29501      0.1098
     18  N18       23.2210    5.8920   21.3510 N.pl3 501  P29501     -0.1253
     19  C19       23.9910    5.0260   20.6430 C.ar  501  P29501      0.0835
     20  C20       23.9970    4.9270   19.2490 C.ar  501  P29501      0.0174
     21  C21       24.8190    4.0160   18.5890 C.ar  501  P29501      0.0014
     22  C22       25.6530    3.1850   19.3320 C.ar  501  P29501      0.0001
     23  C23       25.6500    3.2670   20.7230 C.ar  501  P29501      0.0014
     24  C24       24.8230    4.1810   21.3750 C.ar  501  P29501      0.0174
     25  C25       22.0690    8.8930   16.8090 C.1   501  P29501      0.0871
     26  N26       22.6610    8.8540   15.8130 N.1   501  P29501     -0.1950
@<TRIPOS>BOND
     1    26    25    3
     2    25     3    1
     3     3     2    1
     4     3     4    1
     5     2     1    2
     6    21    20   ar
     7    21    22   ar
     8    20    19   ar
     9     4     6    2
    10     4     5    1
    11    22    23   ar
    12     6     7    2
    13     1     5    1
    14     5     9    1
    15    19    18    1
    16    19    24   ar
    17    23    24   ar
    18     7    18    1
    19     7     8    2
    20     9     8    2
    21     9    10    1
    22    10    11    1
    23    11    12    1
    24    12    13    1
    25    13    14    2
    26    13    17    1
    27    14    15    1
    28    17    16    2
    29    15    16    1
