@<TRIPOS>MOLECULE
2pvn_P63_A_1.pdb
 29 32 0 0 0
SMALL
GASTEIGER

@<TRIPOS>ATOM
      1  N01       19.9640    9.4690   20.1230 N.2   501  P63501     -0.1703
      2  C02       20.2290    9.7760   18.8260 C.2   501  P63501      0.1155
      3  C03       21.2050    8.8890   18.3320 C.3   501  P63501      0.2031
      4  C04       21.5130    8.0160   19.4430 C.2   501  P63501      0.2194
      5  N05       20.7400    8.4130   20.4930 N.pl3 501  P63501     -0.1214
      6  N06       22.3460    6.9740   19.6120 N.2   501  P63501     -0.3124
      7  C07       22.3820    6.3670   20.7930 C.1   501  P63501      0.2281
      8  N08       21.6300    6.7470   21.8220 N.2   501  P63501     -0.2916
      9  C09       20.8180    7.7860   21.6460 C.cat 501  P63501      0.2993
     10  N10       20.0670    8.3110   22.6410 N.pl3 501  P63501     -0.1680
     11  C11       20.1080    7.9500   23.9510 C.ar  501  P63501      0.0744
     12  C12       19.7570    8.9250   24.8880 C.ar  501  P63501      0.0166
     13  C13       19.5390    8.5230   26.2070 C.ar  501  P63501      0.0013
     14  C14       19.6980    7.1900   26.6020 C.ar  501  P63501      0.0001
     15  C15       20.1950    6.2520   25.6930 C.ar  501  P63501      0.0013
     16  C16       20.3980    6.6490   24.3700 C.ar  501  P63501      0.0166
     17  N17       23.2150    5.3100   21.0060 N.pl3 501  P63501     -0.1253
     18  C18       23.9520    4.5870   20.1190 C.ar  501  P63501      0.0848
     19  C19       24.1570    4.9410   18.7870 C.ar  501  P63501      0.0340
     20  C20       24.9930    4.2220   17.9350 C.ar  501  P63501      0.0747
     21  C21       25.6580    3.1110   18.4400 C.ar  501  P63501      0.0167
     22  C22       25.4490    2.7140   19.7580 C.ar  501  P63501      0.0027
     23  C23       24.5930    3.4410   20.5850 C.ar  501  P63501      0.0175
     24  C25       21.7240    8.8570   16.9970 C.1   501  P63501      0.0871
     25  N26       22.1280    8.9010   15.9110 N.1   501  P63501     -0.1950
     26  N27       24.9960    4.4090   16.5910 N.am  501  P63501     -0.1792
     27  C28       25.1270    5.5610   15.8950 C.2   501  P63501      0.2461
     28  O29       25.2420    5.5670   14.6750 O.2   501  P63501     -0.2730
     29  C30       25.1380    6.8880   16.6530 C.3   501  P63501      0.0968
@<TRIPOS>BOND
     1    28    27    2
     2    27    26   am
     3    27    29    1
     4    25    24    3
     5    26    20    1
     6    24     3    1
     7    20    21   ar
     8    20    19   ar
     9     3     2    1
    10     3     4    1
    11    21    22   ar
    12    19    18   ar
    13     2     1    2
    14     4     6    2
    15     4     5    1
    16     6     7    2
    17    22    23   ar
    18    18    23   ar
    19    18    17    1
    20     1     5    1
    21     5     9    1
    22     7    17    1
    23     7     8    2
    24     9     8    2
    25     9    10    1
    26    10    11    1
    27    11    16   ar
    28    11    12   ar
    29    16    15   ar
    30    12    13   ar
    31    15    14   ar
    32    13    14   ar
