@<TRIPOS>MOLECULE
2pvq_GSH_A_1.pdb
 20 19 0 0 0
SMALL
GASTEIGER

@<TRIPOS>ATOM
      1  N1        45.7510    1.6540   49.4440 N.3   5204  GSH5204    -0.1208
      2  CA1       45.6190    3.0190   49.8930 C.3   5204  GSH5204     0.1948
      3  C1        46.7730    3.8160   49.4110 C.2   5204  GSH5204     0.3819
      4  O11       47.4440    3.4400   48.2340 O.co2 5204  GSH5204    -0.2441
      5  O12       47.1390    4.8700   50.0920 O.co2 5204  GSH5204    -0.2441
      6  CB1       44.4270    3.6700   49.2440 C.3   5204  GSH5204     0.0402
      7  CG1       43.9700    4.8120   50.1310 C.3   5204  GSH5204     0.0889
      8  CD1       42.9400    4.2140   51.0300 C.2   5204  GSH5204     0.2418
      9  OE1       42.4150    2.9660   50.7100 O.2   5204  GSH5204    -0.2733
     10  N2        42.5720    4.8920   52.0950 N.am  5204  GSH5204    -0.1968
     11  CA2       41.1960    4.8910   52.5520 C.3   5204  GSH5204     0.1843
     12  C2        40.3770    3.8480   51.8810 C.2   5204  GSH5204     0.2627
     13  O2        40.2900    3.8130   50.4880 O.2   5204  GSH5204    -0.2714
     14  CB2       40.5580    6.2310   52.2570 C.3   5204  GSH5204     0.0997
     15  SG2       41.4940    7.6080   52.9150 S.3   5204  GSH5204    -0.0797
     16  N3        39.7520    2.9930   52.6630 N.am  5204  GSH5204    -0.1917
     17  CA3       39.7130    3.1540   54.0900 C.3   5204  GSH5204     0.2285
     18  C3        39.4600    4.5900   54.4530 C.2   5204  GSH5204     0.3865
     19  O31       38.8300    5.4490   53.5520 O.co2 5204  GSH5204    -0.2437
     20  O32       39.8150    5.0600   55.6190 O.co2 5204  GSH5204    -0.2437
@<TRIPOS>BOND
     1     4     3   ar
     2     6     2    1
     3     6     7    1
     4     3     2    1
     5     3     5   ar
     6     1     2    1
     7     7     8    1
     8    13    12    2
     9     9     8    2
    10     8    10   am
    11    12    11    1
    12    12    16   am
    13    10    11    1
    14    14    11    1
    15    14    15    1
    16    16    17    1
    17    19    18   ar
    18    17    18    1
    19    18    20   ar
