@<TRIPOS>MOLECULE
2pvr_ANP_A_1.pdb
 31 33 0 0 0
SMALL
GASTEIGER

@<TRIPOS>ATOM
      1  PG       -13.5700   15.0270   35.4170 P.3   6004  ANP6004     0.4884
      2  O1G      -13.3870   13.6720   34.7710 O.3   6004  ANP6004    -0.1240
      3  O2G      -12.3000   15.6070   35.9990 O.3   6004  ANP6004    -0.1240
      4  O3G      -14.3450   15.9990   34.5570 O.2   6004  ANP6004    -0.2331
      5  PB       -15.5790   15.9600   37.5320 P.3   6004  ANP6004     0.4669
      6  O1B      -14.6470   16.9060   38.2550 O.3   6004  ANP6004    -0.1253
      7  O2B      -16.4890   16.5550   36.4840 O.2   6004  ANP6004    -0.2351
      8  N3B      -14.6010   14.7010   36.8000 N.3   6004  ANP6004    -0.0163
      9  PA       -16.1180   14.9090   40.1280 P.3   6004  ANP6004     0.2220
     10  O1A      -16.7100   13.5620   40.4830 O.3   6004  ANP6004    -0.4370
     11  O2A      -14.6290   15.1070   40.3000 O.2   6004  ANP6004    -0.5170
     12  O3A      -16.5580   15.2640   38.6130 O.3   6004  ANP6004    -0.2360
     13  O5'      -16.8810   16.0390   40.9980 O.3   6004  ANP6004    -0.3111
     14  C5'      -17.1920   17.3420   40.4870 C.3   6004  ANP6004     0.1813
     15  C4'      -17.0470   18.3990   41.5760 C.3   6004  ANP6004     0.1821
     16  O4'      -17.6530   17.9750   42.8030 O.3   6004  ANP6004    -0.3135
     17  C3'      -15.5820   18.6980   41.8710 C.3   6004  ANP6004     0.2184
     18  O3'      -15.1850   19.9470   41.2920 O.3   6004  ANP6004    -0.2174
     19  C2'      -15.4590   18.7100   43.3850 C.3   6004  ANP6004     0.2570
     20  O2'      -14.9730   19.9740   43.8600 O.3   6004  ANP6004    -0.2130
     21  C1'      -16.8600   18.3960   43.9180 C.3   6004  ANP6004     0.3186
     22  N9       -16.7920   17.3470   44.9730 N.pl3 6004  ANP6004    -0.1439
     23  C8       -16.5290   16.0370   44.7860 C.3   6004  ANP6004     0.3377
     24  N7       -16.5350   15.3710   45.9710 N.2   6004  ANP6004    -0.2095
     25  C5       -16.8040   16.2600   46.9430 C.2   6004  ANP6004     0.2526
     26  C6       -16.9570   16.2260   48.4190 C.2   6004  ANP6004     0.4393
     27  N6       -16.8200   15.0720   49.1080 N.pl3 6004  ANP6004     0.2180
     28  N1       -17.2400   17.3920   49.0530 N.2   6004  ANP6004     0.0021
     29  C2       -17.3830   18.5580   48.3800 C.3   6004  ANP6004     0.5254
     30  N3       -17.2570   18.6550   47.0370 N.2   6004  ANP6004    -0.0055
     31  C4       -16.9720   17.5630   46.2780 C.2   6004  ANP6004     0.3518
@<TRIPOS>BOND
     1     4     1    2
     2     2     1    1
     3     1     3    1
     4     1     8    1
     5     7     5    2
     6     8     5    1
     7     5     6    1
     8     5    12    1
     9    12     9    1
    10     9    11    2
    11     9    10    1
    12     9    13    1
    13    14    13    1
    14    14    15    1
    15    18    17    1
    16    15    17    1
    17    15    16    1
    18    17    19    1
    19    16    21    1
    20    19    20    1
    21    19    21    1
    22    21    22    1
    23    23    22    1
    24    23    24    1
    25    22    31    1
    26    24    25    2
    27    31    25    1
    28    31    30    2
    29    25    26    1
    30    30    29    1
    31    29    28    1
    32    26    28    2
    33    26    27    1
