@<TRIPOS>MOLECULE
2pvu_LYS_A_1.pdb
 10 9 0 0 0
SMALL
GASTEIGER

@<TRIPOS>ATOM
      1  N        -13.9730   22.9190   12.8300 N.3   301  LYS301     -0.1208
      2  CA       -13.0840   23.8760   13.5690 C.3   301  LYS301      0.1943
      3  C        -12.4030   24.8150   12.5640 C.2   301  LYS301      0.3819
      4  O        -11.7370   25.7620   12.9560 O.co2 301  LYS301     -0.2441
      5  CB       -12.0170   23.1140   14.3470 C.3   301  LYS301      0.0307
      6  CG       -11.1420   22.2350   13.4200 C.3   301  LYS301      0.0036
      7  CD        -9.7990   21.8730   14.0890 C.3   301  LYS301      0.0206
      8  CE        -9.2180   20.6340   13.4240 C.3   301  LYS301      0.1093
      9  NZ        -7.7710   20.3520   13.9330 N.3   301  LYS301     -0.1314
     10  OXT      -12.4970   24.6210   11.3320 O.co2 301  LYS301     -0.2441
@<TRIPOS>BOND
     1    10     3   ar
     2     3     4   ar
     3     3     2    1
     4     1     2    1
     5     6     7    1
     6     6     5    1
     7     8     9    1
     8     8     7    1
     9     2     5    1
