@<TRIPOS>MOLECULE
2pvv_OSE_A_1.pdb
 11 10 0 0 0
SMALL
GASTEIGER

@<TRIPOS>ATOM
      1  N         16.1140   44.9720   43.0010 N.3   1768  OSE1768    -0.1180
      2  CA        15.8500   44.7730   41.6870 C.3   1768  OSE1768     0.2261
      3  CB        14.4700   45.0540   41.2170 C.3   1768  OSE1768     0.2029
      4  OG        14.6210   46.5040   41.2920 O.3   1768  OSE1768    -0.2390
      5  C         16.8660   44.6740   40.6470 C.2   1768  OSE1768     0.3845
      6  O         17.7540   45.5610   40.6870 O.co2 1768  OSE1768    -0.2440
      7  S         13.9870   47.4220   40.1320 S.3   1768  OSE1768    -0.0001
      8  O1S       14.4100   46.8740   38.8510 O.2   1768  OSE1768    -0.3452
      9  O2S       14.4670   48.7770   40.3020 O.3   1768  OSE1768    -0.2682
     10  O3S       12.5610   47.0900   40.2710 O.2   1768  OSE1768    -0.3452
     11  OXT       16.7890   43.8970   39.6750 O.co2 1768  OSE1768    -0.2440
@<TRIPOS>BOND
     1     8     7    2
     2    11     5   ar
     3     7    10    2
     4     7     9    1
     5     7     4    1
     6     5     6   ar
     7     5     2    1
     8     3     4    1
     9     3     2    1
    10     2     1    1
