@<TRIPOS>MOLECULE
2pvw_G88_A_1.pdb
 14 13 0 0 0
SMALL
GASTEIGER

@<TRIPOS>ATOM
      1  O6        13.2570   47.2300   39.6550 O.co2 1768  G881768    -0.2457
      2  C6        14.0610   47.7720   40.4770 C.2   1768  G881768     0.3649
      3  O7        13.9730   49.0030   40.7900 O.co2 1768  G881768    -0.2457
      4  C5        15.1910   46.9740   41.1330 C.3   1768  G881768     0.1146
      5  C4        14.8170   45.4990   41.3340 C.3   1768  G881768     0.0235
      6  C2        16.0990   44.7150   41.7680 C.3   1768  G881768     0.1112
      7  C3        17.1720   44.7800   40.6730 C.2   1768  G881768     0.3648
      8  O5        17.0980   43.9790   39.6900 O.co2 1768  G881768    -0.2457
      9  O4        18.1070   45.6220   40.7610 O.co2 1768  G881768    -0.2457
     10  C1        16.6740   45.2800   43.1190 C.3   1768  G881768     0.0702
     11  P1        17.6870   44.0350   44.0120 P.3   1768  G881768     0.1177
     12  O2        18.4410   43.1880   42.9290 O.2   1768  G881768    -0.4601
     13  O3        18.7430   44.7750   44.7620 O.3   1768  G881768    -0.3571
     14  O1        16.7900   43.1960   44.8410 O.3   1768  G881768    -0.3571
@<TRIPOS>BOND
     1     1     2   ar
     2     8     7   ar
     3     2     3   ar
     4     2     4    1
     5     7     9   ar
     6     7     6    1
     7     4     5    1
     8     5     6    1
     9     6    10    1
    10    12    11    2
    11    10    11    1
    12    11    13    1
    13    11    14    1
