@<TRIPOS>MOLECULE
2pvy_ACP_A_1.pdb
 17 19 0 0 0
SMALL
GASTEIGER

@<TRIPOS>ATOM
      1  C4'       -4.4420   41.8150   68.6310 C.3   802  ACP802      0.1820
      2  O4'       -4.5300   43.2490   68.4250 O.3   802  ACP802     -0.3135
      3  C3'       -3.1520   41.6330   69.4170 C.3   802  ACP802      0.2184
      4  O3'       -2.6280   40.3220   69.2270 O.3   802  ACP802     -0.2174
      5  C2'       -2.2390   42.7000   68.8140 C.3   802  ACP802      0.2570
      6  O2'       -1.6160   42.2830   67.6130 O.3   802  ACP802     -0.2130
      7  C1'       -3.2370   43.8270   68.5190 C.3   802  ACP802      0.3186
      8  N9        -3.2820   44.9070   69.5120 N.pl3 802  ACP802     -0.1439
      9  C8        -3.4290   44.8120   70.8780 C.3   802  ACP802      0.3377
     10  N7        -3.4440   45.9730   71.4890 N.2   802  ACP802     -0.2095
     11  C5        -3.2920   46.8970   70.4610 C.2   802  ACP802      0.2526
     12  C6        -3.2260   48.3080   70.4490 C.2   802  ACP802      0.4393
     13  N6        -3.3050   49.0650   71.5460 N.pl3 802  ACP802      0.2180
     14  N1        -3.0700   48.9190   69.2530 N.2   802  ACP802      0.0021
     15  C2        -2.9830   48.1610   68.1530 C.3   802  ACP802      0.5254
     16  N3        -3.0290   46.8360   68.0350 N.2   802  ACP802     -0.0055
     17  C4        -3.1880   46.2540   69.2390 C.2   802  ACP802      0.3518
@<TRIPOS>BOND
     1     6     5    1
     2    16    15    1
     3    16    17    2
     4    15    14    1
     5     2     7    1
     6     2     1    1
     7     7     5    1
     8     7     8    1
     9     1     3    1
    10     5     3    1
    11     4     3    1
    12    17     8    1
    13    17    11    1
    14    14    12    2
    15     8     9    1
    16    12    11    1
    17    12    13    1
    18    11    10    2
    19     9    10    1
