@<TRIPOS>MOLECULE
2pw0_TRC_A_1.pdb
 12 11 0 0 0
SMALL
GASTEIGER

@<TRIPOS>ATOM
      1  C1        31.2890  -10.3080    1.7370 C.2   2001  TRC2001     0.3879
      2  O1        30.6890   -9.1980    1.7070 O.co2 2001  TRC2001    -0.2406
      3  O2        30.7920  -11.3860    1.3250 O.co2 2001  TRC2001    -0.2406
      4  C2        32.5790  -10.3250    2.2930 C.2   2001  TRC2001     0.0890
      5  C3        33.6110  -11.2530    2.0300 C.2   2001  TRC2001     0.0754
      6  C4        33.5250  -12.4180    1.0260 C.3   2001  TRC2001     0.1471
      7  C5        34.7730  -12.4650    0.1200 C.2   2001  TRC2001     0.3694
      8  O3        34.8900  -13.4760   -0.5970 O.co2 2001  TRC2001    -0.2453
      9  O4        35.5810  -11.5060    0.1720 O.co2 2001  TRC2001    -0.2453
     10  C6        34.9320  -11.0920    2.7690 C.2   2001  TRC2001     0.3846
     11  O5        35.4470  -12.1260    3.2280 O.co2 2001  TRC2001    -0.2409
     12  O6        35.4100   -9.9470    2.8540 O.co2 2001  TRC2001    -0.2409
@<TRIPOS>BOND
     1     8     7   ar
     2     7     9   ar
     3     7     6    1
     4     6     5    1
     5     3     1   ar
     6     2     1   ar
     7     1     4    1
     8     5     4    2
     9     5    10    1
    10    10    12   ar
    11    10    11   ar
