@<TRIPOS>MOLECULE
2pw2_III_C_1.pdb
 48 49 0 0 0
SMALL
GASTEIGER

@<TRIPOS>ATOM
      1  N          1.8090   59.3040   72.2270 N.3     1  GLU1       -0.1231
      2  CA         1.3710   59.4610   73.6410 C.3     1  GLU1        0.1699
      3  C          2.3360   58.7380   74.5690 C.2     1  GLU1        0.2592
      4  O          2.8520   57.6740   74.2380 O.2     1  GLU1       -0.2718
      5  CB        -0.0340   58.8920   73.8000 C.3     1  GLU1        0.0402
      6  CG        -0.4700   58.6640   75.2210 C.3     1  GLU1        0.1161
      7  CD        -1.6230   57.6890   75.2760 C.2     1  GLU1        0.3649
      8  OE1       -1.7530   56.8990   74.3150 O.co2   1  GLU1       -0.2457
      9  OE2       -2.3840   57.6960   76.2700 O.co2   1  GLU1       -0.2457
     10  N          2.5780   59.3130   75.7370 N.am    2  LEU2       -0.1966
     11  CA         3.4960   58.6930   76.6740 C.3     2  LEU2        0.1728
     12  C          2.9090   57.5390   77.4550 C.2     2  LEU2        0.2616
     13  O          1.7080   57.4840   77.7150 O.2     2  LEU2       -0.2715
     14  CB         4.0200   59.7270   77.6560 C.3     2  LEU2        0.0311
     15  CG         4.8840   60.8080   77.0140 C.3     2  LEU2        0.0022
     16  CD1        5.1340   61.9000   78.0320 C.3     2  LEU2        0.0001
     17  CD2        6.1970   60.2120   76.5180 C.3     2  LEU2        0.0001
     18  N          3.7850   56.6140   77.8220 N.am    3  ASP3       -0.1957
     19  CA         3.4090   55.4620   78.6130 C.3     3  ASP3        0.1840
     20  C          2.9160   55.9830   79.9620 C.2     3  ASP3        0.2622
     21  O          3.1450   57.1390   80.3270 O.2     3  ASP3       -0.2715
     22  CB         4.6270   54.5530   78.8060 C.3     3  ASP3        0.1450
     23  CG         4.3540   53.3890   79.7370 C.2     3  ASP3        0.3671
     24  OD1        3.4610   52.5690   79.4310 O.co2   3  ASP3       -0.2456
     25  OD2        5.0350   53.2950   80.7780 O.co2   3  ASP3       -0.2456
     26  N          2.2540   55.1080   80.6990 N.am    4  LYS4       -0.1963
     27  CA         1.6990   55.4300   81.9960 C.3     4  LYS4        0.1728
     28  C          2.7060   55.9240   83.0340 C.2     4  LYS4        0.2616
     29  O          2.4340   56.8850   83.7560 O.2     4  LYS4       -0.2715
     30  CB         0.9840   54.1980   82.5310 C.3     4  LYS4        0.0311
     31  CG         0.1660   54.4200   83.7650 C.3     4  LYS4        0.0038
     32  CD        -0.3250   53.0830   84.2570 C.3     4  LYS4        0.0206
     33  CE        -1.4160   53.2430   85.2810 C.3     4  LYS4        0.1093
     34  NZ        -2.6360   53.7950   84.6460 N.3     4  LYS4       -0.1314
     35  N          3.8670   55.2850   83.1160 N.am    5  TRP5       -0.1974
     36  CA         4.8390   55.6910   84.1190 C.3     5  TRP5        0.1637
     37  C          5.9120   56.6960   83.6660 C.2     5  TRP5        0.2290
     38  O          7.0820   56.5380   84.0730 O.2     5  TRP5       -0.2864
     39  CB         5.4790   54.4390   84.6870 C.3     5  TRP5        0.0539
     40  CG         4.4640   53.4110   84.9630 C.2     5  TRP5       -0.0137
     41  CD1        4.2320   52.2760   84.2460 C.2     5  TRP5        0.0907
     42  CD2        3.4890   53.4360   86.0050 C.3     5  TRP5        0.0819
     43  NE1        3.1670   51.5870   84.7810 N.2     5  TRP5       -0.2482
     44  CE2        2.6930   52.2800   85.8630 C.2     5  TRP5        0.0665
     45  CE3        3.2070   54.3270   87.0510 C.2     5  TRP5       -0.0164
     46  CZ2        1.6330   51.9900   86.7260 C.2     5  TRP5        0.0153
     47  CZ3        2.1490   54.0380   87.9110 C.2     5  TRP5       -0.0038
     48  CH2        1.3770   52.8800   87.7410 C.2     5  TRP5        0.0009
@<TRIPOS>BOND
     1     1     2    1
     2     2     5    1
     3     2     3    1
     4     5     6    1
     5     4     3    2
     6     8     7   ar
     7     3    10   am
     8     6     7    1
     9     7     9   ar
    10    10    11    1
    11    17    15    1
    12    11    12    1
    13    11    14    1
    14    15    14    1
    15    15    16    1
    16    12    13    2
    17    12    18   am
    18    18    19    1
    19    19    22    1
    20    19    20    1
    21    22    23    1
    22    24    23   ar
    23    23    25   ar
    24    20    21    2
    25    20    26   am
    26    26    27    1
    27    27    30    1
    28    27    28    1
    29    30    31    1
    30    28    35   am
    31    28    29    2
    32    35    36    1
    33    37    38    2
    34    37    36    1
    35    31    32    1
    36    36    39    1
    37    41    43    1
    38    41    40    2
    39    32    33    1
    40    34    33    1
    41    39    40    1
    42    43    44    2
    43    40    42    1
    44    44    42    1
    45    44    46    1
    46    42    45    1
    47    46    48    2
    48    45    47    2
    49    48    47    1
