@<TRIPOS>MOLECULE
2pw3_CMP_A_1.pdb
 22 25 0 0 0
SMALL
GASTEIGER

@<TRIPOS>ATOM
      1  P          5.9450    0.1630   51.6270 P.3     1  CMP1        0.2141
      2  O1P        5.3790    0.3490   50.2680 O.2     1  CMP1       -0.5172
      3  O2P        6.3490    1.3480   52.4240 O.3     1  CMP1       -0.4373
      4  O5'        7.2240   -0.7970   51.5210 O.3     1  CMP1       -0.3114
      5  C5'        7.6120   -1.6330   52.6200 C.3     1  CMP1        0.1812
      6  C4'        6.3920   -2.3320   53.1380 C.3     1  CMP1        0.1793
      7  O4'        6.6350   -3.1690   54.2910 O.3     1  CMP1       -0.3136
      8  C3'        5.3930   -1.3360   53.6630 C.3     1  CMP1        0.1884
      9  O3'        4.9030   -0.6750   52.5200 O.3     1  CMP1       -0.3111
     10  C2'        4.4480   -2.2430   54.4270 C.3     1  CMP1        0.2541
     11  O2'        3.6010   -2.9570   53.5480 O.3     1  CMP1       -0.2131
     12  C1'        5.4530   -3.1980   55.0840 C.3     1  CMP1        0.3185
     13  N9         5.8200   -2.8270   56.4490 N.pl3   1  CMP1       -0.1439
     14  C8         6.8300   -1.9910   56.8570 C.3     1  CMP1        0.3377
     15  N7         6.9410   -1.8930   58.1610 N.2     1  CMP1       -0.2095
     16  C5         5.9300   -2.7120   58.6430 C.2     1  CMP1        0.2526
     17  C6         5.5250   -3.0510   59.9480 C.2     1  CMP1        0.4393
     18  N6         6.1150   -2.5860   61.0520 N.pl3   1  CMP1        0.2180
     19  N1         4.4830   -3.8980   60.0800 N.2     1  CMP1        0.0021
     20  C2         3.8950   -4.3710   58.9760 C.3     1  CMP1        0.5254
     21  N3         4.1830   -4.1290   57.6950 N.2     1  CMP1       -0.0055
     22  C4         5.2240   -3.2840   57.5990 C.2     1  CMP1        0.3518
@<TRIPOS>BOND
     1     2     1    2
     2     4     1    1
     3     4     5    1
     4     1     3    1
     5     1     9    1
     6     9     8    1
     7     5     6    1
     8     6     8    1
     9     6     7    1
    10    11    10    1
    11     8    10    1
    12     7    12    1
    13    10    12    1
    14    12    13    1
    15    13    14    1
    16    13    22    1
    17    14    15    1
    18    22    21    2
    19    22    16    1
    20    21    20    1
    21    15    16    2
    22    16    17    1
    23    20    19    1
    24    17    19    2
    25    17    18    1
