@<TRIPOS>MOLECULE
2pwb_COU_A_1.pdb
 11 12 0 0 0
SMALL
GASTEIGER

@<TRIPOS>ATOM
      1  C1       -16.5510   14.3090  -12.3910 C.ar  2291  COU2291     0.3459
      2  C2       -16.1200   14.2540  -13.8250 C.ar  2291  COU2291     0.0824
      3  C3       -16.0600   12.8510  -14.4220 C.ar  2291  COU2291     0.0097
      4  C4       -16.4370   11.6910  -13.5180 C.ar  2291  COU2291     0.0349
      5  C5       -16.3960   10.4350  -14.0590 C.ar  2291  COU2291     0.0030
      6  C6       -16.7290    9.3270  -13.2960 C.ar  2291  COU2291     0.0002
      7  C7       -17.1080    9.4970  -11.9710 C.ar  2291  COU2291     0.0031
      8  C8       -17.1410   10.7830  -11.4500 C.ar  2291  COU2291     0.0376
      9  C9       -16.8010   11.8470  -12.2380 C.ar  2291  COU2291     0.1487
     10  O1       -16.6670   15.4900  -11.7850 O.2   2291  COU2291    -0.2445
     11  O2       -16.8650   13.1430  -11.5970 O.2   2291  COU2291    -0.4210
@<TRIPOS>BOND
     1     3     2   ar
     2     3     4   ar
     3     5     4   ar
     4     5     6   ar
     5     2     1   ar
     6     4     9   ar
     7     6     7   ar
     8     1    10    2
     9     1    11   ar
    10     9    11   ar
    11     9     8   ar
    12     7     8   ar
