@<TRIPOS>MOLECULE
2pwc_G3G_A_1.pdb
 41 45 0 0 0
SMALL
GASTEIGER

@<TRIPOS>ATOM
      1  C2       -14.3930   23.8410   -1.7170 C.ar  501  G3G501      0.0194
      2  C6       -13.2940   24.2110   -2.5180 C.ar  501  G3G501      0.0892
      3  C5       -13.4200   24.1610   -3.9240 C.ar  501  G3G501      0.0194
      4  C20      -14.5970   23.6370   -4.5150 C.ar  501  G3G501      0.0213
      5  C27      -15.7080   23.2600   -3.7170 C.ar  501  G3G501      0.1223
      6  C18      -15.5980   23.3790   -2.3120 C.ar  501  G3G501      0.0213
      7  S9       -17.1770   22.6560   -4.5330 S.O2  501  G3G501      0.0636
      8  O40      -18.2600   23.0640   -3.6580 O.2   501  G3G501     -0.1528
      9  O11      -17.0310   22.9690   -5.9390 O.2   501  G3G501     -0.1528
     10  N32      -16.8730   20.9700   -4.2350 N.3   501  G3G501     -0.1496
     11  C33      -17.4250   20.3890   -2.9790 C.3   501  G3G501      0.1221
     12  C34      -18.7020   19.5640   -3.0720 C.ar  501  G3G501     -0.0045
     13  C38      -18.8410   18.4070   -2.2460 C.ar  501  G3G501     -0.0029
     14  C39      -20.0290   17.6330   -2.2510 C.ar  501  G3G501     -0.0003
     15  C37      -21.0550   17.9890   -3.1700 C.ar  501  G3G501     -0.0000
     16  C36      -20.8840   19.1030   -4.0450 C.ar  501  G3G501     -0.0003
     17  C35      -19.7210   19.9180   -3.9850 C.ar  501  G3G501     -0.0029
     18  C24      -16.0310   20.2480   -5.2530 C.3   501  G3G501      0.1149
     19  C25      -14.6390   19.7940   -4.7320 C.3   501  G3G501      0.1079
     20  N22      -14.6030   18.3100   -4.6830 N.3   501  G3G501     -0.2150
     21  C21      -15.9330   17.7750   -5.0670 C.3   501  G3G501      0.1079
     22  C23      -16.7060   18.9120   -5.7750 C.3   501  G3G501      0.1149
     23  N28      -16.5220   18.8330   -7.2620 N.3   501  G3G501     -0.1496
     24  C7       -15.2420   18.5460   -7.9590 C.3   501  G3G501      0.1221
     25  C12      -14.4040   19.8270   -8.1220 C.ar  501  G3G501     -0.0045
     26  C14      -13.0040   19.8080   -7.8240 C.ar  501  G3G501     -0.0029
     27  C30      -12.1970   20.9630   -7.9810 C.ar  501  G3G501     -0.0003
     28  C31      -12.8180   22.1810   -8.3990 C.ar  501  G3G501     -0.0000
     29  C29      -14.2090   22.2100   -8.7040 C.ar  501  G3G501     -0.0003
     30  C13      -15.0110   21.0380   -8.5660 C.ar  501  G3G501     -0.0029
     31  S8       -17.8690   19.1340   -8.2350 S.O2  501  G3G501      0.0636
     32  C26      -18.9880   17.7820   -8.2170 C.ar  501  G3G501      0.1223
     33  C17      -18.7720   16.5260   -8.8500 C.ar  501  G3G501      0.0213
     34  C1       -19.7440   15.4850   -8.7900 C.ar  501  G3G501      0.0194
     35  C4       -20.9710   15.6840   -8.0650 C.ar  501  G3G501      0.0892
     36  C3       -21.2110   16.9460   -7.4330 C.ar  501  G3G501      0.0194
     37  C19      -20.2130   17.9610   -7.4910 C.ar  501  G3G501      0.0213
     38  O41      -17.3410   19.2720   -9.6130 O.2   501  G3G501     -0.1528
     39  O10      -18.5680   20.3140   -7.6860 O.2   501  G3G501     -0.1528
     40  N42      -21.9240   14.7290   -7.9830 N.pl3 501  G3G501     -0.1281
     41  N43      -12.1650   24.6900   -1.9540 N.pl3 501  G3G501     -0.1281
@<TRIPOS>BOND
     1    38    31    2
     2    33    34   ar
     3    33    32   ar
     4    34    35   ar
     5    29    30   ar
     6    29    28   ar
     7    30    25   ar
     8    28    27   ar
     9    31    32    1
    10    31    39    2
    11    31    23    1
    12    32    37   ar
    13    25    24    1
    14    25    26   ar
    15    35    40    1
    16    35    36   ar
    17    27    26   ar
    18    24    23    1
    19    37    36   ar
    20    23    22    1
    21     9     7    2
    22    22    18    1
    23    22    21    1
    24    18    19    1
    25    18    10    1
    26    21    20    1
    27    19    20    1
    28     7    10    1
    29     7     5    1
    30     7     8    2
    31     4     3   ar
    32     4     5   ar
    33    10    11    1
    34    16    17   ar
    35    16    15   ar
    36    17    12   ar
    37     3     2   ar
    38     5     6   ar
    39    15    14   ar
    40    12    11    1
    41    12    13   ar
    42     2    41    1
    43     2     1   ar
    44     6     1   ar
    45    14    13   ar
