@<TRIPOS>MOLECULE
2pwd_NOJ_A_1.pdb
 11 11 0 0 0
SMALL
GASTEIGER

@<TRIPOS>ATOM
      1  C1         5.9730    3.5020    3.0760 C.3   8000  NOJ8000     0.1243
      2  C2         4.6440    4.3300    2.9520 C.3   8000  NOJ8000     0.2020
      3  O2         3.7180    3.6460    2.1370 O.3   8000  NOJ8000    -0.2188
      4  C3         4.9660    5.7160    2.3550 C.3   8000  NOJ8000     0.2151
      5  O3         3.7900    6.5230    2.2090 O.3   8000  NOJ8000    -0.2176
      6  C4         5.9570    6.4470    3.3000 C.3   8000  NOJ8000     0.2031
      7  O4         6.2860    7.7570    2.7580 O.3   8000  NOJ8000    -0.2187
      8  C5         7.2400    5.5640    3.4760 C.3   8000  NOJ8000     0.1386
      9  N5         6.9210    4.2250    3.9460 N.3   8000  NOJ8000    -0.2113
     10  C6         8.1990    6.1920    4.5040 C.3   8000  NOJ8000     0.2020
     11  O6         7.4640    6.1380    5.7720 O.3   8000  NOJ8000    -0.2188
@<TRIPOS>BOND
     1     3     2    1
     2     5     4    1
     3     4     2    1
     4     4     6    1
     5     7     6    1
     6     2     1    1
     7     1     9    1
     8     6     8    1
     9     8     9    1
    10     8    10    1
    11    10    11    1
