@<TRIPOS>MOLECULE
2pwe_SUC_A_1.pdb
 23 24 0 0 0
SMALL
GASTEIGER

@<TRIPOS>ATOM
      1  C1         6.5680    3.0190    3.1340 C.3   700  SUC700      0.2713
      2  C2         5.1450    3.7360    3.0950 C.3   700  SUC700      0.2406
      3  C3         5.3250    5.1360    2.3070 C.3   700  SUC700      0.2198
      4  C4         6.2450    5.9430    3.1990 C.3   700  SUC700      0.2144
      5  C5         7.5900    5.2710    3.3720 C.3   700  SUC700      0.1835
      6  C6         8.4670    6.0030    4.3310 C.3   700  SUC700      0.2142
      7  O1         6.9990    2.7540    1.7300 O.3   700  SUC700     -0.3033
      8  O2         4.2850    2.8100    2.4440 O.3   700  SUC700     -0.2149
      9  O3         4.0810    5.8180    2.1980 O.3   700  SUC700     -0.2174
     10  O4         6.4970    7.2750    2.6230 O.3   700  SUC700     -0.2176
     11  O5         7.4360    3.9310    3.8720 O.3   700  SUC700     -0.3256
     12  O6         7.9820    5.6730    5.6720 O.3   700  SUC700     -0.2176
     13  C1'        9.2040    2.0770    1.7490 C.3   700  SUC700      0.2406
     14  C2'        8.1920    2.8400    0.8980 C.3   700  SUC700      0.2519
     15  C3'        8.0890    2.1920   -0.4770 C.3   700  SUC700      0.2385
     16  C4'        8.8330    3.1860   -1.4060 C.3   700  SUC700      0.2217
     17  C5'        8.8490    4.5190   -0.6360 C.3   700  SUC700      0.2147
     18  C6'        7.8960    5.6050   -1.0840 C.2   700  SUC700      0.2394
     19  O1'       10.6050    1.8280    1.0550 O.3   700  SUC700     -0.2149
     20  O2'        8.6280    4.1770    0.6880 O.3   700  SUC700     -0.3219
     21  O3'        6.7350    2.0210   -0.8800 O.3   700  SUC700     -0.2149
     22  O4'       10.1900    2.7730   -1.6360 O.3   700  SUC700     -0.2171
     23  O6'        6.8200    5.7330   -0.9760 O.2   700  SUC700     -0.2855
@<TRIPOS>BOND
     1    22    16    1
     2    16    17    1
     3    16    15    1
     4    18    23    2
     5    18    17    1
     6    21    15    1
     7    17    20    1
     8    15    14    1
     9    20    14    1
    10    14     7    1
    11    14    13    1
    12    19    13    1
    13     7     1    1
    14     9     3    1
    15     3     2    1
    16     3     4    1
    17     8     2    1
    18    10     4    1
    19     2     1    1
    20     1    11    1
    21     4     5    1
    22     5    11    1
    23     5     6    1
    24     6    12    1
