@<TRIPOS>MOLECULE
2pwf_BGC_A_1.pdb
 12 12 0 0 0
SMALL
GASTEIGER

@<TRIPOS>ATOM
      1  C2        26.8480  -42.0970   12.3350 C.3   9998  BGC9998     0.2434
      2  C3        26.4030  -43.4020   13.0140 C.3   9998  BGC9998     0.2199
      3  C4        25.4060  -43.0700   14.1380 C.3   9998  BGC9998     0.2144
      4  C5        24.2330  -42.2610   13.5760 C.3   9998  BGC9998     0.1836
      5  C6        23.3230  -41.7620   14.6830 C.3   9998  BGC9998     0.2142
      6  C1        25.6120  -41.3680   11.8070 C.3   9998  BGC9998     0.3024
      7  O1        25.9990  -40.1600   11.2400 O.3   9998  BGC9998    -0.1869
      8  O2        27.7390  -42.3610   11.2580 O.3   9998  BGC9998    -0.2148
      9  O3        27.5230  -44.0970   13.5400 O.3   9998  BGC9998    -0.2174
     10  O4        24.9200  -44.2640   14.7430 O.3   9998  BGC9998    -0.2176
     11  O5        24.7040  -41.0860   12.8860 O.3   9998  BGC9998    -0.3236
     12  O6        23.9980  -40.8100   15.4840 O.3   9998  BGC9998    -0.2176
@<TRIPOS>BOND
     1     7     6    1
     2     8     1    1
     3     6     1    1
     4     6    11    1
     5     1     2    1
     6    11     4    1
     7     2     9    1
     8     2     3    1
     9     4     3    1
    10     4     5    1
    11     3    10    1
    12     5    12    1
