@<TRIPOS>MOLECULE
2pwg_CTS_A_1.pdb
 13 14 0 0 0
SMALL
GASTEIGER

@<TRIPOS>ATOM
      1  C1        20.0830   34.2930  112.2200 C.3   8000  CTS8000     0.1082
      2  C2        20.7070   34.5890  110.8970 C.3   8000  CTS8000     0.2006
      3  C3        21.9780   35.5440  111.0290 C.3   8000  CTS8000     0.2150
      4  C4        22.3490   35.9910  112.4640 C.3   8000  CTS8000     0.2017
      5  C5        22.1740   34.8880  113.5380 C.3   8000  CTS8000     0.1215
      6  C6        21.9750   35.3560  115.0110 C.3   8000  CTS8000     0.1704
      7  O2        21.0120   33.3270  110.2660 O.3   8000  CTS8000    -0.2188
      8  O3        21.7080   36.7660  110.3030 O.3   8000  CTS8000    -0.2176
      9  O4        23.7120   36.4430  112.5220 O.3   8000  CTS8000    -0.2188
     10  O6        22.5080   36.6620  115.3030 O.3   8000  CTS8000    -0.2216
     11  N         21.0370   33.9920  113.2870 N.3   8000  CTS8000    -0.2673
     12  C7        20.4420   35.2890  115.1520 C.3   8000  CTS8000     0.0517
     13  C8        20.2730   33.8860  114.5330 C.3   8000  CTS8000     0.0749
@<TRIPOS>BOND
     1     7     2    1
     2     8     3    1
     3     2     3    1
     4     2     1    1
     5     3     4    1
     6     1    11    1
     7     4     9    1
     8     4     5    1
     9    11     5    1
    10    11    13    1
    11     5     6    1
    12    13    12    1
    13     6    12    1
    14     6    10    1
