@<TRIPOS>MOLECULE
2pwl_ACP_A_1.pdb
 27 29 0 0 0
SMALL
GASTEIGER

@<TRIPOS>ATOM
      1  PB        31.4340   18.0400   15.8570 P.3   300  ACP300      0.3749
      2  O1B       31.2480   19.3040   15.1100 O.2   300  ACP300     -0.2552
      3  O2B       30.3440   17.0220   15.8200 O.3   300  ACP300     -0.1395
      4  C3B       32.8020   17.3110   15.2640 C.3   300  ACP300      0.1312
      5  PA        31.0820   18.5380   18.5990 P.3   300  ACP300      0.2208
      6  O1A       30.5510   19.9330   18.5590 O.2   300  ACP300     -0.5170
      7  O2A       30.1370   17.4030   18.7830 O.3   300  ACP300     -0.4371
      8  O3A       31.8730   18.2950   17.3060 O.3   300  ACP300     -0.2486
      9  O5'       32.1100   18.4660   19.9140 O.3   300  ACP300     -0.3111
     10  C5'       33.2910   17.6480   20.1190 C.3   300  ACP300      0.1813
     11  C4'       33.2510   16.2760   20.7630 C.3   300  ACP300      0.1821
     12  O4'       32.7600   16.3850   22.1230 O.3   300  ACP300     -0.3135
     13  C3'       32.3110   15.2670   20.1230 C.3   300  ACP300      0.2184
     14  O3'       32.9230   14.6460   18.9970 O.3   300  ACP300     -0.2174
     15  C2'       32.0820   14.2650   21.2540 C.3   300  ACP300      0.2570
     16  O2'       33.0830   13.2690   21.3350 O.3   300  ACP300     -0.2130
     17  C1'       32.1300   15.1660   22.4930 C.3   300  ACP300      0.3186
     18  N9        30.8230   15.4690   23.0840 N.pl3 300  ACP300     -0.1439
     19  C8        29.8380   16.2970   22.5950 C.3   300  ACP300      0.3377
     20  N7        28.7720   16.3580   23.3560 N.2   300  ACP300     -0.2095
     21  C5        29.0720   15.5160   24.4190 C.2   300  ACP300      0.2526
     22  C6        28.3480   15.1470   25.5690 C.2   300  ACP300      0.4393
     23  N6        27.1210   15.5950   25.8460 N.pl3 300  ACP300      0.2180
     24  N1        28.9340   14.2880   26.4330 N.2   300  ACP300      0.0021
     25  C2        30.1630   13.8340   26.1510 C.3   300  ACP300      0.5254
     26  N3        30.9440   14.1040   25.1050 N.2   300  ACP300     -0.0055
     27  C4        30.3330   14.9620   24.2660 C.2   300  ACP300      0.3518
@<TRIPOS>BOND
     1     2     1    2
     2     4     1    1
     3     3     1    1
     4     1     8    1
     5     8     5    1
     6     6     5    2
     7     5     7    1
     8     5     9    1
     9    14    13    1
    10     9    10    1
    11    10    11    1
    12    13    11    1
    13    13    15    1
    14    11    12    1
    15    15    16    1
    16    15    17    1
    17    12    17    1
    18    17    18    1
    19    19    18    1
    20    19    20    1
    21    18    27    1
    22    20    21    2
    23    27    21    1
    24    27    26    2
    25    21    22    1
    26    26    25    1
    27    22    23    1
    28    22    24    2
    29    25    24    1
