@<TRIPOS>MOLECULE
2pwp_SPD_A_1.pdb
 10 9 0 0 0
SMALL
GASTEIGER

@<TRIPOS>ATOM
      1  N1         9.0480  117.4340   23.7290 N.3   401  SPD401     -0.1314
      2  C2         9.3350  116.6810   24.9620 C.3   401  SPD401      0.1094
      3  C3        10.8420  116.6530   25.2900 C.3   401  SPD401      0.0220
      4  C4        10.9920  115.8650   26.5910 C.3   401  SPD401      0.0203
      5  C5        12.3910  115.6630   27.2190 C.3   401  SPD401      0.0887
      6  N6        11.9830  114.9480   28.4420 N.3   401  SPD401     -0.2180
      7  C7        12.8340  114.6690   29.6020 C.3   401  SPD401      0.0902
      8  C8        11.7600  114.2420   30.6300 C.3   401  SPD401      0.0393
      9  C9        12.1830  113.9250   32.0660 C.3   401  SPD401      0.1108
     10  N10       13.1080  112.8100   32.1370 N.3   401  SPD401     -0.1313
@<TRIPOS>BOND
     1     1     2    1
     2     2     3    1
     3     3     4    1
     4     4     5    1
     5     5     6    1
     6     6     7    1
     7     7     8    1
     8     8     9    1
     9     9    10    1
