@<TRIPOS>MOLECULE
2pwr_G4G_B_1.pdb
 45 49 0 0 0
SMALL
GASTEIGER

@<TRIPOS>ATOM
      1  C1         8.8740  -15.2670  -14.3570 C.ar  501  G4G501      0.0060
      2  O2        16.8530  -24.0050  -21.6940 O.2   501  G4G501     -0.2667
      3  N2         5.3670  -14.6590  -15.4520 N.am  501  G4G501     -0.0837
      4  C2        14.2270  -23.5980  -20.9400 C.ar  501  G4G501      0.0060
      5  O1         6.9170  -13.2870  -14.6390 O.2   501  G4G501     -0.2667
      6  N1        17.2880  -25.3340  -19.9340 N.am  501  G4G501     -0.0837
      7  C3         7.2730  -16.8000  -15.4750 C.ar  501  G4G501      0.0060
      8  C4         7.5960  -15.5100  -14.9760 C.ar  501  G4G501      0.0567
      9  C5        15.0940  -23.8330  -18.6320 C.ar  501  G4G501      0.0060
     10  C6        15.2280  -23.9790  -20.0310 C.ar  501  G4G501      0.0567
     11  C7        13.2420  -18.3190  -14.8840 C.3   501  G4G501      0.1221
     12  C8        16.5390  -24.4700  -20.6080 C.2   501  G4G501      0.2842
     13  S8        10.6330  -18.9330  -14.7480 S.O2  501  G4G501      0.0636
     14  C9         6.6180  -14.4160  -15.0120 C.2   501  G4G501      0.2842
     15  S9        11.3540  -22.3180  -18.3090 S.O2  501  G4G501      0.0636
     16  O10       10.0430  -20.1460  -15.3530 O.2   501  G4G501     -0.1528
     17  O11       11.4240  -22.6110  -16.8830 O.2   501  G4G501     -0.1528
     18  C12       14.0820  -19.5970  -14.7870 C.ar  501  G4G501     -0.0045
     19  C13       13.4530  -20.7730  -14.2410 C.ar  501  G4G501     -0.0029
     20  C14       15.4180  -19.6380  -15.2590 C.ar  501  G4G501     -0.0029
     21  C17        9.8490  -16.2950  -14.3120 C.ar  501  G4G501      0.0201
     22  C18       12.9930  -23.1350  -20.4170 C.ar  501  G4G501      0.0201
     23  C19        8.2700  -17.8010  -15.4400 C.ar  501  G4G501      0.0201
     24  C20       13.8670  -23.3320  -18.1250 C.ar  501  G4G501      0.0201
     25  C21       12.5410  -17.4910  -17.8800 C.3   501  G4G501      0.1079
     26  N22       13.8470  -18.0760  -18.3150 N.3   501  G4G501     -0.2150
     27  C23       11.7810  -18.6080  -17.1530 C.3   501  G4G501      0.1149
     28  C24       12.4750  -19.9660  -17.6010 C.3   501  G4G501      0.1149
     29  C25       13.8070  -19.5310  -18.3050 C.3   501  G4G501      0.1079
     30  C26        9.5370  -17.5910  -14.8040 C.ar  501  G4G501      0.1222
     31  C27       12.8450  -22.9610  -19.0320 C.ar  501  G4G501      0.1222
     32  N28       11.9980  -18.5700  -15.6760 N.3   501  G4G501     -0.1496
     33  C29       14.3100  -21.9180  -14.2280 C.ar  501  G4G501     -0.0003
     34  C30       16.2950  -20.7760  -15.1760 C.ar  501  G4G501     -0.0003
     35  C31       15.6750  -21.9540  -14.6100 C.ar  501  G4G501     -0.0000
     36  N32       11.6470  -20.6720  -18.6130 N.3   501  G4G501     -0.1496
     37  C33       11.1550  -20.1270  -19.8950 C.3   501  G4G501      0.1221
     38  C34        9.8860  -19.3250  -19.8370 C.ar  501  G4G501     -0.0045
     39  C35        8.8950  -19.6160  -18.8780 C.ar  501  G4G501     -0.0029
     40  C36        7.7540  -18.8090  -18.9050 C.ar  501  G4G501     -0.0003
     41  C37        7.5820  -17.7950  -19.8720 C.ar  501  G4G501     -0.0000
     42  C38        9.7700  -18.2630  -20.7570 C.ar  501  G4G501     -0.0029
     43  C39        8.5840  -17.5070  -20.8320 C.ar  501  G4G501     -0.0003
     44  O40       10.2810  -22.7110  -19.1800 O.2   501  G4G501     -0.1528
     45  O41       11.1670  -19.0580  -13.3730 O.2   501  G4G501     -0.1528
@<TRIPOS>BOND
     1     2    12    2
     2     4    22   ar
     3     4    10   ar
     4    43    42   ar
     5    43    41   ar
     6    42    38   ar
     7    12    10    1
     8    12     6   am
     9    22    31   ar
    10    10     9   ar
    11    37    38    1
    12    37    36    1
    13    41    40   ar
    14    38    39   ar
    15    44    15    2
    16    31    15    1
    17    31    24   ar
    18    40    39   ar
    19     9    24   ar
    20    36    15    1
    21    36    28    1
    22    26    29    1
    23    26    25    1
    24    15    17    2
    25    29    28    1
    26    25    27    1
    27    28    27    1
    28    27    32    1
    29    32    11    1
    30    32    13    1
    31     7    23   ar
    32     7     8   ar
    33     3    14   am
    34    23    30   ar
    35    16    13    2
    36    20    34   ar
    37    20    18   ar
    38    34    35   ar
    39    14     8    1
    40    14     5    2
    41     8     1   ar
    42    11    18    1
    43    30    13    1
    44    30    21   ar
    45    18    19   ar
    46    13    45    2
    47    35    33   ar
    48     1    21   ar
    49    19    33   ar
