@<TRIPOS>MOLECULE
2pws_IBP_A_1.pdb
 15 15 0 0 0
SMALL
GASTEIGER

@<TRIPOS>ATOM
      1  C1       -24.9610    9.6790   -9.9600 C.2   3960  IBP3960     0.3683
      2  C2       -19.9360    5.6740   -9.8640 C.3   3960  IBP3960     0.0263
      3  C3       -19.4760    4.2970   -9.4390 C.3   3960  IBP3960     0.0044
      4  C4       -19.4630    4.2070   -7.9140 C.3   3960  IBP3960     0.0003
      5  C5       -20.3170    3.1910  -10.0650 C.3   3960  IBP3960     0.0003
      6  C6       -24.9170    8.4100  -10.7730 C.3   3960  IBP3960     0.1256
      7  C7       -24.9500    8.7670  -12.2530 C.3   3960  IBP3960     0.0166
      8  C8       -23.6810    7.6340  -10.5010 C.ar  3960  IBP3960    -0.0118
      9  C9       -23.7080    6.3350   -9.9940 C.ar  3960  IBP3960    -0.0041
     10  C10      -22.5170    5.6360   -9.7550 C.ar  3960  IBP3960    -0.0046
     11  C11      -21.2960    6.2470  -10.0410 C.ar  3960  IBP3960    -0.0222
     12  C12      -21.2870    7.5330  -10.5500 C.ar  3960  IBP3960    -0.0046
     13  C13      -22.4610    8.2220  -10.7840 C.ar  3960  IBP3960    -0.0041
     14  O1       -25.8800   10.4720  -10.1040 O.co2 3960  IBP3960    -0.2453
     15  O2       -24.0800    9.9380   -9.1540 O.co2 3960  IBP3960    -0.2453
@<TRIPOS>BOND
     1     7     6    1
     2    13    12   ar
     3    13     8   ar
     4     6     8    1
     5     6     1    1
     6    12    11   ar
     7     8     9   ar
     8    14     1   ar
     9     5     3    1
    10    11     2    1
    11    11    10   ar
    12     9    10   ar
    13     1    15   ar
    14     2     3    1
    15     3     4    1
