@<TRIPOS>MOLECULE
2pwu_GUN_A_1.pdb
 11 12 0 0 0
SMALL
GASTEIGER

@<TRIPOS>ATOM
      1  N9        16.0500   16.8770   19.7710 N.2   600  GUN600     -0.1802
      2  C8        17.2200   17.1970   19.2920 C.3   600  GUN600      0.2633
      3  N7        17.9920   17.5380   20.2310 N.2   600  GUN600     -0.2212
      4  C5        17.2890   17.4450   21.4820 C.2   600  GUN600      0.2482
      5  C6        17.5200   17.6670   22.9100 C.1   600  GUN600      0.2442
      6  O6        18.6160   18.0520   23.2810 O.2   600  GUN600     -0.2063
      7  N1        16.5140   17.4340   23.7270 N.2   600  GUN600     -0.2474
      8  C2        15.3270   17.0170   23.3050 C.1   600  GUN600      0.2608
      9  N2        14.3870   16.8130   24.1910 N.pl3 600  GUN600     -0.0220
     10  N3        15.0810   16.8110   22.0670 N.2   600  GUN600     -0.2682
     11  C4        16.0980   17.0280   21.0720 C.1   600  GUN600      0.1289
@<TRIPOS>BOND
     1     2     1    1
     2     2     3    1
     3     1    11    2
     4     3     4    2
     5    11     4    1
     6    11    10    2
     7     4     5    1
     8    10     8    2
     9     5     6    2
    10     5     7    2
    11     8     7    2
    12     8     9    1
