@<TRIPOS>MOLECULE
2pwv_PQ0_A_1.pdb
 13 14 0 0 0
SMALL
GASTEIGER

@<TRIPOS>ATOM
      1  N1        17.0040   17.0100   23.8880 N.2   500  PQ0500     -0.2490
      2  C2        15.5700   16.5470   23.6150 C.1   500  PQ0500      0.2607
      3  N3        15.6290   15.9980   21.9800 N.2   500  PQ0500     -0.2698
      4  C4        16.5710   16.5030   20.8440 C.1   500  PQ0500      0.1086
      5  C5        17.5990   17.0370   21.1960 C.2   500  PQ0500      0.1649
      6  C6        17.6450   17.3090   22.6350 C.1   500  PQ0500      0.2257
      7  O6        19.0150   17.6150   23.2080 O.2   500  PQ0500     -0.2079
      8  C7        18.2140   17.1190   19.8610 C.2   500  PQ0500      0.0222
      9  C10       19.2540   17.9110   19.9330 C.3   500  PQ0500      0.1348
     10  N11       20.5630   18.4370   19.7970 N.3   500  PQ0500     -0.1265
     11  C8        17.3830   16.8010   18.7250 C.3   500  PQ0500      0.1624
     12  N9        16.3250   16.1560   19.6340 N.2   500  PQ0500     -0.2042
     13  N2        14.5700   16.0150   24.2000 N.pl3 500  PQ0500     -0.0220
@<TRIPOS>BOND
     1    11    12    1
     2    11     8    1
     3    12     4    2
     4    10     9    1
     5     8     9    1
     6     8     5    2
     7     4     5    1
     8     4     3    2
     9     5     6    1
    10     3     2    2
    11     6     7    2
    12     6     1    2
    13     2     1    2
    14     2    13    1
