@<TRIPOS>MOLECULE
2pwy_SAH_A_1.pdb
 26 28 0 0 0
SMALL
GASTEIGER

@<TRIPOS>ATOM
      1  N         10.1850   38.6780  -15.4820 N.3   501  SAH501     -0.1208
      2  CA        10.3190   40.1330  -15.1460 C.3   501  SAH501      0.1952
      3  CB        11.1400   40.8640  -16.2010 C.3   501  SAH501      0.0422
      4  CG        12.6340   40.5440  -16.1020 C.3   501  SAH501      0.0597
      5  SD        13.5710   41.6390  -17.2020 S.3   501  SAH501     -0.1375
      6  C          8.9300   40.7280  -15.0130 C.2   501  SAH501      0.3819
      7  O          7.9350   40.0430  -15.2950 O.co2 501  SAH501     -0.2441
      8  OXT        8.7800   41.8850  -14.6050 O.co2 501  SAH501     -0.2441
      9  C5'       15.2050   40.9870  -16.7700 C.3   501  SAH501      0.0899
     10  C4'       15.7390   41.5860  -15.4640 C.3   501  SAH501      0.1630
     11  O4'       16.7920   40.7740  -14.9870 O.3   501  SAH501     -0.3153
     12  C3'       16.3170   43.0020  -15.5810 C.3   501  SAH501      0.2168
     13  O3'       15.6870   43.8200  -14.6000 O.3   501  SAH501     -0.2175
     14  C2'       17.8120   42.8330  -15.3070 C.3   501  SAH501      0.2569
     15  O2'       18.3800   43.8980  -14.5790 O.3   501  SAH501     -0.2130
     16  C1'       17.8270   41.5930  -14.4490 C.3   501  SAH501      0.3185
     17  N9        19.0210   40.7330  -14.4910 N.pl3 501  SAH501     -0.1439
     18  C8        19.6850   40.2980  -15.6030 C.3   501  SAH501      0.3377
     19  N7        20.6630   39.4600  -15.1900 N.2   501  SAH501     -0.2095
     20  C5        20.6040   39.3150  -13.8480 C.2   501  SAH501      0.2526
     21  C6        21.3640   38.5780  -12.9320 C.2   501  SAH501      0.4393
     22  N6        22.3800   37.8000  -13.3370 N.pl3 501  SAH501      0.2180
     23  N1        21.0290   38.6660  -11.5870 N.2   501  SAH501      0.0021
     24  C2        19.9920   39.4610  -11.1620 C.3   501  SAH501      0.5254
     25  N3        19.2590   40.1910  -12.0770 N.2   501  SAH501     -0.0055
     26  C4        19.5620   40.1140  -13.3950 C.2   501  SAH501      0.3518
@<TRIPOS>BOND
     1     5     9    1
     2     5     4    1
     3     9    10    1
     4     3     4    1
     5     3     2    1
     6    18    19    1
     7    18    17    1
     8    12    10    1
     9    12    14    1
    10    12    13    1
    11     1     2    1
    12    10    11    1
    13    14    15    1
    14    14    16    1
    15     7     6   ar
    16    19    20    2
    17     2     6    1
    18     6     8   ar
    19    11    16    1
    20    17    16    1
    21    17    26    1
    22    20    26    1
    23    20    21    1
    24    26    25    2
    25    22    21    1
    26    21    23    2
    27    25    24    1
    28    23    24    1
