@<TRIPOS>MOLECULE
2px0_GNP_A_1.pdb
 32 34 0 0 0
SMALL
GASTEIGER

@<TRIPOS>ATOM
      1  PG        24.4580    0.8640   36.7420 P.3     1  GNP1        0.4884
      2  O1G       24.1090   -0.5280   36.3440 O.3     1  GNP1       -0.1240
      3  O2G       25.8730    1.2750   36.2820 O.2     1  GNP1       -0.2331
      4  O3G       24.2780    1.1040   38.1980 O.3     1  GNP1       -0.1240
      5  N3B       23.3480    1.7330   35.8250 N.3     1  GNP1       -0.0163
      6  PB        23.3200    3.3820   35.8720 P.3     1  GNP1        0.4669
      7  O1B       22.8390    3.8620   37.1540 O.3     1  GNP1       -0.1253
      8  O2B       24.6690    3.8250   35.3900 O.2     1  GNP1       -0.2351
      9  O3A       22.1640    3.5620   34.7400 O.3     1  GNP1       -0.2360
     10  PA        22.3100    3.7600   33.2090 P.3     1  GNP1        0.2220
     11  O1A       22.9080    5.0910   32.8960 O.3     1  GNP1       -0.4370
     12  O2A       22.9800    2.4890   32.7200 O.2     1  GNP1       -0.5170
     13  O5'       20.8760    3.7870   32.7330 O.3     1  GNP1       -0.3111
     14  C5'       20.0520    2.6320   32.9020 C.3     1  GNP1        0.1813
     15  C4'       18.8130    2.7420   32.0930 C.3     1  GNP1        0.1799
     16  O4'       17.8610    3.6620   32.5140 O.3     1  GNP1       -0.3326
     17  C3'       19.0960    3.0780   30.5980 C.3     1  GNP1        0.2158
     18  O3'       18.3830    2.2010   29.7230 O.3     1  GNP1       -0.2175
     19  C2'       18.6060    4.5150   30.4630 C.3     1  GNP1        0.2310
     20  O2'       18.1790    4.8580   29.1800 O.3     1  GNP1       -0.2158
     21  C1'       17.4990    4.5270   31.4640 C.3     1  GNP1        0.2293
     22  N9        17.2760    5.9020   31.9670 N.pl3   1  GNP1       -0.2354
     23  C8        18.2530    6.6920   32.7100 C.3     1  GNP1        0.2246
     24  N7        17.7500    7.8630   33.0040 N.2     1  GNP1       -0.2322
     25  C5        16.3890    7.8230   32.4260 C.2     1  GNP1        0.2182
     26  C6        15.3500    8.8410   32.4360 C.1     1  GNP1        0.2372
     27  O6        15.3660    9.9130   32.9000 O.2     1  GNP1       -0.2069
     28  N1        14.2070    8.3950   31.7800 N.2     1  GNP1       -0.2485
     29  C2        14.2050    7.1150   31.2330 C.1     1  GNP1        0.2531
     30  N2        12.9440    6.8440   30.6120 N.pl3   1  GNP1       -0.0226
     31  N3        15.0710    6.1810   31.1850 N.2     1  GNP1       -0.3074
     32  C4        16.1790    6.6280   31.8310 C.2     1  GNP1        0.2300
@<TRIPOS>BOND
     1    20    19    1
     2    18    17    1
     3    19    17    1
     4    19    21    1
     5    17    15    1
     6    30    29    1
     7    31    29    2
     8    31    32    2
     9    29    28    2
    10    21    22    1
    11    21    16    1
    12    28    26    2
    13    32    22    1
    14    32    25    1
    15    22    23    1
    16    15    16    1
    17    15    14    1
    18    25    26    1
    19    25    24    2
    20    26    27    2
    21    23    24    1
    22    12    10    2
    23    13    14    1
    24    13    10    1
    25    11    10    1
    26    10     9    1
    27     9     6    1
    28     8     6    2
    29     5     6    1
    30     5     1    1
    31     6     7    1
    32     3     1    2
    33     2     1    1
    34     1     4    1
