@<TRIPOS>MOLECULE
2px1_RIP_A_1.pdb
 10 10 0 0 0
SMALL
GASTEIGER

@<TRIPOS>ATOM
      1  C1       -17.0940   13.9590   15.4760 C.3   694  RIP694      0.3024
      2  C2       -18.0540   15.1730   15.3900 C.3   694  RIP694      0.2434
      3  C3       -19.3940   14.7650   14.7300 C.3   694  RIP694      0.2199
      4  C4       -19.1900   14.0130   13.3650 C.3   694  RIP694      0.2143
      5  C5       -18.0310   13.0120   13.3900 C.3   694  RIP694      0.1804
      6  O1       -15.8780   14.3230   16.0420 O.3   694  RIP694     -0.1869
      7  O2       -18.3480   15.7490   16.6470 O.3   694  RIP694     -0.2148
      8  O3       -20.0780   13.9280   15.6610 O.3   694  RIP694     -0.2174
      9  O4       -20.3220   13.2600   13.0040 O.3   694  RIP694     -0.2176
     10  O5       -16.8600   13.4110   14.1670 O.3   694  RIP694     -0.3237
@<TRIPOS>BOND
     1     9     4    1
     2     4     5    1
     3     4     3    1
     4     5    10    1
     5    10     1    1
     6     3     2    1
     7     3     8    1
     8     2     1    1
     9     2     7    1
    10     1     6    1
