@<TRIPOS>MOLECULE
2px2_SAH_A_1.pdb
 26 28 0 0 0
SMALL
GASTEIGER

@<TRIPOS>ATOM
      1  N         13.8290   17.9970   39.7730 N.3   500  SAH500     -0.1208
      2  CA        13.0400   17.2470   40.7880 C.3   500  SAH500      0.1952
      3  CB        13.8700   16.0820   41.2770 C.3   500  SAH500      0.0422
      4  CG        13.7530   14.9100   40.3230 C.3   500  SAH500      0.0597
      5  SD        14.9010   13.6400   40.8530 S.3   500  SAH500     -0.1375
      6  C         12.5860   18.0740   41.9920 C.2   500  SAH500      0.3819
      7  O         13.0220   19.1920   42.2240 O.co2 500  SAH500     -0.2441
      8  OXT       11.7140   17.6270   42.7430 O.co2 500  SAH500     -0.2441
      9  C5'       14.7730   12.7100   39.2820 C.3   500  SAH500      0.0899
     10  C4'       13.5240   11.8190   39.1490 C.3   500  SAH500      0.1630
     11  O4'       13.5330   11.1080   37.9190 O.3   500  SAH500     -0.3153
     12  C3'       13.3560   10.7570   40.2440 C.3   500  SAH500      0.2168
     13  O3'       12.2340   11.0890   41.0360 O.3   500  SAH500     -0.2175
     14  C2'       13.1580    9.4280   39.5070 C.3   500  SAH500      0.2569
     15  O2'       12.0860    8.6300   40.0000 O.3   500  SAH500     -0.2130
     16  C1'       12.8860    9.8760   38.0710 C.3   500  SAH500      0.3185
     17  N9        13.3550    8.9950   36.9870 N.pl3 500  SAH500     -0.1439
     18  C8        14.4910    8.2230   36.9040 C.3   500  SAH500      0.3377
     19  N7        14.4950    7.5920   35.7080 N.2   500  SAH500     -0.2095
     20  C5        13.4020    7.9520   35.0110 C.2   500  SAH500      0.2526
     21  C6        12.9310    7.6260   33.7490 C.2   500  SAH500      0.4393
     22  N6        13.5920    6.7920   32.9530 N.pl3 500  SAH500      0.2180
     23  N1        11.7470    8.1980   33.3180 N.2   500  SAH500      0.0021
     24  C2        11.0460    9.0790   34.1170 C.3   500  SAH500      0.5254
     25  N3        11.5160    9.3940   35.3730 N.2   500  SAH500     -0.0055
     26  C4        12.6780    8.8440   35.8060 C.2   500  SAH500      0.3518
@<TRIPOS>BOND
     1    22    21    1
     2    23    21    2
     3    23    24    1
     4    21    20    1
     5    24    25    1
     6    20    19    2
     7    20    26    1
     8    25    26    2
     9    19    18    1
    10    26    17    1
    11    18    17    1
    12    17    16    1
    13    11    16    1
    14    11    10    1
    15    16    14    1
    16    10     9    1
    17    10    12    1
    18     9     5    1
    19    14    15    1
    20    14    12    1
    21     1     2    1
    22    12    13    1
    23     4     5    1
    24     4     3    1
    25     2     3    1
    26     2     6    1
    27     6     7   ar
    28     6     8   ar
