@<TRIPOS>MOLECULE
2px3_GTP_A_1.pdb
 32 34 0 0 0
SMALL
GASTEIGER

@<TRIPOS>ATOM
      1  PG         1.5420   -3.5320    3.0550 P.3     1  GTP1        0.5373
      2  O1G        1.7230   -3.5730    1.6260 O.2     1  GTP1       -0.2221
      3  O2G        2.5620   -2.7240    3.8240 O.3     1  GTP1       -0.1143
      4  O3G        1.4140   -4.9670    3.5890 O.3     1  GTP1       -0.1143
      5  O3B        0.0380   -2.6690    3.1940 O.3     1  GTP1       -0.2258
      6  PB        -0.6650   -2.2810    4.5080 P.3     1  GTP1        0.2277
      7  O1B       -1.2500   -3.4560    5.1880 O.2     1  GTP1       -0.5168
      8  O2B        0.3300   -1.4600    5.3480 O.3     1  GTP1       -0.4368
      9  O3A       -1.8200   -1.4260    3.7780 O.3     1  GTP1       -0.2700
     10  PA        -1.9950    0.1310    3.8300 P.3     1  GTP1        0.2189
     11  O1A       -2.1040    0.5950    5.1770 O.3     1  GTP1       -0.4371
     12  O2A       -0.8780    0.7480    3.0760 O.2     1  GTP1       -0.5170
     13  O5'       -3.4060    0.3670    3.1170 O.3     1  GTP1       -0.3112
     14  C5'       -3.5760    0.0120    1.7740 C.3     1  GTP1        0.1813
     15  C4'       -4.7660    0.7470    1.1910 C.3     1  GTP1        0.1799
     16  O4'       -6.0030    0.3870    1.8530 O.3     1  GTP1       -0.3326
     17  C3'       -4.6950    2.2670    1.3150 C.3     1  GTP1        0.2158
     18  O3'       -5.2880    2.8900    0.1440 O.3     1  GTP1       -0.2175
     19  C2'       -5.4890    2.5340    2.5370 C.3     1  GTP1        0.2310
     20  O2'       -5.8590    3.9290    2.7440 O.3     1  GTP1       -0.2158
     21  C1'       -6.6560    1.5470    2.3660 C.3     1  GTP1        0.2293
     22  N9        -7.3750    1.2310    3.6270 N.pl3   1  GTP1       -0.2354
     23  C8        -6.8090    0.9820    4.8790 C.3     1  GTP1        0.2246
     24  N7        -7.7640    0.7450    5.7750 N.2     1  GTP1       -0.2322
     25  C5        -8.9900    0.8420    5.0910 C.2     1  GTP1        0.2182
     26  C6       -10.3130    0.7010    5.4780 C.1     1  GTP1        0.2372
     27  O6       -10.7830    0.4480    6.5760 O.2     1  GTP1       -0.2069
     28  N1       -11.3000    0.8720    4.4810 N.2     1  GTP1       -0.2485
     29  C2       -11.0070    1.1640    3.1700 C.1     1  GTP1        0.2531
     30  N2       -12.0280    1.3020    2.2700 N.pl3   1  GTP1       -0.0226
     31  N3        -9.7280    1.3010    2.8090 N.2     1  GTP1       -0.3074
     32  C4        -8.7370    1.1400    3.7640 C.2     1  GTP1        0.2300
@<TRIPOS>BOND
     1    18    17    1
     2    15    17    1
     3    15    14    1
     4    15    16    1
     5    17    19    1
     6     2     1    2
     7    14    13    1
     8    16    21    1
     9    30    29    1
    10    21    19    1
    11    21    22    1
    12    19    20    1
    13    31    29    2
    14    31    32    2
    15     1     5    1
    16     1     4    1
    17     1     3    1
    18    12    10    2
    19    13    10    1
    20    29    28    2
    21     5     6    1
    22    22    32    1
    23    22    23    1
    24    32    25    1
    25     9    10    1
    26     9     6    1
    27    10    11    1
    28    28    26    2
    29     6     7    2
    30     6     8    1
    31    23    24    1
    32    25    26    1
    33    25    24    2
    34    26    27    2
