@<TRIPOS>MOLECULE
2px4_SAH_A_1.pdb
 26 28 0 0 0
SMALL
GASTEIGER

@<TRIPOS>ATOM
      1  N         15.5090    0.4280   21.7060 N.3   500  SAH500     -0.1208
      2  CA        16.3120    1.2120   22.7010 C.3   500  SAH500      0.1952
      3  CB        15.5040    2.3840   23.2370 C.3   500  SAH500      0.0422
      4  CG        15.4580    3.5610   22.2850 C.3   500  SAH500      0.0597
      5  SD        14.4570    4.8910   22.9790 S.3   500  SAH500     -0.1375
      6  C         16.7480    0.3520   23.8810 C.2   500  SAH500      0.3819
      7  O         16.4150   -0.8200   23.9550 O.co2 500  SAH500     -0.2441
      8  OXT       17.4460    0.8100   24.7870 O.co2 500  SAH500     -0.2441
      9  C5'       14.5420    5.8850   21.4690 C.3   500  SAH500      0.0899
     10  C4'       15.8680    6.6260   21.2990 C.3   500  SAH500      0.1630
     11  O4'       15.8450    7.3400   20.0760 O.3   500  SAH500     -0.3153
     12  C3'       16.1720    7.6420   22.4010 C.3   500  SAH500      0.2168
     13  O3'       17.3940    7.3290   23.0320 O.3   500  SAH500     -0.2175
     14  C2'       16.2910    8.9760   21.6950 C.3   500  SAH500      0.2569
     15  O2'       17.3470    9.7510   22.2130 O.3   500  SAH500     -0.2130
     16  C1'       16.5460    8.5530   20.2560 C.3   500  SAH500      0.3185
     17  N9        16.1230    9.5230   19.2350 N.pl3 500  SAH500     -0.1439
     18  C8        15.0080   10.3160   19.2230 C.3   500  SAH500      0.3377
     19  N7        15.0160   11.0400   18.0910 N.2   500  SAH500     -0.2095
     20  C5        16.1180   10.7270   17.3770 C.2   500  SAH500      0.2526
     21  C6        16.6070   11.1690   16.1530 C.2   500  SAH500      0.4393
     22  N6        15.9560   12.0870   15.4410 N.pl3 500  SAH500      0.2180
     23  N1        17.7860   10.6300   15.6800 N.2   500  SAH500      0.0021
     24  C2        18.4730    9.6690   16.4050 C.3   500  SAH500      0.5254
     25  N3        17.9800    9.2410   17.6210 N.2   500  SAH500     -0.0055
     26  C4        16.8200    9.7640   18.0900 C.2   500  SAH500      0.3518
@<TRIPOS>BOND
     1    22    21    1
     2    23    21    2
     3    23    24    1
     4    21    20    1
     5    24    25    1
     6    20    26    1
     7    20    19    2
     8    25    26    2
     9    26    17    1
    10    19    18    1
    11    18    17    1
    12    17    16    1
    13    11    16    1
    14    11    10    1
    15    16    14    1
    16    10     9    1
    17    10    12    1
    18     9     5    1
    19    14    15    1
    20    14    12    1
    21     1     2    1
    22     4     5    1
    23     4     3    1
    24    12    13    1
    25     2     3    1
    26     2     6    1
    27     6     7   ar
    28     6     8   ar
