@<TRIPOS>MOLECULE
2px5_SAH_A_1.pdb
 26 28 0 0 0
SMALL
GASTEIGER

@<TRIPOS>ATOM
      1  N          9.5600  -21.1050    3.2870 N.3   500  SAH500     -0.1208
      2  CA         8.7470  -22.1160    4.0170 C.3   500  SAH500      0.1952
      3  CB         7.6470  -22.7220    3.1300 C.3   500  SAH500      0.0422
      4  CG         6.2720  -22.1080    3.3970 C.3   500  SAH500      0.0597
      5  SD         5.0340  -22.7290    2.2510 S.3   500  SAH500     -0.1375
      6  C          9.6430  -23.2050    4.5920 C.2   500  SAH500      0.3819
      7  O         10.8110  -23.3150    4.2340 O.co2 500  SAH500     -0.2441
      8  OXT        9.2080  -23.9890    5.4360 O.co2 500  SAH500     -0.2441
      9  C5'        4.0430  -21.2140    2.2980 C.3   500  SAH500      0.0899
     10  C4'        3.1970  -21.0320    3.5580 C.3   500  SAH500      0.1630
     11  O4'        2.5090  -19.8120    3.4320 O.3   500  SAH500     -0.3153
     12  C3'        2.1280  -22.0960    3.7980 C.3   500  SAH500      0.2168
     13  O3'        2.4000  -22.8200    4.9800 O.3   500  SAH500     -0.2175
     14  C2'        0.8180  -21.3380    3.9340 C.3   500  SAH500      0.2569
     15  O2'        0.0820  -21.6990    5.0790 O.3   500  SAH500     -0.2130
     16  C1'        1.2490  -19.9070    4.0730 C.3   500  SAH500      0.3185
     17  N9         0.3090  -18.9310    3.5000 N.pl3 500  SAH500     -0.1439
     18  C8        -0.4350  -18.9870    2.3470 C.3   500  SAH500      0.3377
     19  N7        -1.1290  -17.8250    2.2310 N.2   500  SAH500     -0.2095
     20  C5        -0.8520  -17.0340    3.2860 C.2   500  SAH500      0.2526
     21  C6        -1.2670  -15.7590    3.6790 C.2   500  SAH500      0.4393
     22  N6        -2.1310  -15.0260    2.9750 N.pl3 500  SAH500      0.2180
     23  N1        -0.7600  -15.2400    4.8500 N.2   500  SAH500      0.0021
     24  C2         0.1410  -15.9530    5.6100 C.3   500  SAH500      0.5254
     25  N3         0.5350  -17.2060    5.2100 N.2   500  SAH500     -0.0055
     26  C4         0.0610  -17.7270    4.0750 C.2   500  SAH500      0.3518
@<TRIPOS>BOND
     1    19    18    1
     2    19    20    2
     3     5     9    1
     4     5     4    1
     5     9    10    1
     6    18    17    1
     7    22    21    1
     8     3     4    1
     9     3     2    1
    10    20    21    1
    11    20    26    1
    12     1     2    1
    13    11    10    1
    14    11    16    1
    15    17    16    1
    16    17    26    1
    17    10    12    1
    18    21    23    2
    19    12    14    1
    20    12    13    1
    21    14    16    1
    22    14    15    1
    23     2     6    1
    24    26    25    2
    25     7     6   ar
    26     6     8   ar
    27    23    24    1
    28    25    24    1
