@<TRIPOS>MOLECULE
2px6_DH9_A_1.pdb
 35 34 0 0 0
SMALL
GASTEIGER

@<TRIPOS>ATOM
      1  C22       16.3360    1.8320   30.2700 C.3   3000  DH93000     0.0000
      2  C21       17.6180    1.0290   30.4830 C.3   3000  DH93000     0.0000
      3  C20       17.4520    0.0140   31.6190 C.3   3000  DH93000     0.0000
      4  C19       17.5770   -1.4220   31.0850 C.3   3000  DH93000     0.0000
      5  C18       16.2910   -2.2440   31.2910 C.3   3000  DH93000     0.0005
      6  C17       15.1110   -1.7300   30.4290 C.3   3000  DH93000     0.0103
      7  C2'       13.7240   -2.4630   30.5530 C.3   3000  DH93000     0.0953
      8  C1'       12.6880   -1.5390   31.2910 C.2   3000  DH93000     0.2095
      9  O1'       11.4920   -1.8670   31.4020 O.2   3000  DH93000    -0.2882
     10  C3'       13.7580   -3.9320   31.0980 C.3   3000  DH93000     0.1629
     11  O3'       12.4220   -4.4540   31.2410 O.3   3000  DH93000    -0.2226
     12  C4'       14.6820   -4.8870   30.2640 C.3   3000  DH93000     0.0769
     13  C5'       14.0080   -5.7810   29.1450 C.3   3000  DH93000     0.1714
     14  O4'       12.6720   -6.3240   29.4660 O.3   3000  DH93000    -0.4510
     15  C23       12.6810   -7.7020   29.5260 C.2   3000  DH93000     0.3369
     16  O5'       13.7610   -8.2810   29.3750 O.2   3000  DH93000    -0.2482
     17  C24       11.3940   -8.5480   29.7810 C.3   3000  DH93000     0.1939
     18  C26       10.0930   -7.8900   29.2630 C.3   3000  DH93000     0.0331
     19  C27        9.2370   -8.8040   28.3510 C.3   3000  DH93000     0.0023
     20  C28        7.8820   -8.1600   28.0500 C.3   3000  DH93000     0.0001
     21  C29        9.0050  -10.2130   28.9050 C.3   3000  DH93000     0.0001
     22  N1'       11.2490   -8.8490   31.2230 N.am  3000  DH93000    -0.1881
     23  C25       11.2500  -10.1060   31.6800 C.2   3000  DH93000     0.3206
     24  O6'       11.1330  -10.4270   32.8650 O.2   3000  DH93000    -0.2633
     25  C6'       14.0600   -5.0580   27.7700 C.3   3000  DH93000     0.0437
     26  C7'       13.8480   -6.0250   26.6020 C.3   3000  DH93000     0.0037
     27  C8'       15.1660   -6.3750   25.8930 C.3   3000  DH93000     0.0001
     28  C9'       14.9550   -7.4920   24.8610 C.3   3000  DH93000     0.0000
     29  C10       14.6550   -6.9120   23.4730 C.3   3000  DH93000     0.0000
     30  C11       14.8060   -7.9550   22.3640 C.3   3000  DH93000     0.0000
     31  C12       15.6710   -7.3890   21.2330 C.3   3000  DH93000     0.0000
     32  C13       14.9940   -7.5280   19.8620 C.3   3000  DH93000     0.0000
     33  C14       14.5010   -6.1770   19.3390 C.3   3000  DH93000     0.0000
     34  C15       13.9380   -6.3110   17.9210 C.3   3000  DH93000     0.0000
     35  C16       12.7270   -5.3930   17.6980 C.3   3000  DH93000     0.0000
@<TRIPOS>BOND
     1    35    34    1
     2    34    33    1
     3    33    32    1
     4    32    31    1
     5    31    30    1
     6    30    29    1
     7    29    28    1
     8    28    27    1
     9    27    26    1
    10    26    25    1
    11    25    13    1
    12    20    19    1
    13    19    21    1
    14    19    18    1
    15    13    14    1
    16    13    12    1
    17    18    17    1
    18    16    15    2
    19    14    15    1
    20    15    17    1
    21    17    22    1
    22    12    10    1
    23     1     2    1
    24     6     7    1
    25     6     5    1
    26     2     3    1
    27     7    10    1
    28     7     8    1
    29     4     5    1
    30     4     3    1
    31    10    11    1
    32    22    23   am
    33     8     9    2
    34    23    24    2
