@<TRIPOS>MOLECULE
2px8_SAH_A_1.pdb
 26 28 0 0 0
SMALL
GASTEIGER

@<TRIPOS>ATOM
      1  N          9.2480  -20.8380    3.0520 N.3   500  SAH500     -0.1208
      2  CA         8.4860  -21.7270    3.9740 C.3   500  SAH500      0.1952
      3  CB         7.3270  -22.3990    3.2340 C.3   500  SAH500      0.0422
      4  CG         6.1130  -21.5030    2.9950 C.3   500  SAH500      0.0597
      5  SD         4.8050  -22.3340    2.0590 S.3   500  SAH500     -0.1375
      6  C          9.4410  -22.7710    4.5250 C.2   500  SAH500      0.3819
      7  O         10.5930  -22.8390    4.0910 O.co2 500  SAH500     -0.2441
      8  OXT        9.0940  -23.5630    5.4010 O.co2 500  SAH500     -0.2441
      9  C5'        3.7650  -20.8450    2.0020 C.3   500  SAH500      0.0899
     10  C4'        3.0300  -20.5280    3.3040 C.3   500  SAH500      0.1630
     11  O4'        2.3480  -19.2930    3.1970 O.3   500  SAH500     -0.3153
     12  C3'        1.9790  -21.5590    3.6750 C.3   500  SAH500      0.2168
     13  O3'        2.3170  -22.0640    4.9450 O.3   500  SAH500     -0.2175
     14  C2'        0.6660  -20.8010    3.7520 C.3   500  SAH500      0.2569
     15  O2'       -0.0730  -21.1750    4.8860 O.3   500  SAH500     -0.2130
     16  C1'        1.1260  -19.3670    3.9000 C.3   500  SAH500      0.3185
     17  N9         0.1840  -18.3580    3.3830 N.pl3 500  SAH500     -0.1439
     18  C8        -0.5870  -18.4140    2.2460 C.3   500  SAH500      0.3377
     19  N7        -1.2890  -17.2620    2.1540 N.2   500  SAH500     -0.2095
     20  C5        -0.9790  -16.4740    3.2100 C.2   500  SAH500      0.2526
     21  C6        -1.4070  -15.2080    3.6010 C.2   500  SAH500      0.4393
     22  N6        -2.2940  -14.5340    2.8690 N.pl3 500  SAH500      0.2180
     23  N1        -0.9010  -14.6530    4.7600 N.2   500  SAH500      0.0021
     24  C2         0.0300  -15.3390    5.5190 C.3   500  SAH500      0.5254
     25  N3         0.4460  -16.5970    5.1260 N.2   500  SAH500     -0.0055
     26  C4        -0.0500  -17.1510    3.9900 C.2   500  SAH500      0.3518
@<TRIPOS>BOND
     1     9     5    1
     2     9    10    1
     3     5     4    1
     4    19    18    1
     5    19    20    2
     6    18    17    1
     7    22    21    1
     8     4     3    1
     9     1     2    1
    10    11    10    1
    11    11    16    1
    12    20    21    1
    13    20    26    1
    14     3     2    1
    15    10    12    1
    16    17    16    1
    17    17    26    1
    18    21    23    2
    19    12    14    1
    20    12    13    1
    21    14    16    1
    22    14    15    1
    23     2     6    1
    24    26    25    2
    25     7     6   ar
    26     6     8   ar
    27    23    24    1
    28    25    24    1
