@<TRIPOS>MOLECULE
2px8_MGT_A_1.pdb
 33 35 0 0 0
SMALL
GASTEIGER

@<TRIPOS>ATOM
      1  PG         2.1210  -29.4900   -3.4510 P.3   401  MGT401      0.5373
      2  O1G        3.4060  -29.0260   -4.1200 O.2   401  MGT401     -0.2221
      3  O2G        2.1970  -30.9000   -2.9110 O.3   401  MGT401     -0.1143
      4  O3G        1.5030  -28.4930   -2.4840 O.3   401  MGT401     -0.1143
      5  O3B        1.0390  -29.6120   -4.6550 O.3   401  MGT401     -0.2258
      6  PB         0.7920  -28.4660   -5.7710 P.3   401  MGT401      0.2277
      7  O1B       -0.6980  -28.2870   -5.9500 O.2   401  MGT401     -0.5168
      8  O2B        1.6700  -27.2610   -5.5240 O.3   401  MGT401     -0.4368
      9  O3A        1.3510  -29.1920   -7.0860 O.3   401  MGT401     -0.2700
     10  PA         0.4570  -30.1990   -7.9680 P.3   401  MGT401      0.2189
     11  O1A        1.4650  -31.0450   -8.7020 O.2   401  MGT401     -0.5170
     12  O2A       -0.6140  -30.8660   -7.1440 O.3   401  MGT401     -0.4371
     13  O5'       -0.3290  -29.2130   -8.9690 O.3   401  MGT401     -0.3112
     14  C5'        0.3030  -28.1390   -9.6620 C.3   401  MGT401      0.1813
     15  C4'       -0.2690  -28.0810  -11.0730 C.3   401  MGT401      0.1799
     16  O4'       -0.0920  -29.3380  -11.7430 O.3   401  MGT401     -0.3326
     17  C3'       -1.7720  -27.8310  -11.0880 C.3   401  MGT401      0.2158
     18  O3'       -2.0790  -26.4370  -11.0670 O.3   401  MGT401     -0.2175
     19  C2'       -2.2440  -28.5150  -12.3530 C.3   401  MGT401      0.2310
     20  O2'       -2.0630  -27.6510  -13.4800 O.3   401  MGT401     -0.2158
     21  C1'       -1.2600  -29.6550  -12.5170 C.3   401  MGT401      0.2287
     22  N9        -1.8210  -30.9780  -12.1250 N.pl3 401  MGT401     -0.2454
     23  C8        -1.9870  -31.2300  -10.6830 C.3   401  MGT401      0.1735
     24  N7        -2.5080  -32.5850  -10.8150 N.3   401  MGT401     -0.2343
     25  CM7       -2.8220  -33.2170   -9.5060 C.3   401  MGT401      0.0924
     26  C5        -2.6240  -33.0360  -12.0640 C.3   401  MGT401      0.2475
     27  C6        -3.0940  -34.3050  -12.6520 C.1   401  MGT401      0.2145
     28  O6        -3.4960  -35.2580  -11.9520 O.2   401  MGT401     -0.2115
     29  N1        -3.0530  -34.3740  -13.9940 N.2   401  MGT401     -0.2526
     30  C2        -2.6180  -33.3600  -14.7840 C.1   401  MGT401      0.2525
     31  N2        -2.6140  -33.5270  -16.1300 N.pl3 401  MGT401     -0.0226
     32  N3        -2.1770  -32.1700  -14.2950 N.2   401  MGT401     -0.3118
     33  C4        -2.1590  -31.9580  -12.9590 C.2   401  MGT401      0.2086
@<TRIPOS>BOND
     1    31    30    1
     2    30    32    2
     3    30    29    2
     4    32    33    2
     5    29    27    2
     6    20    19    1
     7    33    22    1
     8    33    26    1
     9    27    26    1
    10    27    28    2
    11    21    19    1
    12    21    22    1
    13    21    16    1
    14    19    17    1
    15    22    23    1
    16    26    24    1
    17    16    15    1
    18    17    15    1
    19    17    18    1
    20    15    14    1
    21    24    23    1
    22    24    25    1
    23    14    13    1
    24    13    10    1
    25    11    10    2
    26    10    12    1
    27    10     9    1
    28     9     6    1
    29     7     6    2
    30     6     8    1
    31     6     5    1
    32     5     1    1
    33     2     1    2
    34     1     3    1
    35     1     4    1
