@<TRIPOS>MOLECULE
2px8_3PO_A_1.pdb
 13 12 0 0 0
SMALL
GASTEIGER

@<TRIPOS>ATOM
      1  PG         6.0400  -33.8540    5.4750 P.3   451  3PO451      0.5373
      2  O1G        4.6600  -33.3670    5.8470 O.3   451  3PO451     -0.1143
      3  O2G        6.7490  -34.6060    6.5760 O.3   451  3PO451     -0.1143
      4  O3G        6.1040  -34.5130    4.1150 O.2   451  3PO451     -0.2221
      5  PB         8.3510  -32.4070    4.6350 P.3   451  3PO451      0.2317
      6  O1B        9.1520  -31.3850    5.4000 O.3   451  3PO451     -0.4368
      7  O2B        8.9080  -33.7980    4.4730 O.2   451  3PO451     -0.5167
      8  O3B        6.8910  -32.4920    5.3210 O.3   451  3PO451     -0.2257
      9  PA         7.4860  -30.3110    2.8870 P.3   451  3PO451      0.5373
     10  O1A        8.6590  -29.4520    3.2600 O.3   451  3PO451     -0.1143
     11  O2A        7.1960  -30.3310    1.4030 O.2   451  3PO451     -0.2221
     12  O3A        8.0050  -31.8200    3.1710 O.3   451  3PO451     -0.2257
     13  O5'        6.2600  -30.1000    3.7460 O.3   451  3PO451     -0.1143
@<TRIPOS>BOND
     1    11     9    2
     2     9    12    1
     3     9    10    1
     4     9    13    1
     5    12     5    1
     6     4     1    2
     7     7     5    2
     8     5     8    1
     9     5     6    1
    10     8     1    1
    11     1     2    1
    12     1     3    1
