@<TRIPOS>MOLECULE
2pxa_GTP_A_1.pdb
 32 34 0 0 0
SMALL
GASTEIGER

@<TRIPOS>ATOM
      1  PG         6.1460  -22.5570   17.4450 P.3   401  GTP401      0.5373
      2  O1G        6.5620  -23.9970   17.2470 O.3   401  GTP401     -0.1143
      3  O2G        6.7360  -21.6320   16.4030 O.2   401  GTP401     -0.2221
      4  O3G        4.6560  -22.3610   17.6250 O.3   401  GTP401     -0.1143
      5  O3B        6.8120  -22.0330   18.8480 O.3   401  GTP401     -0.2258
      6  PB         7.2600  -22.8600   20.1910 P.3   401  GTP401      0.2277
      7  O1B        6.1560  -22.7460   21.2300 O.3   401  GTP401     -0.4368
      8  O2B        7.7590  -24.2420   19.8190 O.2   401  GTP401     -0.5168
      9  O3A        8.5430  -22.0240   20.7460 O.3   401  GTP401     -0.2700
     10  PA         9.4000  -20.9710   19.8550 P.3   401  GTP401      0.2189
     11  O1A        9.7100  -21.6140   18.5250 O.2   401  GTP401     -0.5170
     12  O2A        8.6830  -19.6400   19.8980 O.3   401  GTP401     -0.4371
     13  O5'       10.8220  -20.8560   20.6030 O.3   401  GTP401     -0.3112
     14  C5'       11.0420  -20.0230   21.7360 C.3   401  GTP401      0.1813
     15  C4'       12.5270  -19.7440   21.9500 C.3   401  GTP401      0.1799
     16  O4'       13.3880  -20.7530   21.3850 O.3   401  GTP401     -0.3326
     17  C3'       12.9710  -18.4370   21.3090 C.3   401  GTP401      0.2158
     18  O3'       12.6150  -17.2900   22.0880 O.3   401  GTP401     -0.2175
     19  C2'       14.4620  -18.6470   21.1880 C.3   401  GTP401      0.2310
     20  O2'       15.1360  -18.3110   22.4100 O.3   401  GTP401     -0.2158
     21  C1'       14.5970  -20.1390   20.9270 C.3   401  GTP401      0.2293
     22  N9        14.7640  -20.4370   19.4870 N.pl3 401  GTP401     -0.2354
     23  C8        13.8250  -20.2520   18.5370 C.3   401  GTP401      0.2246
     24  N7        14.2850  -20.6390   17.3190 N.2   401  GTP401     -0.2322
     25  C5        15.5480  -21.0840   17.4780 C.2   401  GTP401      0.2182
     26  C6        16.6130  -21.6390   16.5940 C.1   401  GTP401      0.2372
     27  O6        16.4610  -21.7990   15.3640 O.2   401  GTP401     -0.2069
     28  N1        17.7840  -21.9880   17.1670 N.2   401  GTP401     -0.2485
     29  C2        18.0100  -21.8460   18.4940 C.1   401  GTP401      0.2531
     30  N2        19.2210  -22.2320   18.9300 N.pl3 401  GTP401     -0.0226
     31  N3        17.0900  -21.3380   19.3650 N.2   401  GTP401     -0.3074
     32  C4        15.8610  -20.9520   18.9180 C.2   401  GTP401      0.2300
@<TRIPOS>BOND
     1    27    26    2
     2     3     1    2
     3    26    28    2
     4    26    25    1
     5    28    29    2
     6     2     1    1
     7    24    25    2
     8    24    23    1
     9     1     4    1
    10     1     5    1
    11    25    32    1
    12    29    30    1
    13    29    31    2
    14    11    10    2
    15    23    22    1
    16     5     6    1
    17    32    31    2
    18    32    22    1
    19    22    21    1
    20     8     6    2
    21    10    12    1
    22    10    13    1
    23    10     9    1
    24     6     9    1
    25     6     7    1
    26    13    14    1
    27    21    19    1
    28    21    16    1
    29    19    17    1
    30    19    20    1
    31    17    15    1
    32    17    18    1
    33    16    15    1
    34    14    15    1
