@<TRIPOS>MOLECULE
2pxa_SAH_A_1.pdb
 26 28 0 0 0
SMALL
GASTEIGER

@<TRIPOS>ATOM
      1  N         -5.4040  -20.7890   25.1500 N.3   500  SAH500     -0.1208
      2  CA        -5.4950  -20.5880   23.6830 C.3   500  SAH500      0.1952
      3  CB        -4.1550  -20.1250   23.1280 C.3   500  SAH500      0.0422
      4  CG        -4.1730  -18.6340   22.8090 C.3   500  SAH500      0.0597
      5  SD        -2.5440  -18.2250   22.2280 S.3   500  SAH500     -0.1375
      6  C         -5.9130  -21.8750   22.9990 C.2   500  SAH500      0.3819
      7  O         -6.1120  -22.8860   23.6730 O.co2 500  SAH500     -0.2441
      8  OXT       -6.0530  -21.9190   21.7780 O.co2 500  SAH500     -0.2441
      9  C5'       -2.4750  -16.6300   23.0720 C.3   500  SAH500      0.0899
     10  C4'       -3.1590  -15.5470   22.2740 C.3   500  SAH500      0.1630
     11  O4'       -3.0910  -14.3510   23.0070 O.3   500  SAH500     -0.3153
     12  C3'       -2.5310  -15.2730   20.8990 C.3   500  SAH500      0.2168
     13  O3'       -3.2980  -15.7660   19.8260 O.3   500  SAH500     -0.2175
     14  C2'       -2.4530  -13.7630   20.8020 C.3   500  SAH500      0.2569
     15  O2'       -3.0780  -13.2430   19.6480 O.3   500  SAH500     -0.2130
     16  C1'       -3.1920  -13.3080   22.0450 C.3   500  SAH500      0.3185
     17  N9        -2.6540  -12.0310   22.4840 N.pl3 500  SAH500     -0.1439
     18  C8        -1.3420  -11.6150   22.5370 C.3   500  SAH500      0.3377
     19  N7        -1.3390  -10.3530   23.0140 N.2   500  SAH500     -0.2095
     20  C5        -2.6100   -9.9510   23.2320 C.2   500  SAH500      0.2526
     21  C6        -3.1660   -8.7770   23.7100 C.2   500  SAH500      0.4393
     22  N6        -2.3940   -7.7520   24.0360 N.pl3 500  SAH500      0.2180
     23  N1        -4.5340   -8.6840   23.8500 N.2   500  SAH500      0.0021
     24  C2        -5.3450   -9.7490   23.5280 C.3   500  SAH500      0.5254
     25  N3        -4.7790  -10.9170   23.0580 N.2   500  SAH500     -0.0055
     26  C4        -3.4470  -11.0110   22.9180 C.2   500  SAH500      0.3518
@<TRIPOS>BOND
     1    15    14    1
     2    13    12    1
     3    14    12    1
     4    14    16    1
     5    12    10    1
     6     8     6   ar
     7    16    17    1
     8    16    11    1
     9     5     4    1
    10     5     9    1
    11    10    11    1
    12    10     9    1
    13    17    18    1
    14    17    26    1
    15    18    19    1
    16     4     3    1
    17    26    25    2
    18    26    20    1
    19     6     7   ar
    20     6     2    1
    21    19    20    2
    22    25    24    1
    23     3     2    1
    24    20    21    1
    25    24    23    1
    26     2     1    1
    27    21    23    2
    28    21    22    1
