@<TRIPOS>MOLECULE
2pxc_G3A_A_1.pdb
 50 55 0 0 0
SMALL
GASTEIGER

@<TRIPOS>ATOM
      1  O36      -37.5660   20.0100  -18.1880 O.2   501  G3A501     -0.2069
      2  C36      -37.8510   19.8760  -16.9780 C.1   501  G3A501      0.2372
      3  N31      -39.1010   20.1190  -16.5560 N.2   501  G3A501     -0.2485
      4  C32      -39.4250   19.9740  -15.2610 C.1   501  G3A501      0.2531
      5  N32      -40.6970   20.2250  -14.8650 N.pl3 501  G3A501     -0.0226
      6  N33      -38.4930   19.5830  -14.3510 N.2   501  G3A501     -0.3074
      7  C35      -36.8740   19.4760  -16.0670 C.2   501  G3A501      0.2182
      8  C34      -37.2140   19.3290  -14.7290 C.2   501  G3A501      0.2300
      9  N37      -35.5660   19.1700  -16.1850 N.2   501  G3A501     -0.2322
     10  C38      -35.1080   18.8420  -14.9520 C.3   501  G3A501      0.2246
     11  N39      -36.1140   18.9380  -14.0620 N.pl3 501  G3A501     -0.2354
     12  C41      -36.0240   18.6790  -12.5960 C.3   501  G3A501      0.2293
     13  O44      -35.0550   19.5590  -12.0150 O.3   501  G3A501     -0.3326
     14  C42      -35.5420   17.2820  -12.2440 C.3   501  G3A501      0.2310
     15  O42      -36.1660   16.8530  -11.0290 O.3   501  G3A501     -0.2158
     16  C43      -34.0560   17.4280  -12.0110 C.3   501  G3A501      0.2158
     17  O43      -33.5430   16.4210  -11.1410 O.3   501  G3A501     -0.2175
     18  C44      -33.9730   18.8190  -11.4210 C.3   501  G3A501      0.1799
     19  C45      -32.6310   19.4610  -11.7110 C.3   501  G3A501      0.1813
     20  O45      -32.7070   20.0930  -12.9880 O.3   501  G3A501     -0.3112
     21  PA       -31.3850   20.5550  -13.7640 P.3   501  G3A501      0.2189
     22  O1A      -31.4900   22.0520  -13.8760 O.3   501  G3A501     -0.4371
     23  O2A      -31.2440   19.6910  -14.9860 O.2   501  G3A501     -0.5170
     24  O1       -30.2460   20.0630  -12.7330 O.3   501  G3A501     -0.2701
     25  PB       -28.9120   20.8680  -12.3300 P.3   501  G3A501      0.2244
     26  O2B      -29.0390   22.3680  -12.5680 O.2   501  G3A501     -0.5168
     27  O3B      -28.5410   20.4010  -10.9430 O.3   501  G3A501     -0.4369
     28  O3A      -27.8840   20.1930  -13.3820 O.3   501  G3A501     -0.2610
     29  PG       -26.4370   20.8370  -13.6950 P.3   501  G3A501      0.2748
     30  O1G      -26.1610   21.7710  -12.5320 O.3   501  G3A501     -0.4272
     31  O2G      -25.5430   19.6880  -14.0650 O.2   501  G3A501     -0.5080
     32  O25      -26.6320   21.7400  -15.0110 O.2   501  G3A501     -0.4337
     33  C25      -27.9520   21.5090  -15.5140 C.2   501  G3A501      0.2136
     34  C24      -28.0940   21.1420  -16.7470 C.2   501  G3A501      0.1904
     35  C23      -29.4310   20.8100  -17.2660 C.3   501  G3A501      0.2494
     36  O23      -30.2800   21.9570  -17.2790 O.3   501  G3A501     -0.2117
     37  C22      -29.0280   20.2170  -18.6040 C.3   501  G3A501      0.2757
     38  O22      -29.4870   21.0520  -19.6640 O.3   501  G3A501     -0.2112
     39  O24      -26.9820   21.0050  -17.6420 O.2   501  G3A501     -0.4379
     40  C21      -27.4920   20.1230  -18.6290 C.3   501  G3A501      0.3699
     41  N19      -26.9900   18.7560  -18.3110 N.pl3 501  G3A501     -0.1327
     42  C14      -27.2350   17.6740  -19.0420 C.2   501  G3A501      0.3527
     43  N13      -27.9380   17.4780  -20.1540 N.2   501  G3A501     -0.0054
     44  C12      -28.0760   16.1710  -20.8000 C.3   501  G3A501      0.5254
     45  N11      -27.3830   15.0600  -20.1360 N.2   501  G3A501      0.0021
     46  C18      -26.2070   18.4070  -17.2710 C.3   501  G3A501      0.3386
     47  N17      -25.9350   17.0780  -17.3110 N.2   501  G3A501     -0.2095
     48  C15      -26.5470   16.5540  -18.3920 C.2   501  G3A501      0.2526
     49  C16      -26.6650   15.2090  -19.0140 C.2   501  G3A501      0.4393
     50  N16      -26.0510   14.1350  -18.4610 N.pl3 501  G3A501      0.2180
@<TRIPOS>BOND
     1    44    43    1
     2    44    45    1
     3    43    42    2
     4    45    49    2
     5    38    37    1
     6    42    48    1
     7    42    41    1
     8    49    50    1
     9    49    48    1
    10    40    37    1
    11    40    41    1
    12    40    39    1
    13    37    35    1
    14    48    47    2
    15    41    46    1
    16     1     2    2
    17    39    34    1
    18    47    46    1
    19    36    35    1
    20    35    34    1
    21     2     3    2
    22     2     7    1
    23    34    33    2
    24     3     4    2
    25     9     7    2
    26     9    10    1
    27     7     8    1
    28    33    32    1
    29     4     5    1
    30     4     6    2
    31    32    29    1
    32    23    21    2
    33    10    11    1
    34     8     6    2
    35     8    11    1
    36    31    29    2
    37    11    12    1
    38    22    21    1
    39    21    20    1
    40    21    24    1
    41    29    28    1
    42    29    30    1
    43    28    25    1
    44    20    19    1
    45    24    25    1
    46    12    14    1
    47    12    13    1
    48    26    25    2
    49    25    27    1
    50    14    16    1
    51    14    15    1
    52    13    18    1
    53    16    18    1
    54    16    17    1
    55    19    18    1
