@<TRIPOS>MOLECULE
2pxc_SAM_A_1.pdb
 27 29 0 0 0
SMALL
GASTEIGER

@<TRIPOS>ATOM
      1  N        -16.0280   21.1390   -8.1040 N.3   500  SAM500     -0.1208
      2  CA       -16.0980   21.1740   -9.5960 C.3   500  SAM500      0.1952
      3  C        -15.7560   22.5560  -10.1470 C.2   500  SAM500      0.3819
      4  O        -15.5910   23.5310   -9.4130 O.co2 500  SAM500     -0.2441
      5  OXT      -15.6540   22.7400  -11.3540 O.co2 500  SAM500     -0.2441
      6  CB       -17.5060   20.8530  -10.0760 C.3   500  SAM500      0.0414
      7  CG       -18.0490   19.4860   -9.6750 C.3   500  SAM500      0.0503
      8  SD       -18.3300   18.4240  -11.1060 S.3   500  SAM500     -0.1761
      9  CE       -20.0180   18.8490  -11.6130 C.3   500  SAM500      0.0590
     10  C5'      -18.5900   16.8210  -10.3150 C.3   500  SAM500      0.0806
     11  C4'      -17.8230   15.7810  -11.1150 C.3   500  SAM500      0.1622
     12  O4'      -17.7600   14.5690  -10.4030 O.3   500  SAM500     -0.3153
     13  C3'      -18.4500   15.4680  -12.4780 C.3   500  SAM500      0.2168
     14  O3'      -17.7720   16.1090  -13.5370 O.3   500  SAM500     -0.2175
     15  C2'      -18.3360   13.9650  -12.6130 C.3   500  SAM500      0.2569
     16  O2'      -17.6560   13.5980  -13.7910 O.3   500  SAM500     -0.2130
     17  C1'      -17.5640   13.5510  -11.3600 C.3   500  SAM500      0.3185
     18  N9       -17.9780   12.2430  -10.8230 N.pl3 500  SAM500     -0.1439
     19  C8       -19.2370   11.6860  -10.7840 C.3   500  SAM500      0.3377
     20  N7       -19.1340   10.4640  -10.2170 N.2   500  SAM500     -0.2095
     21  C5       -17.8360   10.2430   -9.8990 C.2   500  SAM500      0.2526
     22  C6       -17.1870    9.1770   -9.3020 C.2   500  SAM500      0.4393
     23  N6       -17.8800    8.1030   -8.9350 N.pl3 500  SAM500      0.2180
     24  N1       -15.8240    9.2430   -9.0960 N.2   500  SAM500      0.0021
     25  C2       -15.1020   10.3540   -9.4870 C.3   500  SAM500      0.5254
     26  N3       -15.7610   11.4080  -10.0760 N.2   500  SAM500     -0.0055
     27  C4       -17.0990   11.3510  -10.2740 C.2   500  SAM500      0.3518
@<TRIPOS>BOND
     1    16    15    1
     2    14    13    1
     3    15    13    1
     4    15    17    1
     5    13    11    1
     6     9     8    1
     7    17    18    1
     8    17    12    1
     9     5     3   ar
    10    11    12    1
    11    11    10    1
    12     8    10    1
    13     8     7    1
    14    18    19    1
    15    18    27    1
    16    19    20    1
    17    27    26    2
    18    27    21    1
    19    20    21    2
    20     3     2    1
    21     3     4   ar
    22     6     7    1
    23     6     2    1
    24    26    25    1
    25    21    22    1
    26     2     1    1
    27    25    24    1
    28    22    24    2
    29    22    23    1
