@<TRIPOS>MOLECULE
2pxh_BP5_A_1.pdb
 18 19 0 0 0
SMALL
GASTEIGER

@<TRIPOS>ATOM
      1  C9       -22.0200   -9.8840   21.9510 C.ar  308  BP5308     -0.0010
      2  C8       -22.7760   -8.7170   21.7790 C.ar  308  BP5308     -0.0011
      3  C7       -22.4320   -7.5930   22.5720 C.ar  308  BP5308      0.0204
      4  C6       -21.3650   -7.6850   23.5110 C.ar  308  BP5308      0.0989
      5  C5       -19.8500   -4.2770   25.3160 C.ar  308  BP5308      0.0207
      6  C4       -19.0950   -5.4050   25.0310 C.ar  308  BP5308      0.0989
      7  C3       -20.9510   -6.5540   24.1880 C.ar  308  BP5308      0.0989
      8  C2       -21.7410   -5.4250   24.4150 C.ar  308  BP5308      0.0207
      9  C1       -21.1980   -4.2700   24.9940 C.ar  308  BP5308      0.0032
     10  C12      -22.2470  -11.1890   21.0940 C.3   308  BP5308      0.0585
     11  C11      -20.9570   -9.8920   22.8680 C.ar  308  BP5308      0.0946
     12  N1       -19.6430   -6.4960   24.4680 N.ar  308  BP5308     -0.2423
     13  N2       -20.6220   -8.8280   23.6240 N.ar  308  BP5308     -0.2426
     14  C13      -23.6820  -11.5810   20.8430 C.3   308  BP5308      0.1987
     15  C14      -23.6770  -12.6420   19.7180 C.2   308  BP5308      0.3822
     16  O1       -24.2830  -13.7370   19.9280 O.co2 308  BP5308     -0.2440
     17  O2       -23.0350  -12.3530   18.6850 O.co2 308  BP5308     -0.2440
     18  N        -24.1200  -12.1530   22.1300 N.3   308  BP5308     -0.1205
@<TRIPOS>BOND
     1    17    15   ar
     2    15    16   ar
     3    15    14    1
     4    14    10    1
     5    14    18    1
     6    10     1    1
     7     2     1   ar
     8     2     3   ar
     9     1    11   ar
    10     3     4   ar
    11    11    13   ar
    12     4    13   ar
    13     4     7    1
    14     7     8   ar
    15     7    12   ar
    16     8     9   ar
    17    12     6   ar
    18     9     5   ar
    19     6     5   ar
