@<TRIPOS>MOLECULE
2pxi_GFH_A_1.pdb
 32 34 0 0 0
SMALL
GASTEIGER

@<TRIPOS>ATOM
      1  PA         5.0560    5.0760   14.6160 P.3   338  GFH338      0.2209
      2  O1A        3.9470    5.1070   15.5940 O.3   338  GFH338     -0.4371
      3  O2A        6.4440    5.2240   15.1110 O.2   338  GFH338     -0.5170
      4  O3A        4.9610    3.8090   13.7760 O.3   338  GFH338     -0.2465
      5  O5'        4.7800    6.2830   13.6080 O.3   338  GFH338     -0.3112
      6  PB         3.8590    2.7840   13.6220 P.3   338  GFH338      0.4129
      7  O1B        3.8260    2.3050   12.2180 O.2   338  GFH338     -0.2519
      8  O2B        2.6010    3.2190   14.2650 O.3   338  GFH338     -0.1369
      9  C3B        4.5570    1.3490   14.5600 C.3   338  GFH338      0.3155
     10  F3B        4.3150    0.1180   13.9350 F     338  GFH338     -0.2160
     11  PG         4.0650    1.2530   16.3310 P.3   338  GFH338      0.1622
     12  O1G        3.8090    2.6590   16.7560 O.3   338  GFH338     -0.3549
     13  O2G        5.0900    0.4430   17.0550 O.3   338  GFH338     -0.3549
     14  O3G        2.7810    0.5070   16.3320 O.2   338  GFH338     -0.4568
     15  C5'        3.5240    6.3990   12.9410 C.3   338  GFH338      0.1812
     16  C4'        3.7130    6.5920   11.4560 C.3   338  GFH338      0.1772
     17  O4'        4.5680    7.7230   11.1870 O.3   338  GFH338     -0.3347
     18  C1'        5.2810    7.4990    9.9720 C.3   338  GFH338      0.1981
     19  N9         6.7090    7.6510   10.2380 N.pl3 338  GFH338     -0.2374
     20  C4         7.6510    8.1280    9.3560 C.2   338  GFH338      0.2299
     21  N3         7.4100    8.5690    8.1070 N.2   338  GFH338     -0.3074
     22  C2         8.5110    8.9660    7.5000 C.1   338  GFH338      0.2531
     23  N2         8.4330    9.4790    6.2570 N.pl3 338  GFH338     -0.0226
     24  N1         9.7660    8.9020    8.0710 N.2   338  GFH338     -0.2485
     25  C6        10.0360    8.4310    9.3540 C.1   338  GFH338      0.2372
     26  O6        11.2010    8.3820    9.7620 O.2   338  GFH338     -0.2069
     27  C5         8.8560    8.0400   10.0230 C.2   338  GFH338      0.2182
     28  N7         8.6750    7.5450   11.3050 N.2   338  GFH338     -0.2322
     29  C8         7.3890    7.3280   11.3900 C.3   338  GFH338      0.2245
     30  C2'        4.8970    6.1000    9.4820 C.3   338  GFH338      0.0865
     31  C3'        4.3800    5.4280   10.7390 C.3   338  GFH338      0.1857
     32  O3'        3.4130    4.4120   10.4390 O.3   338  GFH338     -0.2203
@<TRIPOS>BOND
     1    23    22    1
     2    22    24    2
     3    22    21    2
     4    24    25    2
     5    21    20    2
     6    25    26    2
     7    25    27    1
     8    20    27    1
     9    20    19    1
    10    30    18    1
    11    30    31    1
    12    18    19    1
    13    18    17    1
    14    27    28    2
    15    19    29    1
    16    32    31    1
    17    31    16    1
    18    17    16    1
    19    28    29    1
    20    16    15    1
    21     7     6    2
    22    15     5    1
    23     5     1    1
    24     6     4    1
    25     6     8    1
    26     6     9    1
    27     4     1    1
    28    10     9    1
    29     9    11    1
    30     1     3    2
    31     1     2    1
    32    11    14    2
    33    11    12    1
    34    11    13    1
