@<TRIPOS>MOLECULE
2pxj_OGA_A_1.pdb
 10 9 0 0 0
SMALL
GASTEIGER

@<TRIPOS>ATOM
      1  C1       -29.2430  -21.0700  -24.0420 C.2   5001  OGA5001     0.4419
      2  C2       -27.9750  -21.6140  -23.4530 C.2   5001  OGA5001     0.3455
      3  C4       -25.5160  -22.0930  -23.4830 C.3   5001  OGA5001     0.2290
      4  C5       -24.2580  -22.0040  -24.3070 C.2   5001  OGA5001     0.3866
      5  O1       -29.2310  -20.5640  -25.1530 O.co2 5001  OGA5001    -0.2354
      6  O2       -30.4040  -21.1340  -23.3350 O.co2 5001  OGA5001    -0.2354
      7  O2'      -27.9740  -22.1250  -22.3340 O.2   5001  OGA5001    -0.2611
      8  O3       -24.2880  -21.5340  -25.4420 O.co2 5001  OGA5001    -0.2437
      9  N1       -26.6980  -21.5180  -24.2590 N.am  5001  OGA5001    -0.1838
     10  O4       -23.1040  -22.4480  -23.7800 O.co2 5001  OGA5001    -0.2437
@<TRIPOS>BOND
     1     8     4   ar
     2     5     1   ar
     3     4    10   ar
     4     4     3    1
     5     9     3    1
     6     9     2   am
     7     1     2    1
     8     1     6   ar
     9     2     7    2
