@<TRIPOS>MOLECULE
2pxj_III_I_1.pdb
 34 33 0 0 0
SMALL
GASTEIGER

@<TRIPOS>ATOM
      1  N        -32.9530   -5.0740  -13.7520 N.3     7  GLY7       -0.1210
      2  CA       -31.5130   -4.8090  -14.0970 C.3     7  GLY7        0.1956
      3  C        -30.6470   -6.0640  -14.1020 C.2     7  GLY7        0.2612
      4  O        -31.1520   -7.1970  -13.9880 O.2     7  GLY7       -0.2717
      5  N        -29.3340   -5.8620  -14.2250 N.am    8  GLY8       -0.1942
      6  CA       -28.4000   -6.9800  -14.2550 C.3     8  GLY8        0.2014
      7  C        -27.8560   -7.2000  -15.6570 C.2     8  GLY8        0.2639
      8  O        -28.0750   -6.3710  -16.5480 O.2     8  GLY8       -0.2714
      9  N        -27.1430   -8.3080  -15.8530 N.am    9  VAL9       -0.1963
     10  CA       -26.5750   -8.6490  -17.1600 C.3     9  VAL9        0.1727
     11  C        -26.3590  -10.1560  -17.2980 C.2     9  VAL9        0.2616
     12  O        -26.0640  -10.8370  -16.2930 O.2     9  VAL9       -0.2715
     13  CB       -25.1820   -7.9800  -17.3810 C.3     9  VAL9        0.0290
     14  CG1      -25.3220   -6.4650  -17.4620 C.3     9  VAL9        0.0023
     15  CG2      -24.2260   -8.3500  -16.2360 C.3     9  VAL9        0.0023
     16  N        -26.5360  -10.7100  -18.5240 N.am   10  LYS10      -0.1963
     17  CA       -25.9170  -12.0650  -18.5010 C.3    10  LYS10       0.1728
     18  CB       -26.2680  -13.0480  -19.6590 C.3    10  LYS10       0.0311
     19  CG       -27.7140  -13.4660  -19.9200 C.3    10  LYS10       0.0038
     20  CD       -27.5350  -14.4460  -21.1110 C.3    10  LYS10       0.0189
     21  CE       -28.8300  -15.0710  -21.6170 C.3    10  LYS10       0.0888
     22  NZ       -28.4670  -15.9740  -22.7350 N.3    10  LYS10      -0.2165
     23  CM       -29.7050  -16.5910  -23.2510 C.3    10  LYS10       0.1075
     24  C        -24.3820  -11.8770  -18.5010 C.2    10  LYS10       0.2616
     25  O        -23.8550  -10.9970  -17.8060 O.2    10  LYS10      -0.2715
     26  N        -23.6290  -12.9260  -18.9690 N.am   11  LYS11      -0.1977
     27  CA       -22.1710  -13.2100  -18.6960 C.3    11  LYS11       0.1596
     28  C        -22.1020  -13.6030  -17.2120 C.2    11  LYS11       0.2287
     29  O        -22.2890  -12.7550  -16.3170 O.2    11  LYS11      -0.2864
     30  CB       -21.2760  -11.9700  -18.9940 C.3    11  LYS11       0.0298
     31  CG       -19.7740  -12.2320  -18.8610 C.3    11  LYS11       0.0038
     32  CD       -18.9570  -11.1410  -19.5540 C.3    11  LYS11       0.0206
     33  CE       -19.1530  -11.1950  -21.0650 C.3    11  LYS11       0.1093
     34  NZ       -18.1300  -10.3920  -21.7980 N.3    11  LYS11      -0.1314
@<TRIPOS>BOND
     1    23    22    1
     2    22    21    1
     3    34    33    1
     4    21    20    1
     5    20    19    1
     6    33    32    1
     7    19    18    1
     8    18    17    1
     9    32    31    1
    10    30    31    1
    11    30    27    1
    12    26    27    1
    13    26    24   am
    14    27    28    1
    15    16    17    1
    16    16    11   am
    17    17    24    1
    18    24    25    2
    19    14    13    1
    20    13    10    1
    21    13    15    1
    22    11    10    1
    23    11    12    2
    24    28    29    2
    25    10     9    1
    26     8     7    2
    27     9     7   am
    28     7     6    1
    29     6     5    1
    30     5     3   am
    31     3     2    1
    32     3     4    2
    33     2     1    1
