@<TRIPOS>MOLECULE
2pxx_SAH_A_1.pdb
 26 28 0 0 0
SMALL
GASTEIGER

@<TRIPOS>ATOM
      1  N         -0.4150    8.3980   19.1130 N.3   301  SAH301     -0.1208
      2  CA        -1.5680    8.7120   20.0280 C.3   301  SAH301      0.1952
      3  CB        -1.2750    9.9430   20.9270 C.3   301  SAH301      0.0422
      4  CG        -0.9260   11.2710   20.2500 C.3   301  SAH301      0.0597
      5  SD        -0.8420   12.6070   21.4860 S.3   301  SAH301     -0.1375
      6  C         -2.8480    8.8690   19.2240 C.2   301  SAH301      0.3819
      7  O         -3.9150    9.2280   19.7460 O.co2 301  SAH301     -0.2441
      8  OXT       -2.7860    8.6660   18.0100 O.co2 301  SAH301     -0.2441
      9  C5'        0.9970   12.7560   21.6200 C.3   301  SAH301      0.0899
     10  C4'        1.6490   11.5850   22.3130 C.3   301  SAH301      0.1630
     11  O4'        3.0540   11.7710   22.1660 O.3   301  SAH301     -0.3153
     12  C3'        1.3830   11.4990   23.8320 C.3   301  SAH301      0.2168
     13  O3'        0.9280   10.1780   24.1950 O.3   301  SAH301     -0.2175
     14  C2'        2.6840   11.9590   24.4660 C.3   301  SAH301      0.2569
     15  O2'        2.9510   11.4430   25.7670 O.3   301  SAH301     -0.2130
     16  C1'        3.6790   11.5030   23.4050 C.3   301  SAH301      0.3185
     17  N9         4.9620   12.2130   23.3140 N.pl3 301  SAH301     -0.1439
     18  C8         5.1260   13.5570   23.1290 C.3   301  SAH301      0.3377
     19  N7         6.4350   13.8620   23.0250 N.2   301  SAH301     -0.2095
     20  C5         7.1240   12.6700   23.0920 C.2   301  SAH301      0.2526
     21  C6         8.4820   12.3470   23.0590 C.2   301  SAH301      0.4393
     22  N6         9.4370   13.2750   22.8750 N.pl3 301  SAH301      0.2180
     23  N1         8.8560   11.0380   23.1570 N.2   301  SAH301      0.0021
     24  C2         7.9140   10.0500   23.3170 C.3   301  SAH301      0.5254
     25  N3         6.5860   10.3550   23.3810 N.2   301  SAH301     -0.0055
     26  C4         6.1950   11.6550   23.2630 C.2   301  SAH301      0.3518
@<TRIPOS>BOND
     1     8     6   ar
     2     1     2    1
     3     6     7   ar
     4     6     2    1
     5     2     3    1
     6     4     3    1
     7     4     5    1
     8     5     9    1
     9     9    10    1
    10    11    10    1
    11    11    16    1
    12    10    12    1
    13    22    21    1
    14    19    20    2
    15    19    18    1
    16    21    20    1
    17    21    23    2
    18    20    26    1
    19    18    17    1
    20    23    24    1
    21    26    17    1
    22    26    25    2
    23    17    16    1
    24    24    25    1
    25    16    14    1
    26    12    13    1
    27    12    14    1
    28    14    15    1
