@<TRIPOS>MOLECULE
2pxz_ATP_X_1.pdb
 31 33 0 0 0
SMALL
GASTEIGER

@<TRIPOS>ATOM
      1  PG        31.0560    3.6450   10.4050 P.3   541  ATP541      0.5373
      2  O1G       30.2320    2.4750    9.9610 O.3   541  ATP541     -0.1143
      3  O2G       31.9670    4.2730    9.3360 O.2   541  ATP541     -0.2221
      4  O3G       31.7510    3.2900   11.6680 O.3   541  ATP541     -0.1143
      5  PB        28.8780    5.0240   11.9260 P.3   541  ATP541      0.2277
      6  O1B       27.5170    4.6640   11.4120 O.2   541  ATP541     -0.5168
      7  O2B       29.3550    4.5230   13.2710 O.3   541  ATP541     -0.4368
      8  O3B       30.0050    4.8950   10.7560 O.3   541  ATP541     -0.2258
      9  PA        29.3190    7.5120   13.3730 P.3   541  ATP541      0.2189
     10  O1A       28.2470    7.4620   14.4100 O.3   541  ATP541     -0.4371
     11  O2A       30.7610    7.3950   13.7620 O.2   541  ATP541     -0.5170
     12  O3A       28.8130    6.6180   12.1210 O.3   541  ATP541     -0.2700
     13  O5'       29.2150    8.9460   12.6130 O.3   541  ATP541     -0.3112
     14  C5'       28.1360    9.8550   12.7780 C.3   541  ATP541      0.1813
     15  C4'       28.7460   11.2340   12.4910 C.3   541  ATP541      0.1821
     16  O4'       27.7210   12.2080   12.2580 O.3   541  ATP541     -0.3135
     17  C3'       29.5430   11.8080   13.6550 C.3   541  ATP541      0.2184
     18  O3'       30.5660   12.6480   13.0830 O.3   541  ATP541     -0.2174
     19  C2'       28.5010   12.6210   14.4330 C.3   541  ATP541      0.2570
     20  O2'       29.0770   13.5450   15.3950 O.3   541  ATP541     -0.2130
     21  C1'       27.7170   13.2530   13.2600 C.3   541  ATP541      0.3186
     22  N9        26.2830   13.5640   13.4450 N.pl3 541  ATP541     -0.1439
     23  C8        25.7210   14.7660   13.1850 C.3   541  ATP541      0.3377
     24  N7        24.3750   14.7520   13.4000 N.2   541  ATP541     -0.2095
     25  C5        24.0400   13.5100   13.8190 C.2   541  ATP541      0.2526
     26  C6        22.7880   12.8300   14.2430 C.2   541  ATP541      0.4393
     27  N6        21.6160   13.4890   14.2300 N.pl3 541  ATP541      0.2180
     28  N1        22.8490   11.5310   14.6020 N.2   541  ATP541      0.0021
     29  C2        24.0240   10.8760   14.6100 C.3   541  ATP541      0.5254
     30  N3        25.1880   11.4150   14.2640 N.2   541  ATP541     -0.0055
     31  C4        25.2860   12.7170   13.8460 C.2   541  ATP541      0.3518
@<TRIPOS>BOND
     1     3     1    2
     2     2     1    1
     3     1     8    1
     4     1     4    1
     5     8     5    1
     6     6     5    2
     7     5    12    1
     8     5     7    1
     9    12     9    1
    10    16    15    1
    11    16    21    1
    12    15    14    1
    13    15    17    1
    14    13    14    1
    15    13     9    1
    16    18    17    1
    17    23    24    1
    18    23    22    1
    19    21    22    1
    20    21    19    1
    21     9    11    2
    22     9    10    1
    23    24    25    2
    24    22    31    1
    25    17    19    1
    26    25    31    1
    27    25    26    1
    28    31    30    2
    29    27    26    1
    30    26    28    2
    31    30    29    1
    32    19    20    1
    33    28    29    1
