@<TRIPOS>MOLECULE
2py3_ACP_A_1.pdb
 31 33 0 0 0
SMALL
GASTEIGER

@<TRIPOS>ATOM
      1  PG        31.1780   17.5570   15.0440 P.3   805  ACP805      0.1295
      2  O1G       32.3740   17.8990   14.2210 O.2   805  ACP805     -0.4595
      3  O2G       29.9320   17.9660   14.3980 O.3   805  ACP805     -0.3567
      4  O3G       31.2330   16.2000   15.6380 O.3   805  ACP805     -0.3567
      5  PB        30.3980   18.4350   17.9130 P.3   805  ACP805      0.3815
      6  O1B       29.0020   18.7230   17.6030 O.2   805  ACP805     -0.2547
      7  O2B       31.0450   19.3230   18.8910 O.3   805  ACP805     -0.1391
      8  C3B       31.2960   18.5140   16.4750 C.3   805  ACP805      0.1768
      9  PA        29.5550   16.0130   19.0970 P.3   805  ACP805      0.2209
     10  O1A       29.1910   14.9440   18.1710 O.2   805  ACP805     -0.5170
     11  O2A       28.4490   16.7080   19.8190 O.3   805  ACP805     -0.4371
     12  O3A       30.5210   17.0090   18.4390 O.3   805  ACP805     -0.2483
     13  O5'       30.5270   15.3030   20.1370 O.3   805  ACP805     -0.3111
     14  C5'       31.8730   14.9720   19.7600 C.3   805  ACP805      0.1813
     15  C4'       32.4300   13.8870   20.6460 C.3   805  ACP805      0.1821
     16  O4'       32.5410   14.3820   22.0120 O.3   805  ACP805     -0.3135
     17  C3'       31.5590   12.6460   20.7770 C.3   805  ACP805      0.2184
     18  O3'       31.7650   11.7430   19.6990 O.3   805  ACP805     -0.2174
     19  C2'       32.0500   12.0660   22.0940 C.3   805  ACP805      0.2570
     20  O2'       33.2870   11.3940   21.9460 O.3   805  ACP805     -0.2130
     21  C1'       32.2250   13.3400   22.9290 C.3   805  ACP805      0.3186
     22  N9        30.9930   13.7040   23.6340 N.pl3 805  ACP805     -0.1439
     23  C8        30.0680   14.6510   23.2650 C.3   805  ACP805      0.3377
     24  N7        29.0330   14.7190   24.0650 N.2   805  ACP805     -0.2095
     25  C5        29.2960   13.7620   25.0350 C.2   805  ACP805      0.2526
     26  C6        28.5710   13.3390   26.1600 C.2   805  ACP805      0.4393
     27  N6        27.3820   13.8400   26.4970 N.pl3 805  ACP805      0.2180
     28  N1        29.1100   12.3690   26.9310 N.2   805  ACP805      0.0021
     29  C2        30.2990   11.8630   26.5770 C.3   805  ACP805      0.5254
     30  N3        31.0740   12.1720   25.5360 N.2   805  ACP805     -0.0055
     31  C4        30.5060   13.1400   24.7930 C.2   805  ACP805      0.3518
@<TRIPOS>BOND
     1     2     1    2
     2     3     1    1
     3     1     4    1
     4     1     8    1
     5     8     5    1
     6     6     5    2
     7     5    12    1
     8     5     7    1
     9    10     9    2
    10    12     9    1
    11     9    11    1
    12     9    13    1
    13    18    17    1
    14    14    13    1
    15    14    15    1
    16    15    17    1
    17    15    16    1
    18    17    19    1
    19    20    19    1
    20    16    21    1
    21    19    21    1
    22    21    22    1
    23    23    22    1
    24    23    24    1
    25    22    31    1
    26    24    25    2
    27    31    25    1
    28    31    30    2
    29    25    26    1
    30    30    29    1
    31    26    27    1
    32    26    28    2
    33    29    28    1
