@<TRIPOS>MOLECULE
2py4_DUP_A_1.pdb
 28 29 0 0 0
SMALL
GASTEIGER

@<TRIPOS>ATOM
      1  O4        16.7090   14.9670   41.4770 O.2   777  DUP777     -0.2085
      2  C4        15.9050   14.1450   41.0080 C.1   777  DUP777      0.2182
      3  C5        16.2740   12.8990   40.5010 C.2   777  DUP777      0.1242
      4  C6        15.2530   12.0430   40.0280 C.2   777  DUP777      0.0928
      5  N3        14.5800   14.5380   40.9840 N.2   777  DUP777     -0.2452
      6  C2        13.5870   13.7230   40.4540 C.1   777  DUP777      0.2844
      7  O2        12.4080   14.1300   40.4510 O.2   777  DUP777     -0.1918
      8  N1        13.9450   12.4850   40.0030 N.am  777  DUP777     -0.1790
      9  C1'       12.9330   11.5940   39.4020 C.3   777  DUP777      0.2090
     10  C2'       13.0720   11.6920   37.8800 C.3   777  DUP777      0.0874
     11  C3'       13.9070   10.4420   37.5540 C.3   777  DUP777      0.1857
     12  O3'       13.6600    9.9490   36.2110 O.3   777  DUP777     -0.2203
     13  O4'       13.2120   10.2440   39.7640 O.3   777  DUP777     -0.3339
     14  C4'       13.4250    9.4790   38.5750 C.3   777  DUP777      0.1774
     15  C5'       14.3510    8.3170   38.9130 C.3   777  DUP777      0.1848
     16  O5'       15.6040    8.9000   39.2920 O.3   777  DUP777     -0.2775
     17  PA        16.8190    7.9220   39.7510 P.3   777  DUP777      0.4623
     18  O1A       16.8740    6.7810   38.7370 O.2   777  DUP777     -0.2354
     19  O2A       18.0370    8.8320   39.7780 O.3   777  DUP777     -0.1255
     20  N3A       16.4260    7.4080   41.2300 N.3   777  DUP777     -0.0179
     21  PB        15.9740    5.8300   41.5500 P.3   777  DUP777      0.4700
     22  O1B       16.7370    4.8170   40.7530 O.2   777  DUP777     -0.2350
     23  O2B       15.9910    5.6750   43.0690 O.3   777  DUP777     -0.1252
     24  O3B       14.4630    5.6770   41.0790 O.3   777  DUP777     -0.1901
     25  PG        13.8600    4.6550   40.0190 P.3   777  DUP777      0.5397
     26  O2G       14.7180    4.6950   38.7880 O.2   777  DUP777     -0.2220
     27  O1G       13.9080    3.3610   40.7640 O.3   777  DUP777     -0.1143
     28  O3G       12.4530    5.1550   39.7320 O.3   777  DUP777     -0.1143
@<TRIPOS>BOND
     1    12    11    1
     2    11    10    1
     3    11    14    1
     4    10     9    1
     5    14    15    1
     6    14    13    1
     7    18    17    2
     8    26    25    2
     9    15    16    1
    10    16    17    1
    11     9    13    1
    12     9     8    1
    13    28    25    1
    14    17    19    1
    15    17    20    1
    16     8     4    1
    17     8     6   am
    18    25    27    1
    19    25    24    1
    20     4     3    2
    21     7     6    2
    22     6     5    2
    23     3     2    1
    24    22    21    2
    25     5     2    2
    26     2     1    2
    27    24    21    1
    28    20    21    1
    29    21    23    1
