@<TRIPOS>MOLECULE
2py7_ATP_X_1.pdb
 31 33 0 0 0
SMALL
GASTEIGER

@<TRIPOS>ATOM
      1  PG        31.1750    4.5920   10.2750 P.3   541  ATP541      0.5373
      2  O1G       30.4810    3.3530    9.7620 O.3   541  ATP541     -0.1143
      3  O2G       32.0870    5.1940    9.2200 O.2   541  ATP541     -0.2221
      4  O3G       31.8260    4.4160   11.6250 O.3   541  ATP541     -0.1143
      5  PB        29.0460    6.1490   11.6430 P.3   541  ATP541      0.2277
      6  O1B       27.6000    5.9910   11.2390 O.2   541  ATP541     -0.5168
      7  O2B       29.5710    5.5450   12.9330 O.3   541  ATP541     -0.4368
      8  O3B       30.0000    5.7120   10.4000 O.3   541  ATP541     -0.2258
      9  PA        29.4710    8.5670   13.0480 P.3   541  ATP541      0.2189
     10  O1A       28.3130    8.2530   13.9480 O.3   541  ATP541     -0.4371
     11  O2A       30.8770    8.4250   13.5790 O.2   541  ATP541     -0.5170
     12  O3A       29.3220    7.7150   11.6920 O.3   541  ATP541     -0.2700
     13  O5'       29.3670   10.0250   12.3610 O.3   541  ATP541     -0.3112
     14  C5'       28.2500   10.9090   12.4390 C.3   541  ATP541      0.1813
     15  C4'       28.8470   12.2940   12.1980 C.3   541  ATP541      0.1821
     16  O4'       27.8440   13.2820   11.9740 O.3   541  ATP541     -0.3135
     17  C3'       29.6420   12.7860   13.3970 C.3   541  ATP541      0.2184
     18  O3'       30.7650   13.5260   12.8810 O.3   541  ATP541     -0.2174
     19  C2'       28.6620   13.6800   14.1460 C.3   541  ATP541      0.2570
     20  O2'       29.3540   14.6360   14.9650 O.3   541  ATP541     -0.2130
     21  C1'       27.8900   14.2990   12.9900 C.3   541  ATP541      0.3186
     22  N9        26.4800   14.6920   13.2300 N.pl3 541  ATP541     -0.1439
     23  C8        26.0020   15.9270   12.9870 C.3   541  ATP541      0.3377
     24  N7        24.6750   15.9990   13.2480 N.2   541  ATP541     -0.2095
     25  C5        24.2770   14.7720   13.6520 C.2   541  ATP541      0.2526
     26  C6        22.9940   14.1620   14.0900 C.2   541  ATP541      0.4393
     27  N6        21.8510   14.9020   14.1320 N.pl3 541  ATP541      0.2180
     28  N1        23.0060   12.8460   14.4320 N.2   541  ATP541      0.0021
     29  C2        24.1350   12.1050   14.3830 C.3   541  ATP541      0.5254
     30  N3        25.3370   12.5980   14.0020 N.2   541  ATP541     -0.0055
     31  C4        25.4710   13.9050   13.6280 C.2   541  ATP541      0.3518
@<TRIPOS>BOND
     1     3     1    2
     2     2     1    1
     3     1     8    1
     4     1     4    1
     5     8     5    1
     6     6     5    2
     7     5    12    1
     8     5     7    1
     9    12     9    1
    10    16    15    1
    11    16    21    1
    12    15    14    1
    13    15    17    1
    14    13    14    1
    15    13     9    1
    16    18    17    1
    17    23    22    1
    18    23    24    1
    19    21    22    1
    20    21    19    1
    21     9    11    2
    22     9    10    1
    23    22    31    1
    24    24    25    2
    25    17    19    1
    26    31    25    1
    27    31    30    2
    28    25    26    1
    29    30    29    1
    30    26    27    1
    31    26    28    2
    32    19    20    1
    33    29    28    1
