@<TRIPOS>MOLECULE
2py8_PE4_B_1.pdb
 16 15 0 0 0
SMALL
GASTEIGER

@<TRIPOS>ATOM
      1  O2        34.4990   90.9940   73.7020 O.3   602  PE4602     -0.2176
      2  C3        35.7410   90.7790   74.3800 C.3   602  PE4602      0.2140
      3  C4        36.6320   89.8350   73.5740 C.3   602  PE4602      0.1777
      4  O3        37.9650   90.3580   73.5190 O.3   602  PE4602     -0.3483
      5  C5        38.5220   90.5020   72.2120 C.3   602  PE4602      0.1742
      6  C6        38.8580   89.1420   71.6070 C.3   602  PE4602      0.1742
      7  O4        40.0460   89.2550   70.8090 O.3   602  PE4602     -0.3484
      8  C7        39.8940   88.9900   69.4180 C.3   602  PE4602      0.1742
      9  C8        39.8920   90.3170   68.6990 C.3   602  PE4602      0.1742
     10  O5        39.6880   90.1200   67.2970 O.3   602  PE4602     -0.3484
     11  C9        39.5150   91.3420   66.5780 C.3   602  PE4602      0.1742
     12  C10       40.8410   92.0490   66.2690 C.3   602  PE4602      0.1742
     13  O6        40.6840   93.4020   65.7910 O.3   602  PE4602     -0.3483
     14  C11       39.5980   93.5920   64.8750 C.3   602  PE4602      0.1777
     15  C12       39.5530   95.0380   64.4010 C.3   602  PE4602      0.2140
     16  O7        38.2510   95.3780   63.9390 O.3   602  PE4602     -0.2176
@<TRIPOS>BOND
     1    16    15    1
     2    15    14    1
     3    14    13    1
     4    13    12    1
     5    12    11    1
     6    11    10    1
     7    10     9    1
     8     9     8    1
     9     8     7    1
    10     7     6    1
    11     6     5    1
    12     5     4    1
    13     4     3    1
    14     3     2    1
    15     1     2    1
