@<TRIPOS>MOLECULE
2pyd_GLC_A_1.pdb
 12 12 0 0 0
SMALL
GASTEIGER

@<TRIPOS>ATOM
      1  C1        33.1340   22.4330   27.4870 C.3   998  GLC998      0.3024
      2  C2        33.3620   22.7290   25.9990 C.3   998  GLC998      0.2434
      3  C3        32.2540   22.1270   25.1290 C.3   998  GLC998      0.2199
      4  C4        32.0540   20.6400   25.4620 C.3   998  GLC998      0.2144
      5  C5        31.8890   20.4390   26.9780 C.3   998  GLC998      0.1836
      6  C6        31.8140   18.9630   27.3720 C.3   998  GLC998      0.2142
      7  O1        32.0150   23.1480   27.9670 O.3   998  GLC998     -0.1869
      8  O2        33.4730   24.1240   25.7990 O.3   998  GLC998     -0.2148
      9  O3        32.5710   22.2840   23.7600 O.3   998  GLC998     -0.2174
     10  O4        30.9100   20.1440   24.7910 O.3   998  GLC998     -0.2176
     11  O5        32.9610   21.0370   27.6920 O.3   998  GLC998     -0.3236
     12  O6        32.8730   18.2340   26.7700 O.3   998  GLC998     -0.2176
@<TRIPOS>BOND
     1     9     3    1
     2    10     4    1
     3     3     4    1
     4     3     2    1
     5     4     5    1
     6     8     2    1
     7     2     1    1
     8    12     6    1
     9     5     6    1
    10     5    11    1
    11     1    11    1
    12     1     7    1
