@<TRIPOS>MOLECULE
2pyi_DL8_A_1.pdb
 26 28 0 0 0
SMALL
GASTEIGER

@<TRIPOS>ATOM
      1  C12       37.4770   27.0690   34.3710 C.ar  998  DL8998      0.0013
      2  C13       38.1450   28.0950   35.0410 C.ar  998  DL8998      0.0000
      3  C14       39.0830   28.8750   34.3640 C.ar  998  DL8998      0.0000
      4  C15       39.3580   28.6220   33.0220 C.ar  998  DL8998      0.0000
      5  C16       38.6930   27.5940   32.3550 C.ar  998  DL8998      0.0013
      6  C11       37.7500   26.8160   33.0250 C.ar  998  DL8998      0.0166
      7  C10       37.0850   25.7900   32.3560 C.2   998  DL8998      0.0972
      8  C9        37.3360   25.3420   31.1320 C.3   998  DL8998      0.1431
      9  N4        36.0660   25.0610   32.8160 N.2   998  DL8998     -0.1496
     10  N3        35.7310   24.2410   31.9510 N.pl3 998  DL8998     -0.0624
     11  N2        36.4450   24.3770   30.9500 N.3   998  DL8998     -0.1537
     12  C8        36.3560   23.5880   29.7090 C.3   998  DL8998      0.1822
     13  C7        34.9140   23.4540   29.1880 C.2   998  DL8998      0.2616
     14  O7        33.9420   23.8780   29.8180 O.2   998  DL8998     -0.2717
     15  N1        34.8340   22.8440   28.0080 N.am  998  DL8998     -0.1738
     16  C1        33.5360   22.5910   27.3500 C.3   998  DL8998      0.2447
     17  O5        33.2770   21.1790   27.5850 O.3   998  DL8998     -0.3315
     18  C5        32.0530   20.7010   26.9910 C.3   998  DL8998      0.1828
     19  C6        31.8630   19.2380   27.4150 C.3   998  DL8998      0.2142
     20  O6        32.9520   18.4460   26.9080 O.3   998  DL8998     -0.2176
     21  C4        32.1620   20.8690   25.4610 C.3   998  DL8998      0.2144
     22  O4        30.9800   20.3750   24.8180 O.3   998  DL8998     -0.2176
     23  C3        32.4050   22.3470   25.0950 C.3   998  DL8998      0.2190
     24  O3        32.6380   22.4610   23.6870 O.3   998  DL8998     -0.2174
     25  C2        33.6220   22.9060   25.8500 C.3   998  DL8998      0.2326
     26  O2        33.7330   24.3210   25.6610 O.3   998  DL8998     -0.2157
@<TRIPOS>BOND
     1    24    23    1
     2    22    21    1
     3    23    21    1
     4    23    25    1
     5    21    18    1
     6    26    25    1
     7    25    16    1
     8    20    19    1
     9    18    19    1
    10    18    17    1
    11    16    17    1
    12    16    15    1
    13    15    13   am
    14    13    12    1
    15    13    14    2
    16    12    11    1
    17    11     8    1
    18    11    10    1
    19     8     7    1
    20    10     9    1
    21     5     4   ar
    22     5     6   ar
    23     7     9    2
    24     7     6    1
    25     4     3   ar
    26     6     1   ar
    27     3     2   ar
    28     1     2   ar
