@<TRIPOS>MOLECULE
2pyj_DGT_A_1.pdb
 31 33 0 0 0
SMALL
GASTEIGER

@<TRIPOS>ATOM
      1  PG         1.5640  -17.0010   49.2910 P.3   1588  DGT1588     0.5373
      2  O1G        0.5560  -17.1710   48.1820 O.2   1588  DGT1588    -0.2221
      3  O2G        0.9320  -16.4270   50.5290 O.3   1588  DGT1588    -0.1143
      4  O3G        2.5860  -18.1380   49.5620 O.3   1588  DGT1588    -0.1143
      5  O3B        2.4720  -15.7950   48.6940 O.3   1588  DGT1588    -0.2258
      6  PB         3.9740  -15.9380   48.0980 P.3   1588  DGT1588     0.2277
      7  O1B        4.3670  -14.5650   47.6140 O.2   1588  DGT1588    -0.5168
      8  O2B        4.8370  -16.7860   49.0390 O.3   1588  DGT1588    -0.4368
      9  O3A        3.7560  -16.7980   46.7370 O.3   1588  DGT1588    -0.2700
     10  PA         4.4290  -18.2340   46.4510 P.3   1588  DGT1588     0.2189
     11  O1A        3.6240  -18.7960   45.2670 O.2   1588  DGT1588    -0.5170
     12  O2A        4.6320  -19.0500   47.7650 O.3   1588  DGT1588    -0.4371
     13  O5'        5.8140  -17.8090   45.7940 O.3   1588  DGT1588    -0.3112
     14  C5'        6.9840  -17.6330   46.5650 C.3   1588  DGT1588     0.1812
     15  C4'        7.7930  -16.4940   46.0000 C.3   1588  DGT1588     0.1772
     16  O4'        8.1930  -16.7340   44.6240 O.3   1588  DGT1588    -0.3347
     17  C3'        7.0870  -15.1400   45.9950 C.3   1588  DGT1588     0.1857
     18  O3'        7.0780  -14.4670   47.2680 O.3   1588  DGT1588    -0.2203
     19  C2'        7.9330  -14.4040   44.9910 C.3   1588  DGT1588     0.0865
     20  C1'        8.2340  -15.4880   43.9490 C.3   1588  DGT1588     0.1981
     21  N9         7.1230  -15.3870   42.9900 N.pl3 1588  DGT1588    -0.2374
     22  C8         5.9870  -16.1320   42.9280 C.3   1588  DGT1588     0.2245
     23  N7         5.1980  -15.6730   41.9190 N.2   1588  DGT1588    -0.2322
     24  C5         5.8330  -14.6380   41.3490 C.2   1588  DGT1588     0.2182
     25  C6         5.5700  -13.7030   40.2410 C.1   1588  DGT1588     0.2372
     26  O6         4.5280  -13.7670   39.5610 O.2   1588  DGT1588    -0.2069
     27  N1         6.4730  -12.7580   39.9820 N.2   1588  DGT1588    -0.2485
     28  C2         7.6160  -12.6270   40.6820 C.1   1588  DGT1588     0.2531
     29  N2         8.4650  -11.6440   40.3290 N.pl3 1588  DGT1588    -0.0226
     30  N3         7.9320  -13.4620   41.7230 N.2   1588  DGT1588    -0.3074
     31  C4         7.0790  -14.4510   42.0740 C.2   1588  DGT1588     0.2299
@<TRIPOS>BOND
     1    26    25    2
     2    27    25    2
     3    27    28    2
     4    25    24    1
     5    29    28    1
     6    28    30    2
     7    24    23    2
     8    24    31    1
     9    30    31    2
    10    23    22    1
    11    31    21    1
    12    22    21    1
    13    21    20    1
    14    20    16    1
    15    20    19    1
    16    16    15    1
    17    19    17    1
    18    11    10    2
    19    13    10    1
    20    13    14    1
    21    17    15    1
    22    17    18    1
    23    15    14    1
    24    10     9    1
    25    10    12    1
    26     9     6    1
    27     7     6    2
    28     6     5    1
    29     6     8    1
    30     2     1    2
    31     5     1    1
    32     1     4    1
    33     1     3    1
