@<TRIPOS>MOLECULE
2pyl_TTP_A_1.pdb
 29 30 0 0 0
SMALL
GASTEIGER

@<TRIPOS>ATOM
      1  PA       -25.9040    1.4170   -5.8910 P.3   3204  TTP3204     0.2189
      2  O1A      -26.1190    0.6870   -4.5850 O.3   3204  TTP3204    -0.4371
      3  O2A      -27.1840    2.0380   -6.3760 O.2   3204  TTP3204    -0.5170
      4  O3A      -24.8120    2.5700   -5.7690 O.3   3204  TTP3204    -0.2700
      5  PB       -23.3540    2.3940   -5.1250 P.3   3204  TTP3204     0.2277
      6  O1B      -22.3030    2.4260   -6.1940 O.2   3204  TTP3204    -0.5168
      7  O2B      -23.2500    1.2330   -4.1410 O.3   3204  TTP3204    -0.4368
      8  O3B      -23.2670    3.7820   -4.3120 O.3   3204  TTP3204    -0.2258
      9  PG       -24.1960    4.1190   -3.0300 P.3   3204  TTP3204     0.5373
     10  O1G      -24.6080    2.8550   -2.3310 O.3   3204  TTP3204    -0.1143
     11  O2G      -25.4330    4.8630   -3.4450 O.2   3204  TTP3204    -0.2221
     12  O3G      -23.3200    4.9810   -2.1590 O.3   3204  TTP3204    -0.1143
     13  O5'      -25.2850    0.4530   -6.9960 O.3   3204  TTP3204    -0.3112
     14  C5'      -25.2690   -0.9540   -6.9420 C.3   3204  TTP3204     0.1812
     15  C4'      -24.6410   -1.4430   -8.2450 C.3   3204  TTP3204     0.1773
     16  O4'      -25.5150   -1.2210   -9.3650 O.3   3204  TTP3204    -0.3339
     17  C3'      -23.3530   -0.7280   -8.5880 C.3   3204  TTP3204     0.1857
     18  O3'      -22.2190   -1.3200   -7.9690 O.3   3204  TTP3204    -0.2203
     19  C2'      -23.3130   -0.8300  -10.0880 C.3   3204  TTP3204     0.0874
     20  C1'      -24.7710   -0.8220  -10.5110 C.3   3204  TTP3204     0.2090
     21  N1       -25.1020    0.5440  -10.9150 N.am  3204  TTP3204    -0.1794
     22  C2       -24.7030    1.0000  -12.1810 C.1   3204  TTP3204     0.2844
     23  O2       -24.1120    0.2220  -12.9500 O.2   3204  TTP3204    -0.1918
     24  N3       -24.9840    2.2550  -12.5670 N.2   3204  TTP3204    -0.2455
     25  C4       -25.6220    3.1120  -11.7640 C.1   3204  TTP3204     0.2134
     26  O4       -25.8520    4.2770  -12.1330 O.2   3204  TTP3204    -0.2088
     27  C5       -26.0330    2.6670  -10.4170 C.2   3204  TTP3204     0.0891
     28  C5M      -26.7580    3.5820   -9.4610 C.3   3204  TTP3204     0.0462
     29  C6       -25.7340    1.3740  -10.0570 C.2   3204  TTP3204     0.0877
@<TRIPOS>BOND
     1    23    22    2
     2    24    22    2
     3    24    25    2
     4    22    21   am
     5    26    25    2
     6    25    27    1
     7    21    20    1
     8    21    29    1
     9    20    19    1
    10    20    16    1
    11    27    29    2
    12    27    28    1
    13    19    17    1
    14    16    15    1
    15    17    15    1
    16    17    18    1
    17    15    14    1
    18    13    14    1
    19    13     1    1
    20     3     1    2
    21     6     5    2
    22     1     4    1
    23     1     2    1
    24     4     5    1
    25     5     8    1
    26     5     7    1
    27     8     9    1
    28    11     9    2
    29     9    10    1
    30     9    12    1
