@<TRIPOS>MOLECULE
2pym_1UN_A_1.pdb
 40 43 0 0 0
SMALL
GASTEIGER

@<TRIPOS>ATOM
      1  C1       -12.5400   13.3380   27.2400 C.3   1001  1UN1001     0.0161
      2  C2       -12.4480   12.6130   28.5900 C.3   1001  1UN1001     0.0032
      3  C3       -12.7700   11.1170   28.4870 C.3   1001  1UN1001     0.0001
      4  C4       -11.9820   10.4270   27.3720 C.3   1001  1UN1001     0.0000
      5  C5       -12.2160   11.1380   26.0400 C.3   1001  1UN1001     0.0000
      6  C6       -11.7940   12.6050   26.1160 C.3   1001  1UN1001     0.0014
      7  N7       -10.7090   14.8840   27.9500 N.3   1001  1UN1001    -0.2643
      8  C8       -10.6670   14.2680   29.2940 C.3   1001  1UN1001     0.1365
      9  C9       -11.0810   12.7960   29.2490 C.3   1001  1UN1001     0.0254
     10  C10      -12.0630   14.7930   27.3530 C.3   1001  1UN1001     0.0725
     11  C11       -9.2770   14.2950   29.8530 C.2   1001  1UN1001     0.2558
     12  N12       -9.2130   14.7750   31.0900 N.am  1001  1UN1001    -0.2077
     13  C13       -8.0610   14.8160   31.9800 C.3   1001  1UN1001     0.0788
     14  C14       -7.0700   15.8350   31.4450 C.3   1001  1UN1001     0.0217
     15  C15       -7.4290   13.4390   32.1200 C.3   1001  1UN1001     0.0217
     16  C16       -8.5490   15.2460   33.3600 C.3   1001  1UN1001     0.0217
     17  O17       -8.3330   13.8840   29.1880 O.2   1001  1UN1001    -0.2719
     18  C18      -10.2870   16.2970   28.0250 C.3   1001  1UN1001     0.1075
     19  C19       -9.7560   16.7650   26.6710 C.3   1001  1UN1001     0.1885
     20  C20       -8.2800   16.4270   26.4760 C.3   1001  1UN1001     0.1383
     21  O21      -10.0180   18.1690   26.4750 O.3   1001  1UN1001    -0.2198
     22  N22       -7.9760   16.6250   25.0750 N.am  1001  1UN1001    -0.1999
     23  C23       -7.3320   17.2570   27.3410 C.3   1001  1UN1001     0.0864
     24  C24       -7.8750   15.6400   24.1820 C.2   1001  1UN1001     0.2646
     25  O25       -8.0710   14.4600   24.4290 O.2   1001  1UN1001    -0.2684
     26  C29       -7.4770   16.0430   22.8020 C.ar  1001  1UN1001     0.0542
     27  C30       -6.2730   16.7280   22.6160 C.ar  1001  1UN1001     0.0045
     28  C31       -5.8600   17.1280   21.3480 C.ar  1001  1UN1001     0.0034
     29  C32       -6.6350   16.8630   20.2180 C.ar  1001  1UN1001     0.0417
     30  C33       -7.8480   16.1880   20.3090 C.ar  1001  1UN1001     0.1919
     31  C34       -8.3420   15.7450   21.6330 C.ar  1001  1UN1001     0.0215
     32  O38       -8.5760   15.9540   19.1890 O.3   1001  1UN1001    -0.2869
     33  C39       -9.6550   15.0010   21.7720 C.3   1001  1UN1001     0.0345
     34  S74       -5.7610   16.4590   27.4510 S.3   1001  1UN1001    -0.1118
     35  C77       -4.7910   17.1020   26.2050 C.ar  1001  1UN1001     0.0253
     36  C78       -3.7200   16.3670   25.6930 C.ar  1001  1UN1001     0.0061
     37  C79       -2.9280   16.8950   24.6700 C.ar  1001  1UN1001     0.0005
     38  C80       -3.1990   18.1610   24.1510 C.ar  1001  1UN1001     0.0000
     39  C81       -4.2710   18.9000   24.6530 C.ar  1001  1UN1001     0.0005
     40  C82       -5.0570   18.3730   25.6800 C.ar  1001  1UN1001     0.0061
@<TRIPOS>BOND
     1    32    30    1
     2    29    30   ar
     3    29    28   ar
     4    30    31   ar
     5    28    27   ar
     6    31    33    1
     7    31    26   ar
     8    27    26   ar
     9    26    24    1
    10    38    39   ar
    11    38    37   ar
    12    24    25    2
    13    24    22   am
    14    39    40   ar
    15    37    36   ar
    16    22    20    1
    17    40    35   ar
    18    36    35   ar
    19     5     6    1
    20     5     4    1
    21     6     1    1
    22    35    34    1
    23    21    19    1
    24    20    19    1
    25    20    23    1
    26    19    18    1
    27     1    10    1
    28     1     2    1
    29    23    34    1
    30    10     7    1
    31     4     3    1
    32     7    18    1
    33     7     8    1
    34     3     2    1
    35     2     9    1
    36    17    11    2
    37     9     8    1
    38     8    11    1
    39    11    12   am
    40    12    13    1
    41    14    13    1
    42    13    15    1
    43    13    16    1
