@<TRIPOS>MOLECULE
2pyn_1UN_A_1.pdb
 40 43 0 0 0
SMALL
GASTEIGER

@<TRIPOS>ATOM
      1  C1       -12.8470   13.7840   27.6230 C.3   1001  1UN1001     0.0161
      2  C2       -12.6750   12.9750   28.9230 C.3   1001  1UN1001     0.0032
      3  C3       -12.8840   11.4660   28.7450 C.3   1001  1UN1001     0.0001
      4  C4       -12.1810   10.9280   27.4960 C.3   1001  1UN1001     0.0000
      5  C5       -12.6230   11.7100   26.2680 C.3   1001  1UN1001     0.0000
      6  C6       -12.1690   13.1600   26.4020 C.3   1001  1UN1001     0.0014
      7  N7       -11.0390   15.3410   28.3640 N.3   1001  1UN1001    -0.2643
      8  C8       -11.0360   14.7060   29.6950 C.3   1001  1UN1001     0.1365
      9  C9       -11.3080   13.2100   29.5690 C.3   1001  1UN1001     0.0254
     10  C10      -12.3760   15.2340   27.7480 C.3   1001  1UN1001     0.0725
     11  C11       -9.6980   14.8390   30.3560 C.2   1001  1UN1001     0.2558
     12  N12       -9.7250   15.1520   31.6500 N.am  1001  1UN1001    -0.2077
     13  C13       -8.5370   15.3490   32.4790 C.3   1001  1UN1001     0.0788
     14  C14       -7.6660   16.4330   31.8560 C.3   1001  1UN1001     0.0217
     15  C15       -7.7750   14.0410   32.6220 C.3   1001  1UN1001     0.0217
     16  C16       -8.9680   15.7660   33.8770 C.3   1001  1UN1001     0.0217
     17  O17       -8.6920   14.6310   29.7010 O.2   1001  1UN1001    -0.2719
     18  C18      -10.6700   16.7630   28.4400 C.3   1001  1UN1001     0.1075
     19  C19      -10.0980   17.1960   27.0930 C.3   1001  1UN1001     0.1885
     20  C20       -8.6250   16.8290   26.9330 C.3   1001  1UN1001     0.1383
     21  O21      -10.2860   18.5980   26.9020 O.3   1001  1UN1001    -0.2198
     22  N22       -8.2830   17.0440   25.5490 N.am  1001  1UN1001    -0.1999
     23  C23       -7.6960   17.6510   27.8270 C.3   1001  1UN1001     0.0864
     24  C24       -8.0140   16.0640   24.6890 C.2   1001  1UN1001     0.2646
     25  O25       -8.0650   14.8740   24.9720 O.2   1001  1UN1001    -0.2684
     26  C29       -7.6030   16.4850   23.3120 C.ar  1001  1UN1001     0.0542
     27  C30       -6.4110   17.2000   23.1280 C.ar  1001  1UN1001     0.0045
     28  C31       -6.0090   17.6100   21.8540 C.ar  1001  1UN1001     0.0034
     29  C32       -6.7760   17.3300   20.7190 C.ar  1001  1UN1001     0.0417
     30  C33       -7.9760   16.6240   20.8140 C.ar  1001  1UN1001     0.1919
     31  C34       -8.4530   16.1680   22.1380 C.ar  1001  1UN1001     0.0215
     32  O38       -8.7130   16.3550   19.7040 O.3   1001  1UN1001    -0.2869
     33  C39       -9.7450   15.3980   22.2760 C.3   1001  1UN1001     0.0345
     34  S74       -6.1250   16.8550   27.9280 S.3   1001  1UN1001    -0.1118
     35  C77       -5.1280   17.5380   26.7320 C.ar  1001  1UN1001     0.0253
     36  C78       -4.0170   16.8290   26.2710 C.ar  1001  1UN1001     0.0061
     37  C79       -3.1850   17.3760   25.2950 C.ar  1001  1UN1001     0.0005
     38  C80       -3.4600   18.6370   24.7740 C.ar  1001  1UN1001     0.0000
     39  C81       -4.5690   19.3480   25.2260 C.ar  1001  1UN1001     0.0005
     40  C82       -5.3980   18.8000   26.2050 C.ar  1001  1UN1001     0.0061
@<TRIPOS>BOND
     1    32    30    1
     2    29    30   ar
     3    29    28   ar
     4    30    31   ar
     5    28    27   ar
     6    31    33    1
     7    31    26   ar
     8    27    26   ar
     9    26    24    1
    10    24    25    2
    11    24    22   am
    12    38    39   ar
    13    38    37   ar
    14    39    40   ar
    15    37    36   ar
    16    22    20    1
    17    40    35   ar
    18     5     6    1
    19     5     4    1
    20    36    35   ar
    21     6     1    1
    22    35    34    1
    23    21    19    1
    24    20    19    1
    25    20    23    1
    26    19    18    1
    27     4     3    1
    28     1    10    1
    29     1     2    1
    30    10     7    1
    31    23    34    1
    32     7    18    1
    33     7     8    1
    34     3     2    1
    35     2     9    1
    36     9     8    1
    37     8    11    1
    38    17    11    2
    39    11    12   am
    40    12    13    1
    41    14    13    1
    42    13    15    1
    43    13    16    1
