@<TRIPOS>MOLECULE
2pys_MAN_C_1.pdb
 12 12 0 0 0
SMALL
GASTEIGER

@<TRIPOS>ATOM
      1  C1         7.9350   18.4260   16.6840 C.2   600  MAN600      0.3505
      2  C2         6.4760   18.6350   16.4230 C.3   600  MAN600      0.2823
      3  C3         5.9670   19.0590   17.8160 C.3   600  MAN600      0.2270
      4  C4         6.4540   18.0830   18.8800 C.3   600  MAN600      0.2276
      5  C5         7.9730   17.7920   18.7850 C.3   600  MAN600      0.2344
      6  C6         8.3670   16.7540   19.8260 C.3   600  MAN600      0.2281
      7  O1         8.8130   19.4510   16.5200 O.2   600  MAN600     -0.2472
      8  O2         5.8750   17.3920   16.1200 O.3   600  MAN600     -0.2082
      9  O3         4.5610   19.2300   17.8340 O.3   600  MAN600     -0.2169
     10  O4         6.0960   18.5580   20.1960 O.3   600  MAN600     -0.2163
     11  O5         8.3830   17.3790   17.4660 O.3   600  MAN600     -0.4450
     12  O6         9.7250   16.4790   19.7010 O.3   600  MAN600     -0.2163
@<TRIPOS>BOND
     1     8     2    1
     2     2     1    1
     3     2     3    1
     4     7     1    2
     5     1    11    1
     6    11     5    1
     7     3     9    1
     8     3     4    1
     9     5     4    1
    10     5     6    1
    11     4    10    1
    12    12     6    1
