@<TRIPOS>MOLECULE
2pyu_IMP_A_1.pdb
 23 25 0 0 0
SMALL
GASTEIGER

@<TRIPOS>ATOM
      1  P          6.2800  -15.4930    4.4030 P.3   3036  IMP3036     0.5327
      2  O1P        5.4070  -14.6980    5.2900 O.3   3036  IMP3036    -0.1145
      3  O2P        7.1310  -16.5790    4.9700 O.3   3036  IMP3036    -0.1145
      4  O3P        5.6730  -15.8550    3.1040 O.2   3036  IMP3036    -0.2224
      5  O5'        7.4460  -14.4870    4.0510 O.3   3036  IMP3036    -0.2675
      6  C5'        8.6860  -15.0360    3.7820 C.3   3036  IMP3036     0.1860
      7  C4'        9.2070  -14.1460    2.7100 C.3   3036  IMP3036     0.1823
      8  O4'       10.5980  -14.1040    2.7150 O.3   3036  IMP3036    -0.3135
      9  C3'        8.7860  -14.7020    1.3760 C.3   3036  IMP3036     0.2184
     10  O3'        7.6940  -13.9400    0.9640 O.3   3036  IMP3036    -0.2174
     11  C2'        9.9510  -14.3880    0.4850 C.3   3036  IMP3036     0.2570
     12  O2'        9.7670  -13.0250    0.0900 O.3   3036  IMP3036    -0.2130
     13  C1'       11.1060  -14.4900    1.4640 C.3   3036  IMP3036     0.3186
     14  N9        11.5840  -15.8700    1.6030 N.pl3 3036  IMP3036    -0.1435
     15  C8        11.5230  -16.6390    2.6740 C.3   3036  IMP3036     0.3382
     16  N7        12.0410  -17.8240    2.4290 N.2   3036  IMP3036    -0.2054
     17  C5        12.4510  -17.8060    1.1620 C.2   3036  IMP3036     0.2446
     18  C6        13.0790  -18.7020    0.3090 C.1   3036  IMP3036     0.1792
     19  O6        13.4100  -19.8350    0.6200 O.2   3036  IMP3036    -0.2203
     20  N1        13.3530  -18.3180   -0.9030 N.2   3036  IMP3036    -0.1458
     21  C2        13.0470  -17.1240   -1.3430 C.3   3036  IMP3036     0.4017
     22  N3        12.4520  -16.2320   -0.5950 N.2   3036  IMP3036    -0.0334
     23  C4        12.1520  -16.5580    0.6610 C.2   3036  IMP3036     0.3528
@<TRIPOS>BOND
     1    21    20    1
     2    21    22    1
     3    20    18    2
     4    22    23    2
     5    12    11    1
     6    18    19    2
     7    18    17    1
     8    11     9    1
     9    11    13    1
    10    23    17    1
    11    23    14    1
    12    10     9    1
    13    17    16    2
    14     9     7    1
    15    13    14    1
    16    13     8    1
    17    14    15    1
    18    16    15    1
    19     7     8    1
    20     7     6    1
    21     4     1    2
    22     6     5    1
    23     5     1    1
    24     1     3    1
    25     1     2    1
