@<TRIPOS>MOLECULE
2pyw_SR1_A_1.pdb
 11 11 0 0 0
SMALL
GASTEIGER

@<TRIPOS>ATOM
      1  CS        55.0100    5.3950    6.9280 C.3   998  SR1998      0.0693
      2  S         54.4670    4.8430    8.5210 S.3   998  SR1998     -0.1367
      3  C5'       55.8720    5.1090    9.5630 C.3   998  SR1998      0.0899
      4  C4'       55.6040    4.5900   10.9660 C.3   998  SR1998      0.1616
      5  O4'       56.7920    4.8170   11.7390 O.3   998  SR1998     -0.3254
      6  C1'       56.4890    5.6880   12.8310 C.3   998  SR1998      0.3023
      7  O1'       57.2910    5.3690   13.9750 O.3   998  SR1998     -0.1869
      8  C2'       55.0040    5.4530   13.0930 C.3   998  SR1998      0.2433
      9  O2'       54.7790    4.1860   13.7720 O.3   998  SR1998     -0.2148
     10  C3'       54.5240    5.4140   11.6620 C.3   998  SR1998      0.2151
     11  O3'       53.2430    4.8090   11.5150 O.3   998  SR1998     -0.2176
@<TRIPOS>BOND
     1     1     2    1
     2     2     3    1
     3     3     4    1
     4     4    10    1
     5     4     5    1
     6    11    10    1
     7    10     8    1
     8     5     6    1
     9     6     8    1
    10     6     7    1
    11     8     9    1
