@<TRIPOS>MOLECULE
2pyw_ADP_A_1.pdb
 27 29 0 0 0
SMALL
GASTEIGER

@<TRIPOS>ATOM
      1  PB        62.7450    7.1120   14.8010 P.3   999  ADP999      0.5373
      2  O1B       63.4010    7.2990   13.4380 O.2   999  ADP999     -0.2221
      3  O2B       61.9740    8.3500   15.1220 O.3   999  ADP999     -0.1143
      4  O3B       61.9900    5.8180   14.9490 O.3   999  ADP999     -0.1143
      5  PA        64.0610    6.6040   17.3570 P.3   999  ADP999      0.2231
      6  O1A       64.1070    7.7950   18.3070 O.3   999  ADP999     -0.4370
      7  O2A       63.1540    5.4160   17.5130 O.2   999  ADP999     -0.5169
      8  O3A       64.0140    7.1530   15.8320 O.3   999  ADP999     -0.2261
      9  O5'       65.5560    6.0050   17.3520 O.3   999  ADP999     -0.3111
     10  C5'       65.9700    5.0000   16.4420 C.3   999  ADP999      0.1813
     11  C4'       67.0260    4.1560   17.1360 C.3   999  ADP999      0.1821
     12  O4'       68.0620    4.9790   17.7100 O.3   999  ADP999     -0.3135
     13  C3'       66.4570    3.3450   18.3040 C.3   999  ADP999      0.2184
     14  O3'       65.9000    2.0840   17.8870 O.3   999  ADP999     -0.2174
     15  C2'       67.6670    3.1200   19.1900 C.3   999  ADP999      0.2570
     16  O2'       68.4990    2.0620   18.6830 O.3   999  ADP999     -0.2130
     17  C1'       68.4680    4.3870   18.9670 C.3   999  ADP999      0.3186
     18  N9        68.2900    5.4070   20.0130 N.pl3 999  ADP999     -0.1439
     19  C8        67.4540    6.4770   19.9170 C.3   999  ADP999      0.3377
     20  N7        67.5730    7.2180   21.0470 N.2   999  ADP999     -0.2095
     21  C5        68.5080    6.6110   21.8260 C.2   999  ADP999      0.2526
     22  C6        69.0480    6.9010   23.0830 C.2   999  ADP999      0.4393
     23  N6        68.6530    8.0080   23.7420 N.pl3 999  ADP999      0.2180
     24  N1        70.0000    6.0880   23.6130 N.2   999  ADP999      0.0021
     25  C2        70.4140    4.9750   22.9790 C.3   999  ADP999      0.5254
     26  N3        69.9140    4.6830   21.7550 N.2   999  ADP999     -0.0055
     27  C4        68.9660    5.4790   21.1680 C.2   999  ADP999      0.3518
@<TRIPOS>BOND
     1     2     1    2
     2     1     4    1
     3     1     3    1
     4     1     8    1
     5     8     5    1
     6    10    11    1
     7    10     9    1
     8    11    12    1
     9    11    13    1
    10     9     5    1
    11     5     7    2
    12     5     6    1
    13    12    17    1
    14    14    13    1
    15    13    15    1
    16    16    15    1
    17    17    15    1
    18    17    18    1
    19    19    18    1
    20    19    20    1
    21    18    27    1
    22    20    21    2
    23    27    26    2
    24    27    21    1
    25    26    25    1
    26    21    22    1
    27    25    24    1
    28    22    24    2
    29    22    23    1
