@<TRIPOS>MOLECULE
2pyy_GLU_A_1.pdb
 10 9 0 0 0
SMALL
GASTEIGER

@<TRIPOS>ATOM
      1  N         53.2820   21.0470   34.2300 N.3   1620  GLU1620    -0.1208
      2  CA        54.6110   21.4180   34.8000 C.3   1620  GLU1620     0.1949
      3  C         54.5400   22.8220   35.4090 C.2   1620  GLU1620     0.3819
      4  O         53.7400   23.6430   34.9140 O.co2 1620  GLU1620    -0.2441
      5  CB        55.6930   21.3900   33.7010 C.3   1620  GLU1620     0.0424
      6  CG        57.0950   21.6210   34.2370 C.3   1620  GLU1620     0.1161
      7  CD        58.1510   21.7090   33.1530 C.2   1620  GLU1620     0.3649
      8  OE1       59.3510   21.7900   33.5010 O.co2 1620  GLU1620    -0.2457
      9  OE2       57.7870   21.7060   31.9610 O.co2 1620  GLU1620    -0.2457
     10  OXT       55.2870   23.0940   36.3700 O.co2 1620  GLU1620    -0.2441
@<TRIPOS>BOND
     1     9     7   ar
     2     7     8   ar
     3     7     6    1
     4     5     6    1
     5     5     2    1
     6     1     2    1
     7     2     3    1
     8     4     3   ar
     9     3    10   ar
