@<TRIPOS>MOLECULE
2pyz_AU4_A_1.pdb
 20 21 0 0 0
SMALL
GASTEIGER

@<TRIPOS>ATOM
      1  C14      -18.2310   20.4020   16.1530 C.3   401  AU4401      0.1122
      2  N15      -16.8490   20.4550   16.6060 N.pl3 401  AU4401     -0.3041
      3  C15      -16.4790   21.0330   17.9040 C.3   401  AU4401      0.1122
      4  C12      -15.9010   19.8690   15.8000 C.ar  401  AU4401      0.0479
      5  C7       -16.0500   19.2900   14.5380 C.ar  401  AU4401      0.0143
      6  C8       -14.9830   18.7400   13.7820 C.ar  401  AU4401     -0.0013
      7  C11      -14.5700   19.9070   16.1290 C.ar  401  AU4401      0.0143
      8  C10      -13.5300   19.3110   15.4070 C.ar  401  AU4401     -0.0013
      9  C9       -13.6660   18.6820   14.2010 C.ar  401  AU4401     -0.0007
     10  C13      -12.5670   18.1470   13.3540 C.3   401  AU4401      0.1362
     11  N8       -12.9000   17.2710   12.2810 N.3   401  AU4401     -0.1233
     12  C4       -11.1910   18.1020   13.8760 C.ar  401  AU4401     -0.0007
     13  C5       -10.1330   17.5930   13.1710 C.ar  401  AU4401     -0.0013
     14  C6        -8.7990   17.6290   13.6280 C.ar  401  AU4401      0.0143
     15  C1        -8.3620   18.1860   14.8280 C.ar  401  AU4401      0.0479
     16  C2        -9.4400   18.7040   15.4850 C.ar  401  AU4401      0.0143
     17  C3       -10.7590   18.6780   15.0370 C.ar  401  AU4401     -0.0013
     18  N16       -7.0920   18.2530   15.3290 N.pl3 401  AU4401     -0.3041
     19  C17       -6.8380   18.8910   16.6240 C.3   401  AU4401      0.1122
     20  C16       -6.0190   17.6730   14.5320 C.3   401  AU4401      0.1122
@<TRIPOS>BOND
     1    11    10    1
     2    13    14   ar
     3    13    12   ar
     4    10    12    1
     5    10     9    1
     6    14    15   ar
     7     6     9   ar
     8     6     5   ar
     9    12    17   ar
    10     9     8   ar
    11    20    18    1
    12     5     4   ar
    13    15    18    1
    14    15    16   ar
    15    17    16   ar
    16    18    19    1
    17     8     7   ar
    18     4     7   ar
    19     4     2    1
    20     1     2    1
    21     2     3    1
