@<TRIPOS>MOLECULE
2pz5_ACP_A_1.pdb
 31 33 0 0 0
SMALL
GASTEIGER

@<TRIPOS>ATOM
      1  PG        31.3910   17.3170   15.1380 P.3   300  ACP300      0.1295
      2  O1G       32.5150   17.5630   14.1840 O.2   300  ACP300     -0.4595
      3  O2G       30.1350   17.8310   14.6180 O.3   300  ACP300     -0.3567
      4  O3G       31.4030   15.9520   15.6530 O.3   300  ACP300     -0.3567
      5  PB        30.5940   18.3070   18.0050 P.3   300  ACP300      0.3815
      6  O1B       29.2060   18.5490   17.5610 O.2   300  ACP300     -0.2547
      7  O2B       31.2070   19.2440   18.9480 O.3   300  ACP300     -0.1391
      8  C3B       31.6170   18.1990   16.6070 C.3   300  ACP300      0.1768
      9  PA        29.8450   15.8340   19.1920 P.3   300  ACP300      0.2209
     10  O1A       29.5860   14.8420   18.1440 O.2   300  ACP300     -0.5170
     11  O2A       28.6890   16.4280   19.8940 O.3   300  ACP300     -0.4371
     12  O3A       30.7600   16.9390   18.6630 O.3   300  ACP300     -0.2483
     13  O5'       30.8580   15.1270   20.2390 O.3   300  ACP300     -0.3111
     14  C5'       32.1770   14.7750   19.8190 C.3   300  ACP300      0.1813
     15  C4'       32.7160   13.6690   20.6920 C.3   300  ACP300      0.1821
     16  O4'       32.8220   14.1450   22.0640 O.3   300  ACP300     -0.3135
     17  C3'       31.8270   12.4400   20.7950 C.3   300  ACP300      0.2184
     18  O3'       32.0410   11.5540   19.7020 O.3   300  ACP300     -0.2174
     19  C2'       32.2830   11.8380   22.1160 C.3   300  ACP300      0.2570
     20  O2'       33.5060   11.1450   21.9850 O.3   300  ACP300     -0.2130
     21  C1'       32.4850   13.0970   22.9650 C.3   300  ACP300      0.3186
     22  N9        31.2660   13.4840   23.6800 N.pl3 300  ACP300     -0.1439
     23  C8        30.3470   14.4230   23.2970 C.3   300  ACP300      0.3377
     24  N7        29.3250   14.5280   24.1110 N.2   300  ACP300     -0.2095
     25  C5        29.5940   13.6020   25.1040 C.2   300  ACP300      0.2526
     26  C6        28.8760   13.2190   26.2510 C.2   300  ACP300      0.4393
     27  N6        27.7140   13.7670   26.6070 N.pl3 300  ACP300      0.2180
     28  N1        29.4030   12.2490   27.0260 N.2   300  ACP300      0.0021
     29  C2        30.5800   11.7150   26.6690 C.3   300  ACP300      0.5254
     30  N3        31.3540   11.9970   25.6170 N.2   300  ACP300     -0.0055
     31  C4        30.7930   12.9570   24.8620 C.2   300  ACP300      0.3518
@<TRIPOS>BOND
     1     2     1    2
     2     3     1    1
     3     1     4    1
     4     1     8    1
     5     8     5    1
     6     6     5    2
     7     5    12    1
     8     5     7    1
     9    10     9    2
    10    12     9    1
    11     9    11    1
    12     9    13    1
    13    18    17    1
    14    14    13    1
    15    14    15    1
    16    15    17    1
    17    15    16    1
    18    17    19    1
    19    20    19    1
    20    16    21    1
    21    19    21    1
    22    21    22    1
    23    23    22    1
    24    23    24    1
    25    22    31    1
    26    24    25    2
    27    31    25    1
    28    31    30    2
    29    25    26    1
    30    30    29    1
    31    26    27    1
    32    26    28    2
    33    29    28    1
