@<TRIPOS>MOLECULE
2pz8_APC_A_1.pdb
 31 33 0 0 0
SMALL
GASTEIGER

@<TRIPOS>ATOM
      1  PG        37.5450  -15.9140   -4.9430 P.3   3001  APC3001     0.5389
      2  O1G       36.5900  -14.8680   -4.4820 O.2   3001  APC3001    -0.2220
      3  O2G       36.8370  -17.1240   -4.4540 O.3   3001  APC3001    -0.1143
      4  O3G       38.8970  -15.7660   -4.3520 O.3   3001  APC3001    -0.1143
      5  PB        36.8840  -15.3130   -7.4290 P.3   3001  APC3001     0.3895
      6  O1B       37.3670  -15.3560   -8.8230 O.2   3001  APC3001    -0.2544
      7  O2B       36.5710  -13.8740   -7.2830 O.3   3001  APC3001    -0.1388
      8  O3B       37.9370  -15.9140   -6.4340 O.3   3001  APC3001    -0.2026
      9  PA        33.8840  -15.3410   -7.0980 P.3   3001  APC3001     0.3820
     10  O1A       34.0150  -14.3860   -5.9680 O.3   3001  APC3001    -0.1392
     11  O2A       32.8070  -16.2690   -6.6670 O.2   3001  APC3001    -0.2548
     12  C3A       35.3930  -16.2870   -7.3580 C.3   3001  APC3001     0.2357
     13  O5'       33.3970  -14.6370   -8.4450 O.3   3001  APC3001    -0.2896
     14  C5'       32.9400  -15.4450   -9.5340 C.3   3001  APC3001     0.1836
     15  C4'       33.4810  -14.9270  -10.8430 C.3   3001  APC3001     0.1822
     16  O4'       32.8340  -13.6900  -11.2180 O.3   3001  APC3001    -0.3135
     17  C3'       34.9510  -14.5630  -10.8200 C.3   3001  APC3001     0.2184
     18  O3'       35.7680  -15.7200  -10.8550 O.3   3001  APC3001    -0.2174
     19  C2'       35.0530  -13.6410  -12.0290 C.3   3001  APC3001     0.2570
     20  O2'       35.2290  -14.3630  -13.2430 O.3   3001  APC3001    -0.2130
     21  C1'       33.7210  -12.8430  -11.9480 C.3   3001  APC3001     0.3186
     22  N9        33.8820  -11.5960  -11.1720 N.pl3 3001  APC3001    -0.1439
     23  C8        33.3290  -11.2800   -9.9320 C.3   3001  APC3001     0.3377
     24  N7        33.6520  -10.0900   -9.4840 N.2   3001  APC3001    -0.2095
     25  C5        34.4630   -9.5720  -10.4850 C.2   3001  APC3001     0.2526
     26  C6        35.1380   -8.3300  -10.6310 C.2   3001  APC3001     0.4393
     27  N6        35.0900   -7.3580   -9.7100 N.pl3 3001  APC3001     0.2180
     28  N1        35.8790   -8.1170  -11.7760 N.2   3001  APC3001     0.0021
     29  C2        35.9380   -9.0970  -12.7130 C.3   3001  APC3001     0.5254
     30  N3        35.3450  -10.3090  -12.6810 N.2   3001  APC3001    -0.0055
     31  C4        34.6180  -10.4870  -11.5350 C.2   3001  APC3001     0.3518
@<TRIPOS>BOND
     1    20    19    1
     2    29    30    1
     3    29    28    1
     4    30    31    2
     5    19    21    1
     6    19    17    1
     7    21    16    1
     8    21    22    1
     9    28    26    2
    10    31    22    1
    11    31    25    1
    12    16    15    1
    13    22    23    1
    14    18    17    1
    15    15    17    1
    16    15    14    1
    17    26    25    1
    18    26    27    1
    19    25    24    2
    20    23    24    1
    21    14    13    1
    22     6     5    2
    23    13     9    1
    24     5    12    1
    25     5     7    1
    26     5     8    1
    27    12     9    1
    28     9    11    2
    29     9    10    1
    30     8     1    1
    31     1     2    2
    32     1     3    1
    33     1     4    1
