@<TRIPOS>MOLECULE
2pza_AMP_A_1.pdb
 23 25 0 0 0
SMALL
GASTEIGER

@<TRIPOS>ATOM
      1  P         32.9160  -15.1680   -6.9230 P.3   4000  AMP4000     0.5327
      2  O1P       33.2810  -16.6120   -6.8020 O.2   4000  AMP4000    -0.2224
      3  O2P       31.4970  -14.8990   -6.4570 O.3   4000  AMP4000    -0.1145
      4  O3P       33.9130  -14.2340   -6.0420 O.3   4000  AMP4000    -0.1145
      5  O5'       33.0990  -14.7410   -8.3630 O.3   4000  AMP4000    -0.2675
      6  C5'       32.8300  -15.6200   -9.4760 C.3   4000  AMP4000     0.1860
      7  C4'       33.3520  -15.1250  -10.8250 C.3   4000  AMP4000     0.1823
      8  O4'       32.7200  -13.8800  -11.1990 O.3   4000  AMP4000    -0.3135
      9  C3'       34.8230  -14.7780  -10.8530 C.3   4000  AMP4000     0.2184
     10  O3'       35.5620  -15.9910  -10.8550 O.3   4000  AMP4000    -0.2174
     11  C2'       34.8940  -13.8640  -12.0940 C.3   4000  AMP4000     0.2570
     12  O2'       35.0280  -14.5110  -13.3620 O.3   4000  AMP4000    -0.2130
     13  C1'       33.6010  -13.0670  -11.9810 C.3   4000  AMP4000     0.3186
     14  N9        33.7950  -11.8120  -11.2690 N.pl3 4000  AMP4000    -0.1439
     15  C8        33.2660  -11.5250  -10.0420 C.3   4000  AMP4000     0.3377
     16  N7        33.5660  -10.3430   -9.6110 N.2   4000  AMP4000    -0.2095
     17  C5        34.3370   -9.8050  -10.6240 C.2   4000  AMP4000     0.2526
     18  C6        34.9870   -8.5330  -10.7990 C.2   4000  AMP4000     0.4393
     19  N6        34.9470   -7.5370   -9.9000 N.pl3 4000  AMP4000     0.2180
     20  N1        35.6780   -8.3250  -11.9450 N.2   4000  AMP4000     0.0021
     21  C2        35.7340   -9.3060  -12.8650 C.3   4000  AMP4000     0.5254
     22  N3        35.1740  -10.5390  -12.8230 N.2   4000  AMP4000    -0.0055
     23  C4        34.4870  -10.7100  -11.6550 C.2   4000  AMP4000     0.3518
@<TRIPOS>BOND
     1    12    11    1
     2    21    22    1
     3    21    20    1
     4    22    23    2
     5    11    13    1
     6    11     9    1
     7    13    14    1
     8    13     8    1
     9    20    18    2
    10    23    14    1
    11    23    17    1
    12    14    15    1
    13     8     7    1
    14    10     9    1
    15     9     7    1
    16     7     6    1
    17    18    17    1
    18    18    19    1
    19    17    16    2
    20    15    16    1
    21     6     5    1
    22     5     1    1
    23     1     2    2
    24     1     3    1
    25     1     4    1
