@<TRIPOS>MOLECULE
2pze_ATP_A_1.pdb
 31 33 0 0 0
SMALL
GASTEIGER

@<TRIPOS>ATOM
      1  PG         4.7290   11.3860   66.7250 P.3     1  ATP1        0.5373
      2  O1G        3.2550   11.4140   67.0610 O.3     1  ATP1       -0.1143
      3  O2G        5.3970   10.1560   67.1990 O.3     1  ATP1       -0.1143
      4  O3G        5.0000   11.6920   65.2620 O.2     1  ATP1       -0.2221
      5  PB         5.7660   12.9540   68.9870 P.3     1  ATP1        0.2277
      6  O1B        4.7310   13.8440   69.5970 O.3     1  ATP1       -0.4368
      7  O2B        6.1270   11.6330   69.5850 O.2     1  ATP1       -0.5168
      8  O3B        5.3470   12.6900   67.4350 O.3     1  ATP1       -0.2258
      9  PA         8.6120   13.6340   69.3320 P.3     1  ATP1        0.2189
     10  O1A        9.2110   12.3750   68.8440 O.2     1  ATP1       -0.5170
     11  O2A        8.5480   13.9380   70.7850 O.3     1  ATP1       -0.4371
     12  O3A        7.1030   13.8360   68.7990 O.3     1  ATP1       -0.2700
     13  O5'        9.3810   14.8780   68.6200 O.3     1  ATP1       -0.3112
     14  C5'        9.1610   16.2370   68.9420 C.3     1  ATP1        0.1813
     15  C4'       10.1960   16.9780   68.0950 C.3     1  ATP1        0.1821
     16  O4'       11.5010   16.7330   68.6310 O.3     1  ATP1       -0.3135
     17  C3'       10.2470   16.4930   66.6450 C.3     1  ATP1        0.2184
     18  O3'       10.3130   17.6380   65.7830 O.3     1  ATP1       -0.2174
     19  C2'       11.5030   15.6530   66.5110 C.3     1  ATP1        0.2570
     20  O2'       12.1900   15.8570   65.2720 O.3     1  ATP1       -0.2130
     21  C1'       12.3700   16.1240   67.6600 C.3     1  ATP1        0.3186
     22  N9        13.1160   15.0060   68.2850 N.pl3   1  ATP1       -0.1439
     23  C8        12.5860   13.8880   68.7990 C.3     1  ATP1        0.3377
     24  N7        13.5500   13.0870   69.3210 N.2     1  ATP1       -0.2095
     25  C5        14.7280   13.7160   69.1560 C.2     1  ATP1        0.2526
     26  C6        16.1490   13.4280   69.4680 C.2     1  ATP1        0.4393
     27  N6        16.4950   12.2800   70.0910 N.pl3   1  ATP1        0.2180
     28  N1        17.0760   14.3570   69.1010 N.2     1  ATP1        0.0021
     29  C2        16.7420   15.5020   68.4690 C.3     1  ATP1        0.5254
     30  N3        15.4690   15.8190   68.1520 N.2     1  ATP1       -0.0055
     31  C4        14.4410   14.9820   68.4660 C.2     1  ATP1        0.3518
@<TRIPOS>BOND
     1     4     1    2
     2    20    19    1
     3    18    17    1
     4    19    17    1
     5    19    21    1
     6    17    15    1
     7     1     2    1
     8     1     3    1
     9     1     8    1
    10     8     5    1
    11    21    22    1
    12    21    16    1
    13    15    16    1
    14    15    14    1
    15    30    31    2
    16    30    29    1
    17    22    31    1
    18    22    23    1
    19    31    25    1
    20    29    28    1
    21    13    14    1
    22    13     9    1
    23    23    24    1
    24    12     5    1
    25    12     9    1
    26    10     9    2
    27     5     7    2
    28     5     6    1
    29    28    26    2
    30    25    24    2
    31    25    26    1
    32     9    11    1
    33    26    27    1
