@<TRIPOS>MOLECULE
2pzf_ATP_A_1.pdb
 31 33 0 0 0
SMALL
GASTEIGER

@<TRIPOS>ATOM
      1  PG         4.6440   11.4820   66.0280 P.3     1  ATP1        0.5373
      2  O1G        3.1880   11.5410   66.4230 O.3     1  ATP1       -0.1143
      3  O2G        5.3920   10.2620   66.5580 O.3     1  ATP1       -0.1143
      4  O3G        4.9010   11.7700   64.5710 O.2     1  ATP1       -0.2221
      5  PB         5.8270   13.0100   68.2930 P.3     1  ATP1        0.2277
      6  O1B        4.8450   14.0110   68.8620 O.2     1  ATP1       -0.5168
      7  O2B        6.0840   11.7160   68.9800 O.3     1  ATP1       -0.4368
      8  O3B        5.3750   12.7560   66.7330 O.3     1  ATP1       -0.2258
      9  PA         8.6490   13.5910   68.6400 P.3     1  ATP1        0.2189
     10  O1A        9.1640   12.2740   68.1800 O.2     1  ATP1       -0.5170
     11  O2A        8.6410   13.9730   70.0880 O.3     1  ATP1       -0.4371
     12  O3A        7.1730   13.8440   68.0500 O.3     1  ATP1       -0.2700
     13  O5'        9.3680   14.7370   67.8190 O.3     1  ATP1       -0.3112
     14  C5'        9.2660   16.1180   68.2300 C.3     1  ATP1        0.1813
     15  C4'       10.3190   16.8860   67.4340 C.3     1  ATP1        0.1821
     16  O4'       11.6090   16.6150   67.9790 O.3     1  ATP1       -0.3135
     17  C3'       10.3640   16.4150   65.9770 C.3     1  ATP1        0.2184
     18  O3'       10.5760   17.5150   65.1070 O.3     1  ATP1       -0.2174
     19  C2'       11.5760   15.5250   65.8710 C.3     1  ATP1        0.2570
     20  O2'       12.2380   15.6700   64.6180 O.3     1  ATP1       -0.2130
     21  C1'       12.4560   15.9720   67.0180 C.3     1  ATP1        0.3186
     22  N9        13.1110   14.8000   67.6430 N.pl3   1  ATP1       -0.1439
     23  C8        12.5220   13.7010   68.1420 C.3     1  ATP1        0.3377
     24  N7        13.4490   12.8480   68.6390 N.2     1  ATP1       -0.2095
     25  C5        14.6600   13.4090   68.4590 C.2     1  ATP1        0.2526
     26  C6        16.0710   13.0570   68.7560 C.2     1  ATP1        0.4393
     27  N6        16.3940   11.8860   69.3640 N.pl3   1  ATP1        0.2180
     28  N1        17.0210   13.9470   68.3860 N.2     1  ATP1        0.0021
     29  C2        16.7420   15.1190   67.7750 C.3     1  ATP1        0.5254
     30  N3        15.4840   15.4960   67.4840 N.2     1  ATP1       -0.0055
     31  C4        14.4310   14.6940   67.7930 C.2     1  ATP1        0.3518
@<TRIPOS>BOND
     1     4     1    2
     2    20    19    1
     3    18    17    1
     4    19    17    1
     5    19    21    1
     6    17    15    1
     7     1     2    1
     8     1     3    1
     9     1     8    1
    10     8     5    1
    11    21    22    1
    12    21    16    1
    13    15    16    1
    14    15    14    1
    15    30    29    1
    16    30    31    2
    17    22    31    1
    18    22    23    1
    19    29    28    1
    20    31    25    1
    21    13    14    1
    22    13     9    1
    23    12     5    1
    24    12     9    1
    25    23    24    1
    26    10     9    2
    27     5     6    2
    28     5     7    1
    29    28    26    2
    30    25    24    2
    31    25    26    1
    32     9    11    1
    33    26    27    1
