@<TRIPOS>MOLECULE
2pzg_ATP_A_1.pdb
 31 33 0 0 0
SMALL
GASTEIGER

@<TRIPOS>ATOM
      1  PG        -3.7500   20.1210    7.0430 P.3     1  ATP1        0.5373
      2  O1G       -2.7980   19.0310    7.5310 O.3     1  ATP1       -0.1143
      3  O2G       -3.3960   20.7010    5.7060 O.2     1  ATP1       -0.2221
      4  O3G       -5.1750   19.5580    7.0310 O.3     1  ATP1       -0.1143
      5  PB        -2.7020   22.4440    8.5220 P.3     1  ATP1        0.2277
      6  O1B       -1.8260   21.9880    9.6720 O.3     1  ATP1       -0.4368
      7  O2B       -2.1970   22.9440    7.2060 O.2     1  ATP1       -0.5168
      8  O3B       -3.8110   21.2900    8.1730 O.3     1  ATP1       -0.2258
      9  PA        -4.1110   24.9500    8.6870 P.3     1  ATP1        0.2189
     10  O1A       -4.6640   24.8800    7.2990 O.2     1  ATP1       -0.5170
     11  O2A       -2.9700   25.9010    8.9760 O.3     1  ATP1       -0.4371
     12  O3A       -3.6810   23.5000    9.2140 O.3     1  ATP1       -0.2700
     13  O5'       -5.3530   25.2160    9.6980 O.3     1  ATP1       -0.3112
     14  C5'       -5.4010   26.2730   10.6540 C.3     1  ATP1        0.1813
     15  C4'       -6.6570   27.1540   10.4800 C.3     1  ATP1        0.1821
     16  O4'       -6.3890   28.2430    9.5840 O.3     1  ATP1       -0.3135
     17  C3'       -7.8440   26.4230    9.8760 C.3     1  ATP1        0.2184
     18  O3'       -9.0360   26.8430   10.5260 O.3     1  ATP1       -0.2174
     19  C2'       -7.9310   26.9020    8.4430 C.3     1  ATP1        0.2570
     20  O2'       -9.2880   26.9340    7.9860 O.3     1  ATP1       -0.2130
     21  C1'       -7.2950   28.2840    8.4720 C.3     1  ATP1        0.3186
     22  N9        -6.5690   28.5770    7.2040 N.pl3   1  ATP1       -0.1439
     23  C8        -5.6110   27.8240    6.6230 C.3     1  ATP1        0.3377
     24  N7        -5.1410   28.3760    5.4720 N.2     1  ATP1       -0.2095
     25  C5        -5.8210   29.5290    5.2940 C.2     1  ATP1        0.2526
     26  C6        -5.8400   30.6190    4.2810 C.2     1  ATP1        0.4393
     27  N6        -5.0220   30.5990    3.1980 N.pl3   1  ATP1        0.2180
     28  N1        -6.7000   31.6520    4.4810 N.2     1  ATP1        0.0021
     29  C2        -7.5250   31.7010    5.5450 C.3     1  ATP1        0.5254
     30  N3        -7.5580   30.7520    6.4950 N.2     1  ATP1       -0.0055
     31  C4        -6.7510   29.6570    6.4360 C.2     1  ATP1        0.3518
@<TRIPOS>BOND
     1    27    26    1
     2    26    28    2
     3    26    25    1
     4    28    29    1
     5    25    24    2
     6    25    31    1
     7    24    23    1
     8    29    30    1
     9     3     1    2
    10    31    30    2
    11    31    22    1
    12    23    22    1
    13     4     1    1
    14     1     2    1
    15     1     8    1
    16    22    21    1
    17     7     5    2
    18    10     9    2
    19    20    19    1
    20     8     5    1
    21    19    21    1
    22    19    17    1
    23    21    16    1
    24     5    12    1
    25     5     6    1
    26     9    11    1
    27     9    12    1
    28     9    13    1
    29    16    15    1
    30    13    14    1
    31    17    15    1
    32    17    18    1
    33    15    14    1
