@<TRIPOS>MOLECULE
2pzi_AXX_A_1.pdb
 18 20 0 0 0
SMALL
GASTEIGER

@<TRIPOS>ATOM
      1  O5        19.0850   -9.2450   -3.5240 O.2   753  AXX753     -0.2730
      2  C4        19.7770   -9.5920   -2.5650 C.2   753  AXX753      0.2455
      3  C2        19.2850   -9.4500   -1.1400 C.3   753  AXX753      0.0786
      4  C3        17.8680  -10.0160   -1.0820 C.3   753  AXX753      0.0096
      5  C1        18.0840   -8.5070   -1.0200 C.3   753  AXX753      0.0096
      6  N6        20.9900  -10.1370   -2.6880 N.am  753  AXX753     -0.1725
      7  C7        21.6850  -10.2130   -3.8520 C.ar  753  AXX753      0.1066
      8  S11       21.1860   -9.6150   -5.3790 S.2   753  AXX753     -0.0750
      9  C10       22.6330  -10.1400   -6.1760 C.ar  753  AXX753      0.0047
     10  C18       22.7630   -9.8720   -7.6470 C.3   753  AXX753      0.0327
     11  C17       24.2540   -9.9470   -7.9610 C.3   753  AXX753      0.0055
     12  C16       24.9120  -11.1980   -7.3740 C.3   753  AXX753      0.0050
     13  C15       24.8280  -11.3200   -5.8510 C.3   753  AXX753      0.0268
     14  C9        23.5100  -10.7990   -5.3290 C.ar  753  AXX753     -0.0139
     15  C8        23.0100  -10.8400   -4.0050 C.ar  753  AXX753      0.0743
     16  C12       23.6740  -11.4560   -2.8350 C.2   753  AXX753      0.2856
     17  O13       23.0170  -11.5090   -1.8100 O.2   753  AXX753     -0.2666
     18  N14       24.9140  -11.9240   -2.9420 N.am  753  AXX753     -0.0837
@<TRIPOS>BOND
     1    11    10    1
     2    11    12    1
     3    10     9    1
     4    12    13    1
     5     9     8   ar
     6     9    14   ar
     7    13    14    1
     8     8     7   ar
     9    14    15   ar
    10    15     7   ar
    11    15    16    1
    12     7     6    1
    13     1     2    2
    14    18    16   am
    15    16    17    2
    16     6     2   am
    17     2     3    1
    18     3     4    1
    19     3     5    1
    20     4     5    1
