@<TRIPOS>MOLECULE
2pzj_NAD_A_1.pdb
 44 48 0 0 0
SMALL
GASTEIGER

@<TRIPOS>ATOM
      1  PA        17.0870   12.8990   15.6220 P.3   358  NAD358      0.2189
      2  O1A       16.9000   12.2560   16.9280 O.3   358  NAD358     -0.4371
      3  O2A       16.0380   12.6280   14.6020 O.2   358  NAD358     -0.5170
      4  O5B       18.4750   12.5210   14.9470 O.3   358  NAD358     -0.3112
      5  C5B       19.6410   12.1200   15.6190 C.3   358  NAD358      0.1813
      6  C4B       20.0120   10.7390   15.1260 C.3   358  NAD358      0.1821
      7  O4B       21.1350   10.2810   15.8460 O.3   358  NAD358     -0.3135
      8  C3B       18.8940    9.6590   15.2450 C.3   358  NAD358      0.2184
      9  O3B       18.6240    9.0990   13.9630 O.3   358  NAD358     -0.2174
     10  C2B       19.4980    8.6570   16.2270 C.3   358  NAD358      0.2570
     11  O2B       19.1160    7.3030   16.0540 O.3   358  NAD358     -0.2130
     12  C1B       21.0010    8.8790   15.9750 C.3   358  NAD358      0.3186
     13  N9A       21.8820    8.3810   17.0190 N.pl3 358  NAD358     -0.1439
     14  C8A       21.7170    8.4390   18.3860 C.3   358  NAD358      0.3377
     15  N7A       22.7840    7.8720   18.9940 N.2   358  NAD358     -0.2095
     16  C5A       23.6140    7.4640   18.0320 C.2   358  NAD358      0.2526
     17  C6A       24.8310    6.8480   18.0990 C.2   358  NAD358      0.4393
     18  N6A       25.3810    6.5720   19.2510 N.pl3 358  NAD358      0.2180
     19  N1A       25.4800    6.5340   16.9110 N.2   358  NAD358      0.0021
     20  C2A       24.8990    6.8490   15.7020 C.3   358  NAD358      0.5254
     21  N3A       23.6750    7.4670   15.6220 N.2   358  NAD358     -0.0055
     22  C4A       23.0670    7.7760   16.7900 C.2   358  NAD358      0.3518
     23  O3        17.1120   14.4770   15.9020 O.3   358  NAD358     -0.2703
     24  PN        17.3710   15.6770   14.8590 P.3   358  NAD358      0.2189
     25  O1N       16.4820   16.7210   15.2820 O.3   358  NAD358     -0.4371
     26  O2N       17.4370   15.1960   13.4690 O.2   358  NAD358     -0.5170
     27  O5D       18.9010   16.0900   15.2830 O.3   358  NAD358     -0.3112
     28  C5D       19.9950   16.1000   14.3830 C.3   358  NAD358      0.1813
     29  C4D       21.1170   17.0250   14.9300 C.3   358  NAD358      0.1799
     30  O4D       20.6770   18.3760   14.9400 O.3   358  NAD358     -0.3327
     31  C3D       21.5270   16.6860   16.3630 C.3   358  NAD358      0.2158
     32  O3D       22.9430   16.6980   16.5410 O.3   358  NAD358     -0.2175
     33  C2D       20.8040   17.7150   17.1940 C.3   358  NAD358      0.2309
     34  O2D       21.3640   17.8990   18.5160 O.3   358  NAD358     -0.2158
     35  C1D       20.9110   18.8980   16.2320 C.3   358  NAD358      0.2263
     36  N1N       19.9400   19.9290   16.4300 N.pl3 358  NAD358     -0.2787
     37  C2N       18.6240   19.7060   16.1220 C.3   358  NAD358      0.1244
     38  C3N       17.7030   20.7390   16.3250 C.2   358  NAD358      0.0544
     39  C7N       16.2640   20.6170   15.8980 C.2   358  NAD358      0.2818
     40  O7N       15.4360   21.6630   16.1710 O.2   358  NAD358     -0.2670
     41  N7N       15.8210   19.5370   15.2900 N.am  358  NAD358     -0.0839
     42  C4N       18.1360   21.9830   16.8040 C.2   358  NAD358      0.0033
     43  C5N       19.4930   22.1940   17.0870 C.2   358  NAD358      0.0157
     44  C6N       20.3880   21.1650   16.8790 C.2   358  NAD358      0.0633
@<TRIPOS>BOND
     1    26    24    2
     2     9     8    1
     3    28    29    1
     4    28    27    1
     5     3     1    2
     6    24    25    1
     7    24    27    1
     8    24    23    1
     9    29    30    1
    10    29    31    1
    11    30    35    1
    12     4     5    1
    13     4     1    1
    14     6     8    1
    15     6     5    1
    16     6     7    1
    17     8    10    1
    18    41    39   am
    19    21    20    1
    20    21    22    2
    21     1    23    1
    22     1     2    1
    23    20    19    1
    24     7    12    1
    25    39    40    2
    26    39    38    1
    27    12    10    1
    28    12    13    1
    29    11    10    1
    30    37    38    1
    31    37    36    1
    32    35    36    1
    33    35    33    1
    34    38    42    2
    35    31    32    1
    36    31    33    1
    37    36    44    1
    38    22    13    1
    39    22    16    1
    40    42    43    1
    41    44    43    2
    42    19    17    2
    43    13    14    1
    44    33    34    1
    45    16    17    1
    46    16    15    2
    47    17    18    1
    48    14    15    1
