@<TRIPOS>MOLECULE
2pzk_NAD_A_1.pdb
 44 48 0 0 0
SMALL
GASTEIGER

@<TRIPOS>ATOM
      1  PA        58.4630   20.9560   43.2770 P.3   401  NAD401      0.2189
      2  O1A       58.3740   20.7220   41.8200 O.2   401  NAD401     -0.5170
      3  O2A       57.4630   20.1820   44.0700 O.3   401  NAD401     -0.4371
      4  O5B       59.9340   20.5490   43.6900 O.3   401  NAD401     -0.3112
      5  C5B       60.3170   20.2930   45.0250 C.3   401  NAD401      0.1813
      6  C4B       61.1740   19.0260   44.9080 C.3   401  NAD401      0.1821
      7  O4B       61.6780   18.6420   46.1580 O.3   401  NAD401     -0.3135
      8  C3B       60.3780   17.8350   44.3830 C.3   401  NAD401      0.2184
      9  O3B       61.0320   17.3810   43.2290 O.3   401  NAD401     -0.2174
     10  C2B       60.3880   16.8210   45.5130 C.3   401  NAD401      0.2570
     11  O2B       60.4770   15.4740   45.0650 O.3   401  NAD401     -0.2130
     12  C1B       61.6280   17.2370   46.2830 C.3   401  NAD401      0.3186
     13  N9A       61.6320   16.8850   47.7210 N.pl3 401  NAD401     -0.1439
     14  C8A       60.6230   16.9930   48.6390 C.3   401  NAD401      0.3377
     15  N7A       61.1040   16.5960   49.8330 N.2   401  NAD401     -0.2095
     16  C5A       62.4030   16.2590   49.7120 C.2   401  NAD401      0.2526
     17  C6A       63.3720   15.7800   50.6040 C.2   401  NAD401      0.4393
     18  N6A       63.1270   15.5150   51.9050 N.pl3 401  NAD401      0.2180
     19  N1A       64.6370   15.5140   50.1020 N.2   401  NAD401      0.0021
     20  C2A       64.9620   15.7400   48.7680 C.3   401  NAD401      0.5254
     21  N3A       63.9920   16.1900   47.9110 N.2   401  NAD401     -0.0055
     22  C4A       62.7440   16.4470   48.3740 C.2   401  NAD401      0.3518
     23  O3        58.2320   22.5250   43.5230 O.3   401  NAD401     -0.2703
     24  PN        58.9240   23.7840   42.7790 P.3   401  NAD401      0.2189
     25  O1N       57.8470   24.6450   42.2360 O.3   401  NAD401     -0.4371
     26  O2N       59.9760   23.3160   41.8440 O.2   401  NAD401     -0.5170
     27  O5D       59.6140   24.6030   43.9680 O.3   401  NAD401     -0.3112
     28  C5D       61.0090   24.4810   44.2570 C.3   401  NAD401      0.1813
     29  C4D       61.3970   25.4420   45.3830 C.3   401  NAD401      0.1799
     30  O4D       60.9480   26.7640   45.1040 O.3   401  NAD401     -0.3327
     31  C3D       60.7090   25.0220   46.6600 C.3   401  NAD401      0.2158
     32  O3D       61.5970   25.2040   47.7300 O.3   401  NAD401     -0.2175
     33  C2D       59.5450   25.9860   46.7470 C.3   401  NAD401      0.2309
     34  O2D       59.0820   26.1500   48.0750 O.3   401  NAD401     -0.2158
     35  C1D       60.1240   27.2540   46.1380 C.3   401  NAD401      0.2263
     36  N1N       59.1260   28.1190   45.5020 N.pl3 401  NAD401     -0.2787
     37  C2N       58.5920   27.7480   44.2830 C.3   401  NAD401      0.1244
     38  C3N       57.6460   28.5420   43.6660 C.2   401  NAD401      0.0544
     39  C7N       57.2220   28.2840   42.2580 C.2   401  NAD401      0.2818
     40  O7N       56.5210   29.3220   41.6800 O.2   401  NAD401     -0.2670
     41  N7N       57.4750   27.1550   41.5830 N.am  401  NAD401     -0.0839
     42  C4N       57.2530   29.7370   44.2860 C.2   401  NAD401      0.0033
     43  C5N       57.8040   30.0900   45.5130 C.2   401  NAD401      0.0157
     44  C6N       58.7370   29.2670   46.1190 C.2   401  NAD401      0.0633
@<TRIPOS>BOND
     1    41    39   am
     2    40    39    2
     3     2     1    2
     4    26    24    2
     5    25    24    1
     6    39    38    1
     7    24    23    1
     8    24    27    1
     9     9     8    1
    10     1    23    1
    11     1     4    1
    12     1     3    1
    13    38    37    1
    14    38    42    2
    15     4     5    1
    16    27    28    1
    17    28    29    1
    18    37    36    1
    19    42    43    1
    20     8     6    1
    21     8    10    1
    22     6     5    1
    23     6     7    1
    24    11    10    1
    25    30    29    1
    26    30    35    1
    27    29    31    1
    28    36    44    1
    29    36    35    1
    30    10    12    1
    31    43    44    2
    32    35    33    1
    33     7    12    1
    34    12    13    1
    35    31    33    1
    36    31    32    1
    37    33    34    1
    38    13    22    1
    39    13    14    1
    40    21    22    2
    41    21    20    1
    42    22    16    1
    43    14    15    1
    44    20    19    1
    45    16    15    2
    46    16    17    1
    47    19    17    2
    48    17    18    1
