@<TRIPOS>MOLECULE
2pzl_NAD_A_1.pdb
 44 48 0 0 0
SMALL
GASTEIGER

@<TRIPOS>ATOM
      1  PA        58.0860   21.1220   43.1140 P.3   401  NAD401      0.2189
      2  O1A       57.1170   20.4190   43.9630 O.3   401  NAD401     -0.4371
      3  O2A       57.9050   20.8930   41.6670 O.2   401  NAD401     -0.5170
      4  O5B       59.4930   20.6040   43.5580 O.3   401  NAD401     -0.3112
      5  C5B       59.9690   20.4300   44.8650 C.3   401  NAD401      0.1813
      6  C4B       60.8700   19.2020   44.6660 C.3   401  NAD401      0.1821
      7  O4B       61.3600   18.7770   45.9090 O.3   401  NAD401     -0.3135
      8  C3B       60.0640   18.0220   44.1330 C.3   401  NAD401      0.2184
      9  O3B       60.6630   17.4500   43.0070 O.3   401  NAD401     -0.2174
     10  C2B       60.0050   17.0400   45.2820 C.3   401  NAD401      0.2570
     11  O2B       60.0320   15.7220   44.8240 O.3   401  NAD401     -0.2130
     12  C1B       61.2460   17.3780   46.0380 C.3   401  NAD401      0.3186
     13  N9A       61.2370   17.0580   47.4760 N.pl3 401  NAD401     -0.1439
     14  C8A       60.2210   17.1650   48.3990 C.3   401  NAD401      0.3377
     15  N7A       60.7140   16.7770   49.6000 N.2   401  NAD401     -0.2095
     16  C5A       62.0250   16.4470   49.4710 C.2   401  NAD401      0.2526
     17  C6A       63.0150   15.9860   50.3470 C.2   401  NAD401      0.4393
     18  N6A       62.7130   15.4800   51.5590 N.pl3 401  NAD401      0.2180
     19  N1A       64.2800   15.7280   49.8300 N.2   401  NAD401      0.0021
     20  C2A       64.5980   15.9050   48.5070 C.3   401  NAD401      0.5254
     21  N3A       63.6080   16.3660   47.6740 N.2   401  NAD401     -0.0055
     22  C4A       62.3590   16.6340   48.1310 C.2   401  NAD401      0.3518
     23  O3        57.9470   22.7180   43.4050 O.3   401  NAD401     -0.2703
     24  PN        58.6950   23.9550   42.6700 P.3   401  NAD401      0.2189
     25  O1N       57.7420   24.9280   42.1130 O.3   401  NAD401     -0.4371
     26  O2N       59.7760   23.4000   41.7840 O.2   401  NAD401     -0.5170
     27  O5D       59.3720   24.7500   43.8870 O.3   401  NAD401     -0.3112
     28  C5D       60.7540   24.6480   44.1070 C.3   401  NAD401      0.1813
     29  C4D       61.1170   25.5200   45.2900 C.3   401  NAD401      0.1799
     30  O4D       60.7370   26.8510   45.0260 O.3   401  NAD401     -0.3327
     31  C3D       60.4200   25.1370   46.5770 C.3   401  NAD401      0.2158
     32  O3D       61.3960   25.4120   47.5660 O.3   401  NAD401     -0.2175
     33  C2D       59.2750   26.1370   46.6860 C.3   401  NAD401      0.2309
     34  O2D       58.8890   26.4390   48.0220 O.3   401  NAD401     -0.2158
     35  C1D       59.8800   27.3670   46.0240 C.3   401  NAD401      0.2263
     36  N1N       58.8850   28.2120   45.3800 N.pl3 401  NAD401     -0.2787
     37  C2N       58.4300   27.8880   44.1080 C.3   401  NAD401      0.1244
     38  C3N       57.4740   28.6840   43.4790 C.2   401  NAD401      0.0544
     39  C7N       57.0190   28.4590   42.0640 C.2   401  NAD401      0.2818
     40  O7N       56.4120   29.5410   41.4550 O.2   401  NAD401     -0.2670
     41  N7N       57.1670   27.3040   41.3940 N.am  401  NAD401     -0.0839
     42  C4N       57.0190   29.8180   44.1620 C.2   401  NAD401      0.0033
     43  C5N       57.4850   30.1280   45.4440 C.2   401  NAD401      0.0157
     44  C6N       58.4230   29.3060   46.0440 C.2   401  NAD401      0.0633
@<TRIPOS>BOND
     1    41    39   am
     2    40    39    2
     3     3     1    2
     4    26    24    2
     5    39    38    1
     6    25    24    1
     7    24    23    1
     8    24    27    1
     9     9     8    1
    10     1    23    1
    11     1     4    1
    12     1     2    1
    13    38    37    1
    14    38    42    2
    15     4     5    1
    16    27    28    1
    17    28    29    1
    18    37    36    1
    19     8     6    1
    20     8    10    1
    21    42    43    1
    22     6     5    1
    23     6     7    1
    24    11    10    1
    25    30    29    1
    26    30    35    1
    27    10    12    1
    28    29    31    1
    29    36    35    1
    30    36    44    1
    31    43    44    2
    32     7    12    1
    33    35    33    1
    34    12    13    1
    35    31    33    1
    36    31    32    1
    37    33    34    1
    38    13    22    1
    39    13    14    1
    40    21    22    2
    41    21    20    1
    42    22    16    1
    43    14    15    1
    44    20    19    1
    45    16    15    2
    46    16    17    1
    47    19    17    2
    48    17    18    1
