@<TRIPOS>MOLECULE
2pzl_UDP_A_1.pdb
 21 22 0 0 0
SMALL
GASTEIGER

@<TRIPOS>ATOM
      1  N1        42.3220   29.9740   41.8010 N.am  402  UDP402     -0.1996
      2  C2        41.0160   30.2130   41.3600 C.1   402  UDP402      0.2802
      3  N3        40.3630   29.2590   40.6140 N.2   402  UDP402     -0.2497
      4  C4        40.9820   28.0600   40.2800 C.1   402  UDP402      0.1941
      5  C5        42.2940   27.8260   40.7070 C.3   402  UDP402      0.1579
      6  C6        43.0030   28.8810   41.3070 C.3   402  UDP402      0.1249
      7  O2        40.4110   31.2580   41.6130 O.2   402  UDP402     -0.1922
      8  O4        40.3590   27.2230   39.6070 O.2   402  UDP402     -0.2133
      9  C1'       43.0160   31.0170   42.6040 C.3   402  UDP402      0.2361
     10  C2'       43.3180   30.6400   44.0510 C.3   402  UDP402      0.2316
     11  O2'       42.1980   30.7470   44.8910 O.3   402  UDP402     -0.2157
     12  C3'       44.4420   31.6110   44.4070 C.3   402  UDP402      0.2158
     13  C4'       45.1280   31.8840   43.0890 C.3   402  UDP402      0.1801
     14  O4'       44.2760   31.3740   42.0680 O.3   402  UDP402     -0.3322
     15  O3'       43.9590   32.8530   44.8240 O.3   402  UDP402     -0.2175
     16  C5'       46.5200   31.2440   43.0410 C.3   402  UDP402      0.1859
     17  O5'       46.3670   29.8620   43.2870 O.3   402  UDP402     -0.2675
     18  PA        47.3260   29.0050   44.2710 P.3   402  UDP402      0.5327
     19  O1A       48.6610   29.6290   44.3650 O.3   402  UDP402     -0.1145
     20  O2A       47.3370   27.6240   43.7160 O.2   402  UDP402     -0.2224
     21  O3A       46.6100   29.0650   45.7120 O.3   402  UDP402     -0.1145
@<TRIPOS>BOND
     1     8     4    2
     2     4     3    2
     3     4     5    1
     4     3     2    2
     5     5     6    1
     6     6     1    1
     7     2     7    2
     8     2     1   am
     9     1     9    1
    10    14     9    1
    11    14    13    1
    12     9    10    1
    13    16    13    1
    14    16    17    1
    15    13    12    1
    16    17    18    1
    17    20    18    2
    18    10    12    1
    19    10    11    1
    20    18    19    1
    21    18    21    1
    22    12    15    1
