@<TRIPOS>MOLECULE
2pzm_NAD_A_1.pdb
 44 48 0 0 0
SMALL
GASTEIGER

@<TRIPOS>ATOM
      1  PA       -16.8750   52.7930  -24.1350 P.3   601  NAD601      0.2189
      2  O1A      -17.3890   54.1030  -24.5680 O.2   601  NAD601     -0.5170
      3  O2A      -17.7300   51.6410  -24.4820 O.3   601  NAD601     -0.4371
      4  O5B      -16.6690   52.8380  -22.5260 O.3   601  NAD601     -0.3112
      5  C5B      -16.4170   54.0440  -21.8640 C.3   601  NAD601      0.1813
      6  C4B      -17.4020   54.1010  -20.7370 C.3   601  NAD601      0.1821
      7  O4B      -17.1230   55.2440  -19.9490 O.3   601  NAD601     -0.3135
      8  C3B      -18.8480   54.2640  -21.2420 C.3   601  NAD601      0.2184
      9  O3B      -19.6760   53.3550  -20.5180 O.3   601  NAD601     -0.2174
     10  C2B      -19.1520   55.7030  -20.8850 C.3   601  NAD601      0.2570
     11  O2B      -20.5180   55.9320  -20.5960 O.3   601  NAD601     -0.2130
     12  C1B      -18.3260   55.9230  -19.6440 C.3   601  NAD601      0.3186
     13  N9A      -18.0480   57.3430  -19.3050 N.pl3 601  NAD601     -0.1439
     14  C8A      -17.7830   58.3810  -20.1420 C.3   601  NAD601      0.3377
     15  N7A      -17.5700   59.4890  -19.3860 N.2   601  NAD601     -0.2095
     16  C5A      -17.6550   59.1730  -18.0610 C.2   601  NAD601      0.2526
     17  C6A      -17.5630   59.9020  -16.8660 C.2   601  NAD601      0.4393
     18  N6A      -17.4360   61.2580  -16.8150 N.pl3 601  NAD601      0.2180
     19  N1A      -17.7630   59.2270  -15.6840 N.2   601  NAD601      0.0021
     20  C2A      -18.0690   57.8680  -15.6310 C.3   601  NAD601      0.5254
     21  N3A      -18.1970   57.1980  -16.8240 N.2   601  NAD601     -0.0055
     22  C4A      -17.9750   57.8100  -18.0140 C.2   601  NAD601      0.3518
     23  O3       -15.4110   52.5550  -24.6800 O.3   601  NAD601     -0.2703
     24  PN       -14.5010   51.2550  -24.5710 P.3   601  NAD601      0.2189
     25  O1N      -14.1300   50.7820  -25.9000 O.2   601  NAD601     -0.5170
     26  O2N      -15.1210   50.3580  -23.5610 O.3   601  NAD601     -0.4371
     27  O5D      -13.1230   51.7850  -23.9060 O.3   601  NAD601     -0.3112
     28  C5D      -12.9170   51.7450  -22.5110 C.3   601  NAD601      0.1813
     29  C4D      -11.5460   52.3550  -22.1690 C.3   601  NAD601      0.1799
     30  O4D      -10.5970   51.7250  -22.9660 O.3   601  NAD601     -0.3327
     31  C3D      -11.4670   53.8520  -22.4990 C.3   601  NAD601      0.2158
     32  O3D      -10.6200   54.4510  -21.5170 O.3   601  NAD601     -0.2175
     33  C2D      -10.7750   53.8430  -23.8600 C.3   601  NAD601      0.2309
     34  O2D      -10.0870   55.0730  -24.0930 O.3   601  NAD601     -0.2158
     35  C1D       -9.8580   52.6290  -23.7700 C.3   601  NAD601      0.2263
     36  N1N       -9.4700   52.0110  -25.0660 N.pl3 601  NAD601     -0.2787
     37  C2N      -10.3630   51.1650  -25.7110 C.3   601  NAD601      0.1244
     38  C3N      -10.0300   50.5930  -26.9350 C.2   601  NAD601      0.0544
     39  C7N      -10.9320   49.5200  -27.5300 C.2   601  NAD601      0.2818
     40  O7N      -10.3140   48.6990  -28.4510 O.2   601  NAD601     -0.2670
     41  N7N      -12.2240   49.3580  -27.1850 N.am  601  NAD601     -0.0839
     42  C4N       -8.7720   50.8710  -27.5140 C.2   601  NAD601      0.0033
     43  C5N       -7.8560   51.6990  -26.8440 C.2   601  NAD601      0.0157
     44  C6N       -8.2350   52.2730  -25.6260 C.2   601  NAD601      0.0633
@<TRIPOS>BOND
     1    40    39    2
     2    39    41   am
     3    39    38    1
     4    42    38    2
     5    42    43    1
     6    38    37    1
     7    43    44    2
     8    25    24    2
     9    37    36    1
    10    44    36    1
    11    36    35    1
    12    23    24    1
    13    23     1    1
    14    24    27    1
    15    24    26    1
    16     2     1    2
    17     3     1    1
    18     1     4    1
    19    34    33    1
    20    27    28    1
    21    33    35    1
    22    33    31    1
    23    35    30    1
    24    30    29    1
    25     4     5    1
    26    28    29    1
    27    31    29    1
    28    31    32    1
    29     5     6    1
    30     8    10    1
    31     8     6    1
    32     8     9    1
    33    10    11    1
    34    10    12    1
    35     6     7    1
    36    14    15    1
    37    14    13    1
    38     7    12    1
    39    12    13    1
    40    15    16    2
    41    13    22    1
    42    16    22    1
    43    16    17    1
    44    22    21    2
    45    17    18    1
    46    17    19    2
    47    21    20    1
    48    19    20    1
