@<TRIPOS>MOLECULE
2pzm_UDP_A_1.pdb
 25 26 0 0 0
SMALL
GASTEIGER

@<TRIPOS>ATOM
      1  N1       -12.8530   53.0050  -41.7980 N.am  602  UDP602     -0.1766
      2  C2       -13.0620   52.7730  -43.1530 C.1   602  UDP602      0.2845
      3  N3       -14.3370   52.6330  -43.6590 N.2   602  UDP602     -0.2452
      4  C4       -15.4320   52.7290  -42.8280 C.1   602  UDP602      0.2182
      5  C5       -15.2430   52.9640  -41.4530 C.2   602  UDP602      0.1242
      6  C6       -13.9400   53.0240  -40.9400 C.2   602  UDP602      0.0929
      7  O2       -12.1120   52.6800  -43.9190 O.2   602  UDP602     -0.1918
      8  O4       -16.5560   52.6080  -43.3250 O.2   602  UDP602     -0.2085
      9  C1'      -11.4390   53.1330  -41.3330 C.3   602  UDP602      0.2401
     10  C2'      -11.0790   54.4940  -40.7440 C.3   602  UDP602      0.2319
     11  O2'      -10.7760   55.4450  -41.7430 O.3   602  UDP602     -0.2157
     12  C3'       -9.8930   54.1730  -39.8430 C.3   602  UDP602      0.2158
     13  C4'       -9.9840   52.6670  -39.5870 C.3   602  UDP602      0.1799
     14  O4'      -11.0670   52.1720  -40.3630 O.3   602  UDP602     -0.3320
     15  O3'       -8.6570   54.4900  -40.4430 O.3   602  UDP602     -0.2175
     16  C5'      -10.1800   52.3440  -38.1010 C.3   602  UDP602      0.1813
     17  O5'      -11.4670   52.7690  -37.6930 O.3   602  UDP602     -0.3111
     18  PA       -11.7510   53.8120  -36.4850 P.3   602  UDP602      0.2231
     19  O1A      -11.5740   53.0890  -35.1990 O.3   602  UDP602     -0.4370
     20  O2A      -13.1650   54.2650  -36.6050 O.2   602  UDP602     -0.5169
     21  O3A      -10.7100   55.0860  -36.6220 O.3   602  UDP602     -0.2261
     22  PB        -9.2030   55.3540  -36.0010 P.3   602  UDP602      0.5373
     23  O1B       -9.3200   55.9950  -34.6620 O.3   602  UDP602     -0.1143
     24  O2B       -8.3640   54.1270  -35.8770 O.3   602  UDP602     -0.1143
     25  O3B       -8.4890   56.3110  -36.8930 O.2   602  UDP602     -0.2221
@<TRIPOS>BOND
     1     7     2    2
     2     3     2    2
     3     3     4    2
     4     8     4    2
     5     2     1   am
     6     4     5    1
     7     1     9    1
     8     1     6    1
     9    11    10    1
    10     5     6    2
    11     9    10    1
    12     9    14    1
    13    10    12    1
    14    15    12    1
    15    14    13    1
    16    12    13    1
    17    13    16    1
    18    16    17    1
    19    17    18    1
    20    25    22    2
    21    21    18    1
    22    21    22    1
    23    20    18    2
    24    18    19    1
    25    22    24    1
    26    22    23    1
