@<TRIPOS>MOLECULE
2pzn_NAP_A_1.pdb
 48 52 0 0 0
SMALL
GASTEIGER

@<TRIPOS>ATOM
      1  PA         3.1170   -2.5370    9.5490 P.3   318  NAP318      0.2189
      2  O1A        2.5690   -3.9090    9.5130 O.3   318  NAP318     -0.4371
      3  O2A        4.1270   -2.0930    8.5800 O.2   318  NAP318     -0.5170
      4  O5B        3.5660   -2.3030   11.0520 O.3   318  NAP318     -0.3112
      5  C5B        4.0590   -1.0010   11.4810 C.3   318  NAP318      0.1813
      6  C4B        4.3200   -1.0700   12.9620 C.3   318  NAP318      0.1820
      7  O4B        5.3770   -2.0220   13.2380 O.3   318  NAP318     -0.3136
      8  C3B        4.7440    0.2350   13.5990 C.3   318  NAP318      0.2157
      9  O3B        4.1500    0.3140   14.8850 O.3   318  NAP318     -0.2175
     10  C2B        6.2630    0.0880   13.6950 C.3   318  NAP318      0.2314
     11  O2B        6.8050    0.8560   14.7670 O.3   318  NAP318     -0.2630
     12  C1B        6.4120   -1.3930   13.9820 C.3   318  NAP318      0.3158
     13  N9A        7.6750   -1.9500   13.5030 N.pl3 318  NAP318     -0.1439
     14  C8A        8.2630   -1.7100   12.3020 C.3   318  NAP318      0.3377
     15  N7A        9.3880   -2.3910   12.1430 N.2   318  NAP318     -0.2095
     16  C5A        9.5210   -3.0870   13.2930 C.2   318  NAP318      0.2526
     17  C6A       10.5540   -3.9600   13.7430 C.2   318  NAP318      0.4393
     18  N6A       11.6390   -4.2250   13.0030 N.pl3 318  NAP318      0.2180
     19  N1A       10.4130   -4.4470   15.0070 N.2   318  NAP318      0.0021
     20  C2A        9.3420   -4.1470   15.7440 C.3   318  NAP318      0.5254
     21  N3A        8.3300   -3.3250   15.4080 N.2   318  NAP318     -0.0055
     22  C4A        8.4760   -2.8280   14.1720 C.2   318  NAP318      0.3518
     23  O3         1.8370   -1.5510    9.5220 O.3   318  NAP318     -0.2703
     24  PN         1.1120   -0.5770    8.4930 P.3   318  NAP318      0.2189
     25  O1N        1.6410    0.7880    8.6680 O.2   318  NAP318     -0.5170
     26  O2N       -0.3500   -0.7870    8.6730 O.3   318  NAP318     -0.4371
     27  O5D        1.4150   -1.1460    7.0340 O.3   318  NAP318     -0.3112
     28  C5D        2.5780   -0.7330    6.2510 C.3   318  NAP318      0.1813
     29  C4D        2.2210    0.3010    5.2460 C.3   318  NAP318      0.1799
     30  O4D        1.2720   -0.2120    4.2820 O.3   318  NAP318     -0.3327
     31  C3D        1.5200    1.5520    5.7570 C.3   318  NAP318      0.2158
     32  O3D        2.3550    2.4130    6.5260 O.3   318  NAP318     -0.2175
     33  C2D        0.9830    2.1390    4.4580 C.3   318  NAP318      0.2309
     34  O2D        2.0680    2.7270    3.7700 O.3   318  NAP318     -0.2158
     35  C1D        0.5050    0.8600    3.7540 C.3   318  NAP318      0.2263
     36  N1N       -0.9460    0.5470    4.0190 N.pl3 318  NAP318     -0.2787
     37  C2N       -1.8400    0.7430    2.9900 C.3   318  NAP318      0.1244
     38  C3N       -3.1710    0.5070    3.1900 C.2   318  NAP318      0.0544
     39  C7N       -4.1610    0.6110    2.0720 C.2   318  NAP318      0.2818
     40  O7N       -5.3620    0.6480    2.3040 O.2   318  NAP318     -0.2670
     41  N7N       -3.6520    0.6240    0.8200 N.am  318  NAP318     -0.0839
     42  C4N       -3.6290    0.1350    4.4670 C.2   318  NAP318      0.0033
     43  C5N       -2.7140   -0.1060    5.4710 C.2   318  NAP318      0.0157
     44  C6N       -1.3700    0.0670    5.2530 C.2   318  NAP318      0.0633
     45  P2B        7.6390    2.2180   14.5940 P.3   318  NAP318      0.5328
     46  O1X        7.1620    2.8750   13.3260 O.2   318  NAP318     -0.2224
     47  O2X        7.3210    2.9450   15.8520 O.3   318  NAP318     -0.1145
     48  O3X        9.0870    1.7960   14.5190 O.3   318  NAP318     -0.1145
@<TRIPOS>BOND
     1    41    39   am
     2    39    40    2
     3    39    38    1
     4    37    38    1
     5    37    36    1
     6    38    42    2
     7    35    36    1
     8    35    30    1
     9    35    33    1
    10    34    33    1
    11    36    44    1
    12    30    29    1
    13    33    31    1
    14    42    43    1
    15    29    31    1
    16    29    28    1
    17    44    43    2
    18    31    32    1
    19    28    27    1
    20    27    24    1
    21    24    25    2
    22    24    26    1
    23    24    23    1
    24     3     1    2
    25     2     1    1
    26    23     1    1
    27     1     4    1
    28     4     5    1
    29     5     6    1
    30    15    14    1
    31    15    16    2
    32    14    13    1
    33     6     7    1
    34     6     8    1
    35    18    17    1
    36     7    12    1
    37    16    17    1
    38    16    22    1
    39    46    45    2
    40    13    12    1
    41    13    22    1
    42     8    10    1
    43     8     9    1
    44    10    12    1
    45    10    11    1
    46    17    19    2
    47    22    21    2
    48    48    45    1
    49    45    11    1
    50    45    47    1
    51    19    20    1
    52    21    20    1
