@<TRIPOS>MOLECULE
2pzn_393_A_1.pdb
 25 26 0 0 0
SMALL
GASTEIGER

@<TRIPOS>ATOM
      1  C1       -12.6550    1.0010    4.2720 C.ar  320  393320      0.1426
      2  N2       -13.5830   -0.1020    4.0510 N.pl3 320  393320      0.0577
      3  O3       -13.6040   -1.0510    4.8740 O.2   320  393320     -0.1261
      4  O4       -14.3050   -0.0630    3.0850 O.2   320  393320     -0.1261
      5  C5       -11.6680    0.8070    5.2460 C.ar  320  393320      0.0215
      6  C6       -10.7580    1.8340    5.4780 C.ar  320  393320      0.0011
      7  C7        -9.6780    1.5410    6.4960 C.3   320  393320      0.1418
      8  N8        -8.7170    2.6090    6.7060 N.am  320  393320     -0.1967
      9  C9        -8.7780    3.3850    7.7840 C.2   320  393320      0.2680
     10  C10       -7.7710    4.4300    7.8900 C.ar  320  393320      0.0890
     11  C11       -8.1420    5.6470    8.4030 C.ar  320  393320      0.0085
     12  C12       -7.3050    6.7660    8.3740 C.ar  320  393320      0.0117
     13  C13       -6.0420    6.6570    7.7710 C.ar  320  393320      0.0607
     14 CL1        -4.9240    7.9620    7.8250 Cl    320  393320     -0.0821
     15  C15       -5.5570    5.3840    7.3970 C.ar  320  393320      0.0484
     16  C16       -6.4380    4.3140    7.4050 C.ar  320  393320      0.1446
     17  O17       -6.0660    3.0250    7.1750 O.3   320  393320     -0.4635
     18  C18       -4.9560    2.8180    6.2980 C.3   320  393320      0.3186
     19  C19       -5.3140    3.0780    4.8330 C.2   320  393320      0.4084
     20  O20       -4.3420    3.1690    4.0740 O.co2 320  393320     -0.2415
     21  O21       -6.5410    3.0920    4.5240 O.co2 320  393320     -0.2415
     22  O22       -9.7460    3.3080    8.5840 O.2   320  393320     -0.2682
     23  C23      -10.8490    3.0160    4.7630 C.ar  320  393320     -0.0025
     24  C24      -11.8480    3.2340    3.7850 C.ar  320  393320      0.0014
     25  C25      -12.7580    2.1970    3.5160 C.ar  320  393320      0.0241
@<TRIPOS>BOND
     1     4     2    2
     2    25    24   ar
     3    25     1   ar
     4    24    23   ar
     5     2     1    1
     6     2     3    2
     7    20    19   ar
     8     1     5   ar
     9    21    19   ar
    10    23     6   ar
    11    19    18    1
    12     5     6   ar
    13     6     7    1
    14    18    17    1
    15     7     8    1
    16     8     9   am
    17    17    16    1
    18    15    16   ar
    19    15    13   ar
    20    16    10   ar
    21    13    14    1
    22    13    12   ar
    23     9    10    1
    24     9    22    2
    25    10    11   ar
    26    12    11   ar
