@<TRIPOS>MOLECULE
2pzp_ACP_A_1.pdb
 31 33 0 0 0
SMALL
GASTEIGER

@<TRIPOS>ATOM
      1  PG        31.6090   17.1110   15.2200 P.3   300  ACP300      0.1295
      2  O1G       32.8250   17.3070   14.3700 O.2   300  ACP300     -0.4595
      3  O2G       30.3850   17.6660   14.6100 O.3   300  ACP300     -0.3567
      4  O3G       31.5050   15.7680   15.8110 O.3   300  ACP300     -0.3567
      5  PB        30.7940   18.1100   18.0840 P.3   300  ACP300      0.3815
      6  O1B       29.4390   18.4200   17.6230 O.2   300  ACP300     -0.2547
      7  O2B       31.3910   19.0350   19.0750 O.3   300  ACP300     -0.1391
      8  C3B       31.8280   18.0210   16.6690 C.3   300  ACP300      0.1768
      9  PA        29.9040   15.6660   19.2570 P.3   300  ACP300      0.2209
     10  O1A       29.5900   14.6610   18.2340 O.2   300  ACP300     -0.5170
     11  O2A       28.7900   16.2640   20.0320 O.3   300  ACP300     -0.4371
     12  O3A       30.8730   16.7290   18.7270 O.3   300  ACP300     -0.2483
     13  O5'       30.9310   14.9070   20.2630 O.3   300  ACP300     -0.3111
     14  C5'       32.2520   14.5440   19.8360 C.3   300  ACP300      0.1813
     15  C4'       32.8040   13.4350   20.7030 C.3   300  ACP300      0.1821
     16  O4'       32.9550   13.9220   22.0680 O.3   300  ACP300     -0.3135
     17  C3'       31.9030   12.2140   20.8440 C.3   300  ACP300      0.2184
     18  O3'       32.0530   11.3020   19.7610 O.3   300  ACP300     -0.2174
     19  C2'       32.3860   11.6240   22.1620 C.3   300  ACP300      0.2570
     20  O2'       33.5960   10.9130   22.0260 O.3   300  ACP300     -0.2130
     21  C1'       32.6100   12.8930   22.9890 C.3   300  ACP300      0.3186
     22  N9        31.3830   13.2900   23.6820 N.pl3 300  ACP300     -0.1439
     23  C8        30.4730   14.2350   23.2890 C.3   300  ACP300      0.3377
     24  N7        29.4410   14.3460   24.0890 N.2   300  ACP300     -0.2095
     25  C5        29.6930   13.4150   25.0860 C.2   300  ACP300      0.2526
     26  C6        28.9630   13.0400   26.2260 C.2   300  ACP300      0.4393
     27  N6        27.7950   13.5880   26.5620 N.pl3 300  ACP300      0.2180
     28  N1        29.4850   12.0740   27.0150 N.2   300  ACP300      0.0021
     29  C2        30.6580   11.5280   26.6670 C.3   300  ACP300      0.5254
     30  N3        31.4390   11.7980   25.6170 N.2   300  ACP300     -0.0055
     31  C4        30.8900   12.7610   24.8550 C.2   300  ACP300      0.3518
@<TRIPOS>BOND
     1     2     1    2
     2     3     1    1
     3     1     4    1
     4     1     8    1
     5     8     5    1
     6     6     5    2
     7     5    12    1
     8     5     7    1
     9    10     9    2
    10    12     9    1
    11     9    11    1
    12     9    13    1
    13    18    17    1
    14    14    13    1
    15    14    15    1
    16    15    17    1
    17    15    16    1
    18    17    19    1
    19    20    19    1
    20    16    21    1
    21    19    21    1
    22    21    22    1
    23    23    22    1
    24    23    24    1
    25    22    31    1
    26    24    25    2
    27    31    25    1
    28    31    30    2
    29    25    26    1
    30    30    29    1
    31    26    27    1
    32    26    28    2
    33    29    28    1
