@<TRIPOS>MOLECULE
2pzr_ACP_A_1.pdb
 10 11 0 0 0
SMALL
GASTEIGER

@<TRIPOS>ATOM
      1  N9        31.3400   14.5280   23.1740 N.2   803  ACP803     -0.1914
      2  C8        30.4140   15.4910   22.8390 C.3   803  ACP803      0.2618
      3  N7        29.3880   15.5500   23.6580 N.2   803  ACP803     -0.2267
      4  C5        29.6560   14.5560   24.5980 C.2   803  ACP803      0.2303
      5  C6        28.9410   14.0980   25.7360 C.2   803  ACP803      0.4393
      6  N6        27.7630   14.5960   26.1320 N.pl3 803  ACP803      0.2185
      7  N1        29.4890   13.0920   26.4550 N.2   803  ACP803     -0.0265
      8  C2        30.6640   12.5790   26.0530 C.3   803  ACP803      0.4008
      9  N3        31.4210   12.9150   25.0090 N.2   803  ACP803     -0.1640
     10  C4        30.8550   13.9220   24.3120 C.1   803  ACP803      0.0579
@<TRIPOS>BOND
     1     2     1    1
     2     2     3    1
     3     1    10    2
     4     3     4    2
     5    10     4    1
     6    10     9    2
     7     4     5    1
     8     9     8    1
     9     5     6    1
    10     5     7    2
    11     8     7    1
