@<TRIPOS>MOLECULE
2pzy_STU_C_1.pdb
 35 42 0 0 0
SMALL
GASTEIGER

@<TRIPOS>ATOM
      1  O4        39.0330  -64.4560   14.4690 O.3     3  STU3       -0.3186
      2  C25       38.1920  -65.4670   15.0110 C.3     3  STU3        0.2078
      3  C24       38.9440  -66.4460   15.9570 C.3     3  STU3        0.0739
      4  C23       40.4150  -66.0000   16.0910 C.3     3  STU3        0.1086
      5  C22       41.0970  -65.8210   14.7580 C.3     3  STU3        0.1761
      6  C21       40.2520  -64.8630   13.8440 C.3     3  STU3        0.1915
      7  C26       41.0530  -63.5640   13.8540 C.3     3  STU3        0.0566
      8  N2        40.0620  -65.3260   12.3830 N.ar    3  STU3       -0.3054
      9  C18       38.8700  -65.9530   11.9200 C.ar    3  STU3        0.0774
     10  C19       37.6500  -66.3100   12.6380 C.ar    3  STU3        0.0783
     11  C6        36.5680  -66.9400   11.9380 C.ar    3  STU3        0.0293
     12  C7        36.7090  -67.2270   10.5310 C.ar    3  STU3        0.0822
     13  C10       37.9010  -66.8880    9.8520 C.ar    3  STU3        0.0154
     14  C11       38.9800  -66.2570   10.5240 C.ar    3  STU3        0.0173
     15  C12       40.2930  -65.7950   10.1110 C.ar    3  STU3        0.0171
     16  C17       40.9360  -65.2230   11.2650 C.ar    3  STU3        0.0617
     17  C16       42.2540  -64.6870   11.1210 C.ar    3  STU3        0.0172
     18  C15       42.8570  -64.7350    9.8540 C.ar    3  STU3        0.0015
     19  C14       42.2230  -65.2890    8.7490 C.ar    3  STU3        0.0001
     20  C13       40.9350  -65.8270    8.8470 C.ar    3  STU3        0.0015
     21  C9        37.7020  -67.3230    8.4240 C.3     3  STU3        0.1650
     22  N1        36.3620  -67.9070    8.3500 N.2     3  STU3       -0.1976
     23  C8        35.7950  -67.8490    9.5610 C.1     3  STU3        0.1501
     24  O5        34.6810  -68.2510    9.8210 O.2     3  STU3       -0.2222
     25  C5        35.5010  -67.1490   12.9280 C.ar    3  STU3        0.0180
     26  C20       35.9920  -66.6270   14.1900 C.ar    3  STU3        0.0618
     27  C1        35.1560  -66.6890   15.3450 C.ar    3  STU3        0.0172
     28  C2        33.8650  -67.2730   15.2000 C.ar    3  STU3        0.0015
     29  C3        33.3930  -67.7810   13.9730 C.ar    3  STU3        0.0001
     30  C4        34.1880  -67.7340   12.8170 C.ar    3  STU3        0.0015
     31  N3        37.3080  -66.1150   13.9690 N.ar    3  STU3       -0.3039
     32  O6        40.9840  -67.1440   13.9690 O.3     3  STU3       -0.3478
     33  C27       42.1730  -67.7480   13.5350 C.3     3  STU3        0.1743
     34  N4        41.0900  -67.0450   17.0290 N.3     3  STU3       -0.2152
     35  C28       41.3510  -66.4220   18.3320 C.3     3  STU3        0.1075
@<TRIPOS>BOND
     1    22    21    1
     2    22    23    2
     3    21    13    1
     4    19    20   ar
     5    19    18   ar
     6    20    15   ar
     7    23    24    2
     8    23    12    1
     9    13    14   ar
    10    13    12   ar
    11    18    17   ar
    12    15    14   ar
    13    15    16   ar
    14    14     9   ar
    15    12    11   ar
    16    17    16   ar
    17    16     8   ar
    18     9     8   ar
    19     9    10   ar
    20    11    10   ar
    21    11    25   ar
    22     8     6    1
    23    10    31   ar
    24    30    25   ar
    25    30    29   ar
    26    25    26   ar
    27    33    32    1
    28     6     7    1
    29     6     1    1
    30     6     5    1
    31    31    26   ar
    32    31     2    1
    33    32     5    1
    34    29    28   ar
    35    26    27   ar
    36     1     2    1
    37     5     4    1
    38     2     3    1
    39    28    27   ar
    40     3     4    1
    41     4    34    1
    42    34    35    1
