@<TRIPOS>MOLECULE
2pzy_B18_A_1.pdb
 31 34 0 0 0
SMALL
GASTEIGER

@<TRIPOS>ATOM
      1  C01       36.6870  -31.0270  -19.5880 C.3     1  B181        0.1223
      2  C02       37.9710  -30.4040  -19.5700 C.2     1  B181       -0.0142
      3  C03       39.0250  -30.9550  -18.8460 C.2     1  B181        0.0111
      4  C04       38.8060  -32.1720  -18.1140 C.2     1  B181        0.1278
      5  C05       37.5600  -32.7860  -18.1220 C.2     1  B181        0.0280
      6  C06       36.4920  -32.2240  -18.8540 C.2     1  B181       -0.0103
      7  C07       40.4180  -30.5860  -18.6200 C.3     1  B181        0.0902
      8  C08       40.9350  -31.5860  -17.7930 C.2     1  B181        0.1942
      9  N09       39.9940  -32.4980  -17.5040 N.2     1  B181       -0.3947
     10  C10       41.2930  -29.4020  -19.1040 C.3     1  B181        0.0368
     11  C11       42.4990  -29.2070  -18.1170 C.3     1  B181        0.1386
     12  N12       42.9730  -30.4850  -17.5070 N.2     1  B181       -0.2007
     13  C13       42.2340  -31.6200  -17.3500 C.1     1  B181        0.1765
     14  O14       42.6660  -32.6440  -16.8500 O.2     1  B181       -0.2200
     15  C15       35.6220  -30.3940  -20.3670 C.2     1  B181        0.2558
     16  O16       34.4540  -30.5760  -20.0470 O.2     1  B181       -0.2722
     17  N17       36.0160  -29.6260  -21.4190 N.am    1  B181       -0.1432
     18  C18       35.1420  -28.8770  -22.3540 C.2     1  B181        0.2331
     19  S19       33.4710  -29.1760  -22.5270 S.3     1  B181       -0.0574
     20  C20       33.3190  -27.9620  -23.7050 C.3     1  B181        0.1296
     21  C21       34.5540  -27.3210  -23.9710 C.2     1  B181        0.1772
     22  N22       35.5390  -27.8690  -23.1910 N.2     1  B181       -0.3778
     23  C23       34.7800  -26.2780  -24.8880 C.2     1  B181        0.2913
     24  N24       36.0930  -26.0350  -25.1970 N.am    1  B181       -0.1983
     25  O25       33.8330  -25.6370  -25.3720 O.2     1  B181       -0.2659
     26  C26       36.4750  -24.9700  -26.1500 C.3     1  B181        0.1328
     27  C27       38.0180  -24.7250  -26.2130 C.3     1  B181        0.0959
     28  N28       38.6310  -24.5280  -27.5780 N.3     1  B181       -0.2688
     29  C29       39.9080  -23.8010  -27.4840 C.3     1  B181        0.0897
     30  C30       37.7420  -23.7980  -28.5290 C.3     1  B181        0.0897
     31  C31       40.5320  -28.0650  -19.1550 C.3     1  B181        0.0029
@<TRIPOS>BOND
     1    30    28    1
     2    28    29    1
     3    28    27    1
     4    27    26    1
     5    26    24    1
     6    25    23    2
     7    24    23   am
     8    23    21    1
     9    21    20    1
    10    21    22    2
    11    20    19    1
    12    22    18    2
    13    19    18    1
    14    18    17    1
    15    17    15   am
    16    15    16    2
    17    15     1    1
    18     1     2    1
    19     1     6    1
    20     2     3    2
    21    31    10    1
    22    10     7    1
    23    10    11    1
    24     6     5    2
    25     3     7    1
    26     3     4    1
    27     7     8    1
    28     5     4    1
    29    11    12    1
    30     4     9    2
    31     8     9    2
    32     8    13    1
    33    12    13    2
    34    13    14    2
