@<TRIPOS>MOLECULE
2q09_DI6_A_1.pdb
 12 12 0 0 0
SMALL
GASTEIGER

@<TRIPOS>ATOM
      1  N1        18.2910   51.5990   14.5430 N.2   600  DI6600     -0.2449
      2  C2        18.0310   51.0820   13.3230 C.1   600  DI6600      0.2154
      3  O2        18.7160   51.1820   12.3210 O.2   600  DI6600     -0.2114
      4  C3        16.6890   50.3220   13.4630 C.3   600  DI6600      0.2351
      5  N4        16.3450   50.5560   14.8830 N.2   600  DI6600     -0.1596
      6  C5        17.3300   51.2980   15.4270 C.1   600  DI6600      0.3072
      7  O5        17.3490   51.6490   16.5980 O.2   600  DI6600     -0.1881
      8  C6        15.6430   50.8850   12.5120 C.3   600  DI6600      0.0553
      9  C7        14.2970   50.1640   12.6160 C.3   600  DI6600      0.1173
     10  C8        13.2060   50.6890   11.6710 C.2   600  DI6600      0.3650
     11  O9        12.2130   49.9600   11.4810 O.co2 600  DI6600     -0.2457
     12  O10       13.3250   51.8120   11.1170 O.co2 600  DI6600     -0.2457
@<TRIPOS>BOND
     1    12    10   ar
     2    11    10   ar
     3    10     9    1
     4     3     2    2
     5     8     9    1
     6     8     4    1
     7     2     4    1
     8     2     1    2
     9     4     5    1
    10     1     6    2
    11     5     6    2
    12     6     7    2
