@<TRIPOS>MOLECULE
2q0a_PCG_A_1.pdb
 23 26 0 0 0
SMALL
GASTEIGER

@<TRIPOS>ATOM
      1  PA        22.9870   34.2410   22.5110 P.3   401  PCG401      0.2141
      2  O1A       22.5040   33.5390   23.6820 O.3   401  PCG401     -0.4373
      3  O2A       24.2570   34.9110   22.5790 O.2   401  PCG401     -0.5172
      4  O5'       22.9990   33.2300   21.2400 O.3   401  PCG401     -0.3114
      5  C5'       21.7790   32.6190   20.8580 C.3   401  PCG401      0.1812
      6  C4'       20.7220   33.6670   20.7280 C.3   401  PCG401      0.1771
      7  O4'       19.4620   33.2680   20.4060 O.3   401  PCG401     -0.3327
      8  C3'       20.5950   34.5210   21.9700 C.3   401  PCG401      0.1857
      9  O3'       21.8130   35.2340   22.1020 O.3   401  PCG401     -0.3112
     10  C2'       19.4280   35.3320   21.6420 C.3   401  PCG401      0.2282
     11  O2'       19.6130   36.6710   21.2710 O.3   401  PCG401     -0.2159
     12  C1'       18.7100   34.4860   20.5760 C.3   401  PCG401      0.2292
     13  N9        17.3950   34.1150   20.9840 N.pl3 401  PCG401     -0.2354
     14  C8        16.2950   34.4960   20.3800 C.3   401  PCG401      0.2246
     15  N7        15.2400   34.0050   21.0090 N.2   401  PCG401     -0.2322
     16  C5        15.6810   33.2820   22.0010 C.2   401  PCG401      0.2182
     17  C6        15.0390   32.5770   23.0250 C.1   401  PCG401      0.2372
     18  O6        13.8340   32.4830   23.0440 O.2   401  PCG401     -0.2069
     19  N1        15.8120   31.9150   23.9700 N.2   401  PCG401     -0.2485
     20  C2        17.2130   32.0320   23.9270 C.1   401  PCG401      0.2531
     21  N2        17.9260   31.4330   24.8140 N.pl3 401  PCG401     -0.0226
     22  N3        17.8130   32.7270   22.9530 N.2   401  PCG401     -0.3074
     23  C4        17.0660   33.3920   22.0310 C.2   401  PCG401      0.2300
@<TRIPOS>BOND
     1    14    13    1
     2    14    15    1
     3     7    12    1
     4     7     6    1
     5    12    13    1
     6    12    10    1
     7     6     5    1
     8     6     8    1
     9     5     4    1
    10    13    23    1
    11    15    16    2
    12     4     1    1
    13    11    10    1
    14    10     8    1
    15     8     9    1
    16    16    23    1
    17    16    17    1
    18    23    22    2
    19     9     1    1
    20     1     3    2
    21     1     2    1
    22    22    20    2
    23    17    18    2
    24    17    19    2
    25    20    19    2
    26    20    21    1
