@<TRIPOS>MOLECULE
2q0b_ACP_A_1.pdb
 10 11 0 0 0
SMALL
GASTEIGER

@<TRIPOS>ATOM
      1  N9        30.5510   15.0640   22.9410 N.2   803  ACP803     -0.1914
      2  C8        29.4870   15.9220   22.7780 C.3   803  ACP803      0.2618
      3  N7        28.5650   15.8020   23.7060 N.2   803  ACP803     -0.2267
      4  C5        29.0550   14.7990   24.5360 C.2   803  ACP803      0.2303
      5  C6        28.5440   14.2040   25.7140 C.2   803  ACP803      0.4393
      6  N6        27.3860   14.5520   26.2830 N.pl3 803  ACP803      0.2185
      7  N1        29.2790   13.2270   26.2910 N.2   803  ACP803     -0.0265
      8  C2        30.4490   12.8820   25.7240 C.3   803  ACP803      0.4008
      9  N3        31.0340   13.3690   24.6290 N.2   803  ACP803     -0.1640
     10  C4        30.2790   14.3350   24.0740 C.1   803  ACP803      0.0579
@<TRIPOS>BOND
     1     2     1    1
     2     2     3    1
     3     1    10    2
     4     3     4    2
     5    10     4    1
     6    10     9    2
     7     4     5    1
     8     9     8    1
     9     5     6    1
    10     5     7    2
    11     8     7    1
