@<TRIPOS>MOLECULE
2q0c_CTP_A_1.pdb
 29 30 0 0 0
SMALL
GASTEIGER

@<TRIPOS>ATOM
      1  N1        25.4600   20.8450  -50.8250 N.am  501  CTP501     -0.1778
      2  C2        26.5210   20.1860  -51.3510 C.1   501  CTP501      0.2756
      3  N3        27.6520   20.8540  -51.6580 N.2   501  CTP501     -0.3024
      4  C4        27.7660   22.1910  -51.4220 C.2   501  CTP501      0.2346
      5  C5        26.6750   22.8950  -50.8830 C.2   501  CTP501      0.0687
      6  C6        25.5310   22.1710  -50.5790 C.2   501  CTP501      0.0836
      7  O2        26.4690   18.9510  -51.5840 O.2   501  CTP501     -0.1925
      8  N4        28.9450   22.8360  -51.7200 N.pl3 501  CTP501     -0.0921
      9  C1'       24.2380   20.0960  -50.4980 C.3   501  CTP501      0.2400
     10  C2'       24.4230   19.6340  -49.0480 C.3   501  CTP501      0.2319
     11  O2'       24.0880   18.2570  -48.9510 O.3   501  CTP501     -0.2157
     12  C3'       23.4750   20.4970  -48.2540 C.3   501  CTP501      0.2158
     13  C4'       22.3840   20.8110  -49.2760 C.3   501  CTP501      0.1799
     14  O4'       23.0350   20.8990  -50.5440 O.3   501  CTP501     -0.3320
     15  O3'       23.0270   19.8490  -47.0590 O.3   501  CTP501     -0.2175
     16  C5'       21.7470   22.1330  -48.9830 C.3   501  CTP501      0.1813
     17  O5'       22.7790   23.1110  -48.8550 O.3   501  CTP501     -0.3112
     18  PA        22.5670   24.4450  -47.9600 P.3   501  CTP501      0.2189
     19  O1A       21.2340   25.0020  -48.4570 O.2   501  CTP501     -0.5170
     20  O2A       23.8120   25.2810  -47.9870 O.3   501  CTP501     -0.4371
     21  O3A       22.5160   23.9240  -46.4260 O.3   501  CTP501     -0.2700
     22  PB        21.2610   23.8490  -45.3910 P.3   501  CTP501      0.2277
     23  O1B       20.0850   23.2640  -46.1720 O.2   501  CTP501     -0.5168
     24  O2B       21.7990   22.9980  -44.2480 O.3   501  CTP501     -0.4368
     25  O3B       21.0150   25.3170  -44.6620 O.3   501  CTP501     -0.2258
     26  PG        19.9470   26.5330  -44.9950 P.3   501  CTP501      0.5373
     27  O1G       20.7670   27.7520  -45.2940 O.3   501  CTP501     -0.1143
     28  O2G       19.1240   26.7730  -43.7510 O.3   501  CTP501     -0.1143
     29  O3G       19.1660   25.9280  -46.1600 O.2   501  CTP501     -0.2221
@<TRIPOS>BOND
     1     8     4    1
     2     3     4    2
     3     3     2    2
     4     7     2    2
     5     4     5    1
     6     2     1   am
     7     5     6    2
     8     1     6    1
     9     1     9    1
    10    14     9    1
    11    14    13    1
    12     9    10    1
    13    13    16    1
    14    13    12    1
    15    10    11    1
    16    10    12    1
    17    16    17    1
    18    17    18    1
    19    19    18    2
    20    12    15    1
    21    20    18    1
    22    18    21    1
    23    21    22    1
    24    23    22    2
    25    29    26    2
    26    22    25    1
    27    22    24    1
    28    27    26    1
    29    26    25    1
    30    26    28    1
