@<TRIPOS>MOLECULE
2q0d_ATP_A_1.pdb
 31 33 0 0 0
SMALL
GASTEIGER

@<TRIPOS>ATOM
      1  PG        20.2050   26.3460  -45.1400 P.3   501  ATP501      0.5373
      2  O1G       21.1130   27.5040  -45.2600 O.3   501  ATP501     -0.1143
      3  O2G       19.3830   26.3990  -43.8980 O.3   501  ATP501     -0.1143
      4  O3G       19.4630   25.8570  -46.3890 O.2   501  ATP501     -0.2221
      5  PB        21.5460   23.7180  -45.3610 P.3   501  ATP501      0.2277
      6  O1B       20.4070   23.1710  -46.1930 O.2   501  ATP501     -0.5168
      7  O2B       22.0460   22.9330  -44.2020 O.3   501  ATP501     -0.4368
      8  O3B       21.2860   25.1860  -44.7620 O.3   501  ATP501     -0.2258
      9  PA        23.0050   24.2960  -47.8050 P.3   501  ATP501      0.2189
     10  O1A       21.7210   24.8680  -48.3300 O.2   501  ATP501     -0.5170
     11  O2A       24.1850   25.2430  -47.7810 O.3   501  ATP501     -0.4371
     12  O3A       22.8770   23.8340  -46.2870 O.3   501  ATP501     -0.2700
     13  O5'       23.3760   22.9380  -48.5790 O.3   501  ATP501     -0.3112
     14  C5'       22.4720   21.8800  -48.9660 C.3   501  ATP501      0.1813
     15  C4'       23.2460   20.9630  -49.9000 C.3   501  ATP501      0.1821
     16  O4'       23.9440   21.7000  -50.9070 O.3   501  ATP501     -0.3135
     17  C3'       24.3470   20.2140  -49.1520 C.3   501  ATP501      0.2184
     18  O3'       23.9260   18.8970  -48.8360 O.3   501  ATP501     -0.2174
     19  C2'       25.5160   20.1300  -50.1050 C.3   501  ATP501      0.2570
     20  O2'       25.4060   18.9450  -50.8940 O.3   501  ATP501     -0.2130
     21  C1'       25.3080   21.2450  -51.0890 C.3   501  ATP501      0.3186
     22  N9        26.3450   22.2920  -50.8490 N.pl3 501  ATP501     -0.1439
     23  C8        26.1560   23.4270  -50.1350 C.3   501  ATP501      0.3377
     24  N7        27.2830   24.1930  -50.0760 N.2   501  ATP501     -0.2095
     25  C5        28.2340   23.5530  -50.7780 C.2   501  ATP501      0.2526
     26  C6        29.6510   23.8120  -51.1290 C.2   501  ATP501      0.4393
     27  N6        30.2530   24.9310  -50.7130 N.pl3 501  ATP501      0.2180
     28  N1        30.3250   22.9030  -51.8810 N.2   501  ATP501      0.0021
     29  C2        29.7230   21.7690  -52.3050 C.3   501  ATP501      0.5254
     30  N3        28.4310   21.4680  -52.0330 N.2   501  ATP501     -0.0055
     31  C4        27.6310   22.2980  -51.2810 C.2   501  ATP501      0.3518
@<TRIPOS>BOND
     1    29    30    1
     2    29    28    1
     3    30    31    2
     4    28    26    2
     5    31    22    1
     6    31    25    1
     7    26    25    1
     8    26    27    1
     9    21    16    1
    10    21    22    1
    11    21    19    1
    12    16    15    1
    13    20    19    1
    14    22    23    1
    15    25    24    2
    16    23    24    1
    17    19    17    1
    18    15    17    1
    19    15    14    1
    20    17    18    1
    21    14    13    1
    22    13     9    1
    23    10     9    2
    24     9    11    1
    25     9    12    1
    26     4     1    2
    27    12     5    1
    28     6     5    2
    29     5     8    1
    30     5     7    1
    31     2     1    1
    32     1     8    1
    33     1     3    1
