@<TRIPOS>MOLECULE
2q0e_GTP_A_1.pdb
 32 34 0 0 0
SMALL
GASTEIGER

@<TRIPOS>ATOM
      1  PG        19.8930   26.3490  -45.0240 P.3   501  GTP501      0.5373
      2  O1G       20.7660   27.5840  -45.1780 O.3   501  GTP501     -0.1143
      3  O2G       18.9840   26.6190  -43.8490 O.3   501  GTP501     -0.1143
      4  O3G       19.1040   26.0490  -46.2730 O.2   501  GTP501     -0.2221
      5  O3B       20.9090   25.1450  -44.6490 O.3   501  GTP501     -0.2258
      6  PB        21.0720   23.6980  -45.3460 P.3   501  GTP501      0.2277
      7  O1B       19.8440   23.2310  -46.1210 O.2   501  GTP501     -0.5168
      8  O2B       21.4270   22.7550  -44.2330 O.3   501  GTP501     -0.4368
      9  O3A       22.3700   23.7760  -46.2780 O.3   501  GTP501     -0.2700
     10  PA        22.4230   24.2780  -47.8020 P.3   501  GTP501      0.2189
     11  O1A       21.1010   24.8210  -48.2810 O.2   501  GTP501     -0.5170
     12  O2A       23.5680   25.2680  -47.9010 O.3   501  GTP501     -0.4371
     13  O5'       22.7460   22.9190  -48.5910 O.3   501  GTP501     -0.3112
     14  C5'       21.8810   21.7890  -48.6310 C.3   501  GTP501      0.1813
     15  C4'       22.4810   20.8450  -49.6650 C.3   501  GTP501      0.1799
     16  O4'       23.0040   21.6370  -50.7180 O.3   501  GTP501     -0.3326
     17  C3'       23.6450   20.0470  -49.0900 C.3   501  GTP501      0.2158
     18  O3'       23.3550   18.6830  -48.9280 O.3   501  GTP501     -0.2175
     19  C2'       24.7540   20.1930  -50.1020 C.3   501  GTP501      0.2310
     20  O2'       24.9450   19.0100  -50.8260 O.3   501  GTP501     -0.2158
     21  C1'       24.3450   21.3070  -51.0470 C.3   501  GTP501      0.2293
     22  N9        25.3480   22.3620  -50.7700 N.pl3 501  GTP501     -0.2354
     23  C8        25.2250   23.4970  -50.0050 C.3   501  GTP501      0.2246
     24  N7        26.4120   24.1500  -49.9870 N.2   501  GTP501     -0.2322
     25  C5        27.3090   23.4490  -50.7200 C.2   501  GTP501      0.2182
     26  C6        28.6580   23.6530  -51.0430 C.1   501  GTP501      0.2372
     27  O6        29.2510   24.6410  -50.6200 O.2   501  GTP501     -0.2069
     28  N1        29.3270   22.7300  -51.8430 N.2   501  GTP501     -0.2485
     29  C2        28.6290   21.6150  -52.3070 C.1   501  GTP501      0.2531
     30  N2        29.1970   20.6950  -53.0770 N.pl3 501  GTP501     -0.0226
     31  N3        27.2970   21.4200  -51.9870 N.2   501  GTP501     -0.3074
     32  C4        26.6460   22.3220  -51.2060 C.2   501  GTP501      0.2300
@<TRIPOS>BOND
     1    30    29    1
     2    29    31    2
     3    29    28    2
     4    31    32    2
     5    28    26    2
     6    32    22    1
     7    32    25    1
     8    21    22    1
     9    21    16    1
    10    21    19    1
    11    26    25    1
    12    26    27    2
    13    20    19    1
    14    22    23    1
    15    25    24    2
    16    16    15    1
    17    19    17    1
    18    23    24    1
    19    15    17    1
    20    15    14    1
    21    17    18    1
    22    14    13    1
    23    13    10    1
    24    11    10    2
    25    12    10    1
    26    10     9    1
    27     9     6    1
    28     4     1    2
    29     7     6    2
    30     6     5    1
    31     6     8    1
    32     2     1    1
    33     1     5    1
    34     1     3    1
