@<TRIPOS>MOLECULE
2q0f_UTP_A_1.pdb
 29 30 0 0 0
SMALL
GASTEIGER

@<TRIPOS>ATOM
      1  PA        23.0240   24.5630  -47.5770 P.3   501  UTP501      0.2189
      2  O1A       21.9360   25.3840  -48.2310 O.2   501  UTP501     -0.5170
      3  O2A       24.4400   25.0820  -47.5740 O.3   501  UTP501     -0.4371
      4  O3A       22.7980   24.2520  -46.0010 O.3   501  UTP501     -0.2700
      5  O5'       23.1030   23.1570  -48.3470 O.3   501  UTP501     -0.3112
      6  PB        21.5330   23.8800  -45.0510 P.3   501  UTP501      0.2277
      7  O1B       20.3570   23.4270  -45.8930 O.2   501  UTP501     -0.5168
      8  O2B       22.1350   22.9780  -43.9890 O.3   501  UTP501     -0.4368
      9  O3B       21.1900   25.2130  -44.1610 O.3   501  UTP501     -0.2258
     10  PG        20.5380   26.5930  -44.7130 P.3   501  UTP501      0.5373
     11  O1G       21.6870   27.5430  -45.0400 O.3   501  UTP501     -0.1143
     12  O2G       19.6620   27.0160  -43.5540 O.3   501  UTP501     -0.1143
     13  O3G       19.7430   26.1760  -45.9340 O.2   501  UTP501     -0.2221
     14  C5'       22.2970   22.0400  -47.9910 C.3   501  UTP501      0.1813
     15  C4'       22.9610   20.7950  -48.5540 C.3   501  UTP501      0.1799
     16  O4'       23.4910   20.9970  -49.8660 O.3   501  UTP501     -0.3320
     17  C1'       24.6600   20.1710  -50.0510 C.3   501  UTP501      0.2401
     18  C2'       24.8630   19.4310  -48.7220 C.3   501  UTP501      0.2319
     19  O2'       24.2610   18.1220  -48.7200 O.3   501  UTP501     -0.2157
     20  C3'       24.1830   20.3830  -47.7580 C.3   501  UTP501      0.2158
     21  O3'       23.8950   19.8580  -46.4620 O.3   501  UTP501     -0.2175
     22  N1        25.8720   20.9800  -50.3160 N.am  501  UTP501     -0.1766
     23  C6        25.8190   22.3140  -50.1570 C.2   501  UTP501      0.0929
     24  C2        27.0500   20.3890  -50.6930 C.1   501  UTP501      0.2845
     25  O2        27.1700   19.1410  -50.8760 O.2   501  UTP501     -0.1918
     26  N3        28.1540   21.1430  -50.9320 N.2   501  UTP501     -0.2452
     27  C4        28.1310   22.4880  -50.7730 C.1   501  UTP501      0.2182
     28  O4        29.2730   23.2030  -51.0030 O.2   501  UTP501     -0.2085
     29  C5        26.9460   23.1160  -50.3700 C.2   501  UTP501      0.1242
@<TRIPOS>BOND
     1    28    27    2
     2    26    27    2
     3    26    24    2
     4    25    24    2
     5    27    29    1
     6    24    22   am
     7    29    23    2
     8    22    23    1
     9    22    17    1
    10    17    16    1
    11    17    18    1
    12    16    15    1
    13    18    19    1
    14    18    20    1
    15    15    14    1
    16    15    20    1
    17     5    14    1
    18     5     1    1
    19     2     1    2
    20    20    21    1
    21     1     3    1
    22     1     4    1
    23     4     6    1
    24    13    10    2
    25     7     6    2
    26     6     9    1
    27     6     8    1
    28    11    10    1
    29    10     9    1
    30    10    12    1
