@<TRIPOS>MOLECULE
2q0f_U5P_A_1.pdb
 21 22 0 0 0
SMALL
GASTEIGER

@<TRIPOS>ATOM
      1  N1        24.0160   21.7780  -54.1550 N.am  502  U5P502     -0.1766
      2  C2        24.2540   20.3770  -54.0170 C.1   502  U5P502      0.2845
      3  N3        25.5010   19.9050  -53.9570 N.2   502  U5P502     -0.2452
      4  C4        26.5610   20.7210  -54.0270 C.1   502  U5P502      0.2182
      5  C5        26.3980   22.1030  -54.1580 C.2   502  U5P502      0.1242
      6  C6        25.0920   22.6030  -54.2240 C.2   502  U5P502      0.0929
      7  O2        23.3220   19.5490  -53.9480 O.2   502  U5P502     -0.1918
      8  O4        27.7010   20.2250  -53.9610 O.2   502  U5P502     -0.2085
      9  C1'       22.6280   22.3190  -54.2410 C.3   502  U5P502      0.2401
     10  C2'       21.9860   22.5520  -52.8840 C.3   502  U5P502      0.2319
     11  O2'       20.6110   22.1550  -52.9860 O.3   502  U5P502     -0.2157
     12  C3'       22.1610   24.0480  -52.6460 C.3   502  U5P502      0.2158
     13  C4'       22.1920   24.6490  -54.0500 C.3   502  U5P502      0.1801
     14  O3'       21.1350   24.6130  -51.8150 O.3   502  U5P502     -0.2175
     15  O4'       22.5720   23.5830  -54.9290 O.3   502  U5P502     -0.3320
     16  C5'       23.1530   25.8290  -54.2180 C.3   502  U5P502      0.1859
     17  O5'       24.5340   25.4570  -54.0540 O.3   502  U5P502     -0.2675
     18  P         25.5940   26.5140  -53.4250 P.3   502  U5P502      0.5327
     19  O1P       25.4000   27.7070  -54.3570 O.2   502  U5P502     -0.2224
     20  O2P       26.9500   25.8340  -53.5270 O.3   502  U5P502     -0.1145
     21  O3P       25.1460   26.7650  -51.9900 O.3   502  U5P502     -0.1145
@<TRIPOS>BOND
     1    15     9    1
     2    15    13    1
     3    19    18    2
     4     9     1    1
     5     9    10    1
     6     6     5    2
     7     6     1    1
     8    16    17    1
     9    16    13    1
    10     5     4    1
    11     1     2   am
    12    17    18    1
    13    13    12    1
    14     4     8    2
    15     4     3    2
    16     2     3    2
    17     2     7    2
    18    20    18    1
    19    18    21    1
    20    11    10    1
    21    10    12    1
    22    12    14    1
