@<TRIPOS>MOLECULE
2q0g_UPU_A_1.pdb
 37 40 0 0 0
SMALL
GASTEIGER

@<TRIPOS>ATOM
      1  O2A       28.6130   19.2510  -50.6700 O.2   501  UPU501     -0.1918
      2  C2A       28.4500   20.4610  -50.5780 C.1   501  UPU501      0.2845
      3  N3A       29.5310   21.2110  -50.8460 N.2   501  UPU501     -0.2452
      4  C4A       29.4680   22.5640  -50.7480 C.1   501  UPU501      0.2182
      5  O4A       30.5820   23.3140  -51.0060 O.2   501  UPU501     -0.2085
      6  C5A       28.2680   23.1760  -50.4060 C.2   501  UPU501      0.1242
      7  C6A       27.1580   22.3580  -50.1510 C.2   501  UPU501      0.0929
      8  N1A       27.2540   21.0000  -50.2420 N.am  501  UPU501     -0.1766
      9 C1'A       26.0780   20.1420  -49.9570 C.3   501  UPU501      0.2401
     10 O4'A       24.8500   20.8120  -50.2180 O.3   501  UPU501     -0.3320
     11 C2'A       26.0690   19.8860  -48.4550 C.3   501  UPU501      0.2319
     12 O2'A       25.6480   18.5430  -48.1620 O.3   501  UPU501     -0.2157
     13 C3'A       25.1090   20.9170  -47.9030 C.3   501  UPU501      0.2158
     14 O3'A       24.5190   20.5680  -46.6400 O.3   501  UPU501     -0.2175
     15 C4'A       24.0900   20.9210  -49.0040 C.3   501  UPU501      0.1799
     16 C5'A       23.1820   22.1490  -48.9030 C.3   501  UPU501      0.1813
     17 O5'A       23.8920   23.2430  -49.4470 O.3   501  UPU501     -0.3114
     18  P         23.3210   24.6910  -49.8350 P.3   501  UPU501      0.2141
     19  O1        22.0440   25.0330  -49.0570 O.3   501  UPU501     -0.4373
     20  O2        24.5610   25.5380  -49.6300 O.2   501  UPU501     -0.5172
     21 O3'B       22.8910   24.5930  -51.3980 O.3   501  UPU501     -0.3112
     22 C3'B       23.7470   24.0500  -52.4070 C.3   501  UPU501      0.1858
     23 C4'B       23.7960   24.8190  -53.7150 C.3   501  UPU501      0.1800
     24 C5'B       24.6150   26.1040  -53.7290 C.3   501  UPU501      0.2141
     25 O5'B       25.8200   25.9970  -52.9500 O.3   501  UPU501     -0.2176
     26 O4'B       24.4040   23.8800  -54.5950 O.3   501  UPU501     -0.3320
     27 C2'B       23.3920   22.6420  -52.8890 C.3   501  UPU501      0.2291
     28 O2'B       22.0040   22.4750  -53.1620 O.3   501  UPU501     -0.2158
     29 C1'B       24.1420   22.5270  -54.2090 C.3   501  UPU501      0.2400
     30  N1B       25.4310   21.8180  -54.0800 N.am  501  UPU501     -0.1766
     31  C2B       25.4870   20.4630  -54.0030 C.1   501  UPU501      0.2845
     32  O2B       24.4360   19.7870  -54.0170 O.2   501  UPU501     -0.1918
     33  C6B       26.5800   22.5410  -54.0410 C.2   501  UPU501      0.0929
     34  C5B       27.8240   21.9150  -53.9140 C.2   501  UPU501      0.1242
     35  C4B       27.8470   20.5170  -53.8370 C.1   501  UPU501      0.2182
     36  N3B       26.6830   19.8070  -53.8880 N.2   501  UPU501     -0.2452
     37  O4B       28.9370   19.9230  -53.7280 O.2   501  UPU501     -0.2085
@<TRIPOS>BOND
     1    26    29    1
     2    26    23    1
     3    29    30    1
     4    29    27    1
     5    30    33    1
     6    30    31   am
     7    33    34    2
     8    32    31    2
     9    31    36    2
    10    34    35    1
    11    36    35    2
    12    35    37    2
    13    24    23    1
    14    24    25    1
    15    23    22    1
    16    28    27    1
    17    27    22    1
    18    22    21    1
    19    21    18    1
    20     5     4    2
    21     3     4    2
    22     3     2    2
    23     4     6    1
    24     1     2    2
    25     2     8   am
    26     6     7    2
    27     8     7    1
    28     8     9    1
    29    10     9    1
    30    10    15    1
    31     9    11    1
    32    18    20    2
    33    18    17    1
    34    18    19    1
    35    17    16    1
    36    15    16    1
    37    15    13    1
    38    11    12    1
    39    11    13    1
    40    13    14    1
