@<TRIPOS>MOLECULE
2q0h_ADP_A_1.pdb
 27 29 0 0 0
SMALL
GASTEIGER

@<TRIPOS>ATOM
      1  PB        16.4900    7.0820    5.4070 P.3   401  ADP401      0.5373
      2  O1B       16.8180    8.0260    4.3140 O.2   401  ADP401     -0.2221
      3  O2B       15.1810    6.1890    5.1130 O.3   401  ADP401     -0.1143
      4  O3B       16.1920    7.8530    6.7880 O.3   401  ADP401     -0.1143
      5  PA        18.2370    4.9870    4.6760 P.3   401  ADP401      0.2231
      6  O1A       18.0000    3.5930    5.1120 O.3   401  ADP401     -0.4370
      7  O2A       17.5540    5.3100    3.2540 O.2   401  ADP401     -0.5169
      8  O3A       17.6600    6.0340    5.7540 O.3   401  ADP401     -0.2261
      9  O5'       19.7880    5.3820    4.5160 O.3   401  ADP401     -0.3111
     10  C5'       20.7800    4.4430    4.0960 C.3   401  ADP401      0.1813
     11  C4'       22.1190    5.1740    3.9700 C.3   401  ADP401      0.1821
     12  O4'       23.0630    4.3250    3.2970 O.3   401  ADP401     -0.3135
     13  C3'       21.9110    6.3370    3.0000 C.3   401  ADP401      0.2184
     14  O3'       23.0980    7.1330    2.9390 O.3   401  ADP401     -0.2174
     15  C2'       21.7630    5.5270    1.7150 C.3   401  ADP401      0.2570
     16  O2'       21.9820    6.3780    0.5870 O.3   401  ADP401     -0.2130
     17  C1'       22.9600    4.5890    1.8860 C.3   401  ADP401      0.3186
     18  N9        22.7710    3.3290    1.1340 N.pl3 401  ADP401     -0.1439
     19  C8        21.6290    2.6560    1.0090 C.3   401  ADP401      0.3377
     20  N7        21.8420    1.5390    0.3170 N.2   401  ADP401     -0.2095
     21  C5        23.1310    1.5010   -0.0050 C.2   401  ADP401      0.2526
     22  C6        23.9280    0.5990   -0.6990 C.2   401  ADP401      0.4393
     23  N6        23.4020   -0.5180   -1.1940 N.pl3 401  ADP401      0.2180
     24  N1        25.2340    0.8670   -0.8450 N.2   401  ADP401      0.0021
     25  C2        25.7650    1.9680   -0.3410 C.3   401  ADP401      0.5254
     26  N3        25.0380    2.8470    0.3270 N.2   401  ADP401     -0.0055
     27  C4        23.7270    2.6440    0.5110 C.2   401  ADP401      0.3518
@<TRIPOS>BOND
     1    23    22    1
     2    24    22    2
     3    24    25    1
     4    22    21    1
     5    25    26    1
     6    21    20    2
     7    21    27    1
     8    20    19    1
     9    26    27    2
    10    27    18    1
    11    16    15    1
    12    19    18    1
    13    18    17    1
    14    15    17    1
    15    15    13    1
    16    17    12    1
    17    14    13    1
    18    13    11    1
    19     7     5    2
    20    12    11    1
    21    11    10    1
    22    10     9    1
    23     2     1    2
    24     9     5    1
    25     5     6    1
    26     5     8    1
    27     3     1    1
    28     1     8    1
    29     1     4    1
