@<TRIPOS>MOLECULE
2q0k_NAP_A_1.pdb
 48 52 0 0 0
SMALL
GASTEIGER

@<TRIPOS>ATOM
      1  PA         8.2580  -23.8150   36.8420 P.3   401  NAP401      0.2189
      2  O1A        9.5020  -24.1900   37.5650 O.3   401  NAP401     -0.4371
      3  O2A        7.3240  -24.7940   36.2210 O.2   401  NAP401     -0.5170
      4  O5B        7.5310  -23.9150   38.3150 O.3   401  NAP401     -0.3112
      5  C5B        6.1040  -24.0240   38.5060 C.3   401  NAP401      0.1813
      6  C4B        5.6770  -24.1760   39.9700 C.3   401  NAP401      0.1820
      7  O4B        4.2170  -24.1670   39.8800 O.3   401  NAP401     -0.3136
      8  C3B        6.0590  -25.5220   40.5810 C.3   401  NAP401      0.2157
      9  O3B        6.4450  -25.2880   41.9420 O.3   401  NAP401     -0.2175
     10  C2B        4.7670  -26.3710   40.4600 C.3   401  NAP401      0.2314
     11  O2B        4.5960  -27.2680   41.5460 O.3   401  NAP401     -0.2630
     12  C1B        3.6850  -25.3260   40.6050 C.3   401  NAP401      0.3158
     13  N9A        2.3960  -25.6280   39.9310 N.pl3 401  NAP401     -0.1439
     14  C8A        2.2000  -25.9730   38.6560 C.3   401  NAP401      0.3377
     15  N7A        0.8940  -26.1160   38.4430 N.2   401  NAP401     -0.2095
     16  C5A        0.2620  -25.8750   39.5920 C.2   401  NAP401      0.2526
     17  C6A       -1.0770  -25.8650   39.9680 C.2   401  NAP401      0.4393
     18  N6A       -2.0320  -26.1700   39.0770 N.pl3 401  NAP401      0.2180
     19  N1A       -1.3750  -25.5520   41.2500 N.2   401  NAP401      0.0021
     20  C2A       -0.4250  -25.2430   42.1410 C.3   401  NAP401      0.5254
     21  N3A        0.8630  -25.2380   41.8070 N.2   401  NAP401     -0.0055
     22  C4A        1.2140  -25.5460   40.5340 C.2   401  NAP401      0.3518
     23  O3         7.7820  -22.2410   36.7830 O.3   401  NAP401     -0.2703
     24  PN         8.7660  -20.9170   36.8880 P.3   401  NAP401      0.2189
     25  O1N        7.7050  -20.1790   36.1440 O.2   401  NAP401     -0.5170
     26  O2N        8.8070  -21.0900   38.3640 O.3   401  NAP401     -0.4371
     27  O5D        9.9450  -21.6780   36.1060 O.3   401  NAP401     -0.3112
     28  C5D       10.0640  -21.6760   34.6960 C.3   401  NAP401      0.1813
     29  C4D       11.5600  -21.8710   34.2750 C.3   401  NAP401      0.1799
     30  O4D       12.2300  -20.5580   34.2730 O.3   401  NAP401     -0.3327
     31  C3D       12.3030  -22.7550   35.2860 C.3   401  NAP401      0.2158
     32  O3D       13.3170  -23.5270   34.6110 O.3   401  NAP401     -0.2175
     33  C2D       12.9170  -21.7040   36.2190 C.3   401  NAP401      0.2309
     34  O2D       14.0710  -22.2090   36.8970 O.3   401  NAP401     -0.2158
     35  C1D       13.3250  -20.6100   35.2310 C.3   401  NAP401      0.2263
     36  N1N       13.4830  -19.3210   35.9570 N.pl3 401  NAP401     -0.2787
     37  C2N       14.7640  -18.8700   36.3150 C.3   401  NAP401      0.1244
     38  C3N       14.9270  -17.6630   36.9980 C.2   401  NAP401      0.0544
     39  C7N       16.3470  -17.2050   37.3770 C.2   401  NAP401      0.2818
     40  O7N       17.3130  -17.9370   37.1640 O.2   401  NAP401     -0.2670
     41  N7N       16.4680  -15.9990   37.9340 N.am  401  NAP401     -0.0839
     42  C4N       13.7990  -16.9080   37.3260 C.2   401  NAP401      0.0033
     43  C5N       12.5230  -17.3470   36.9820 C.2   401  NAP401      0.0157
     44  C6N       12.3560  -18.5500   36.2900 C.2   401  NAP401      0.0633
     45  P2B        5.5840  -28.4860   41.7650 P.3   401  NAP401      0.5328
     46  O1X        4.8100  -29.4300   42.8310 O.3   401  NAP401     -0.1145
     47  O2X        5.5740  -29.2270   40.3560 O.2   401  NAP401     -0.2224
     48  O3X        6.9150  -28.0030   42.2210 O.3   401  NAP401     -0.1145
@<TRIPOS>BOND
     1    30    29    1
     2    30    35    1
     3    29    28    1
     4    29    31    1
     5    32    31    1
     6    28    27    1
     7    35    36    1
     8    35    33    1
     9    31    33    1
    10    36    44    1
    11    36    37    1
    12    27    24    1
    13    25    24    2
    14    33    34    1
    15     3     1    2
    16    44    43    2
    17    37    38    1
    18    23     1    1
    19    23    24    1
    20     1     2    1
    21     1     4    1
    22    24    26    1
    23    43    42    1
    24    38    42    2
    25    38    39    1
    26    40    39    2
    27    39    41   am
    28     4     5    1
    29    15    14    1
    30    15    16    2
    31     5     6    1
    32    14    13    1
    33    18    17    1
    34    16    17    1
    35    16    22    1
    36     7     6    1
    37     7    12    1
    38    13    22    1
    39    13    12    1
    40    17    19    2
    41     6     8    1
    42    47    45    2
    43    10     8    1
    44    10    12    1
    45    10    11    1
    46    22    21    2
    47     8     9    1
    48    19    20    1
    49    11    45    1
    50    45    48    1
    51    45    46    1
    52    21    20    1
