@<TRIPOS>MOLECULE
2q0l_NAP_A_1.pdb
 48 52 0 0 0
SMALL
GASTEIGER

@<TRIPOS>ATOM
      1  PA         9.4820  -24.1780   36.9980 P.3   401  NAP401      0.2189
      2  O1A       10.8510  -24.4110   37.4130 O.3   401  NAP401     -0.4371
      3  O2A        8.6390  -25.1140   36.2640 O.2   401  NAP401     -0.5170
      4  O5B        8.8320  -24.3930   38.4840 O.3   401  NAP401     -0.3112
      5  C5B        7.4210  -24.4850   38.6790 C.3   401  NAP401      0.1813
      6  C4B        7.0810  -24.5480   40.1900 C.3   401  NAP401      0.1820
      7  O4B        5.6390  -24.4940   40.3860 O.3   401  NAP401     -0.3136
      8  C3B        7.5420  -25.8510   40.8470 C.3   401  NAP401      0.2157
      9  O3B        7.9810  -25.5510   42.1800 O.3   401  NAP401     -0.2175
     10  C2B        6.2790  -26.7120   40.8250 C.3   401  NAP401      0.2314
     11  O2B        6.1850  -27.5970   41.9320 O.3   401  NAP401     -0.2630
     12  C1B        5.1770  -25.6980   41.0560 C.3   401  NAP401      0.3158
     13  N9A        3.8950  -26.0550   40.4170 N.pl3 401  NAP401     -0.1439
     14  C8A        3.6940  -26.4570   39.1560 C.3   401  NAP401      0.3377
     15  N7A        2.3920  -26.6580   38.9430 N.2   401  NAP401     -0.2095
     16  C5A        1.7530  -26.3850   40.0850 C.2   401  NAP401      0.2526
     17  C6A        0.4160  -26.4010   40.4680 C.2   401  NAP401      0.4393
     18  N6A       -0.5680  -26.7670   39.6110 N.pl3 401  NAP401      0.2180
     19  N1A        0.1190  -26.0510   41.7330 N.2   401  NAP401      0.0021
     20  C2A        1.0650  -25.6780   42.5930 C.3   401  NAP401      0.5254
     21  N3A        2.3540  -25.6540   42.2730 N.2   401  NAP401     -0.0055
     22  C4A        2.7090  -25.9890   41.0130 C.2   401  NAP401      0.3518
     23  O3         8.9700  -22.6800   36.8240 O.3   401  NAP401     -0.2703
     24  PN         9.7910  -21.2170   36.8130 P.3   401  NAP401      0.2189
     25  O1N        8.7190  -20.4780   36.1440 O.2   401  NAP401     -0.5170
     26  O2N       10.0520  -21.1520   38.2330 O.3   401  NAP401     -0.4371
     27  O5D       11.0250  -21.6750   35.9650 O.3   401  NAP401     -0.3112
     28  C5D       11.0190  -21.8900   34.5600 C.3   401  NAP401      0.1813
     29  C4D       12.4880  -22.0690   34.0990 C.3   401  NAP401      0.1799
     30  O4D       13.1000  -20.7530   34.0560 O.3   401  NAP401     -0.3327
     31  C3D       13.3550  -22.9040   35.0630 C.3   401  NAP401      0.2158
     32  O3D       14.3810  -23.5940   34.3390 O.3   401  NAP401     -0.2175
     33  C2D       14.0150  -21.8340   35.8990 C.3   401  NAP401      0.2309
     34  O2D       15.2530  -22.2820   36.4470 O.3   401  NAP401     -0.2158
     35  C1D       14.2970  -20.7840   34.8340 C.3   401  NAP401      0.2263
     36  N1N       14.4840  -19.4780   35.4970 N.pl3 401  NAP401     -0.2787
     37  C2N       15.7800  -19.0180   35.6840 C.3   401  NAP401      0.1244
     38  C3N       16.0070  -17.8120   36.3170 C.2   401  NAP401      0.0544
     39  C7N       17.4660  -17.3890   36.4570 C.2   401  NAP401      0.2818
     40  O7N       18.3320  -17.9480   35.7780 O.2   401  NAP401     -0.2670
     41  N7N       17.7360  -16.4230   37.3330 N.am  401  NAP401     -0.0839
     42  C4N       14.9350  -17.0520   36.7870 C.2   401  NAP401      0.0033
     43  C5N       13.6300  -17.5090   36.6140 C.2   401  NAP401      0.0157
     44  C6N       13.3970  -18.7280   35.9780 C.2   401  NAP401      0.0633
     45  P2B        7.1450  -28.8460   42.0940 P.3   401  NAP401      0.5328
     46  O1X        6.4610  -29.6580   43.2810 O.3   401  NAP401     -0.1145
     47  O2X        7.0190  -29.6200   40.7280 O.2   401  NAP401     -0.2224
     48  O3X        8.4920  -28.3180   42.4350 O.3   401  NAP401     -0.1145
@<TRIPOS>BOND
     1    30    29    1
     2    30    35    1
     3    29    28    1
     4    29    31    1
     5    32    31    1
     6    28    27    1
     7    35    36    1
     8    35    33    1
     9    31    33    1
    10    36    37    1
    11    36    44    1
    12    37    38    1
    13    40    39    2
    14    33    34    1
    15    27    24    1
    16    44    43    2
    17    25    24    2
    18     3     1    2
    19    38    39    1
    20    38    42    2
    21    39    41   am
    22    43    42    1
    23    24    23    1
    24    24    26    1
    25    23     1    1
    26     1     2    1
    27     1     4    1
    28     4     5    1
    29     5     6    1
    30    15    14    1
    31    15    16    2
    32    14    13    1
    33    18    17    1
    34    16    17    1
    35    16    22    1
    36     6     7    1
    37     6     8    1
    38     7    12    1
    39    13    22    1
    40    13    12    1
    41    17    19    2
    42    47    45    2
    43    10     8    1
    44    10    12    1
    45    10    11    1
    46     8     9    1
    47    22    21    2
    48    19    20    1
    49    11    45    1
    50    45    48    1
    51    45    46    1
    52    21    20    1
