@<TRIPOS>MOLECULE
2q0o_LAE_A_1.pdb
 17 17 0 0 0
SMALL
GASTEIGER

@<TRIPOS>ATOM
      1  C1       -10.0490   34.7090   -9.0600 C.3   1001  LAE1001     0.2189
      2  C2       -10.7810   35.6410  -10.0060 C.2   1001  LAE1001     0.3460
      3  O3       -11.8580   36.0540   -9.4170 O.3   1001  LAE1001    -0.4198
      4  C4       -12.1530   35.5330   -7.9420 C.2   1001  LAE1001     0.1805
      5  C5       -10.8370   34.6340   -7.8350 C.2   1001  LAE1001     0.0471
      6  O10      -10.4490   35.9450  -11.0830 O.2   1001  LAE1001    -0.2474
      7  N11       -8.6510   35.1880   -8.9510 N.am  1001  LAE1001    -0.1907
      8  C13       -7.8530   34.2480   -9.5830 C.2   1001  LAE1001     0.2496
      9  C14       -6.3780   34.5800   -9.6910 C.3   1001  LAE1001     0.1510
     10  C15       -5.8180   35.1850  -11.0020 C.2   1001  LAE1001     0.1599
     11  C18       -6.5080   36.4650  -11.5360 C.3   1001  LAE1001     0.0650
     12  C19       -6.6580   36.4730  -13.0540 C.3   1001  LAE1001     0.0078
     13  C22       -7.3470   37.7490  -13.5340 C.3   1001  LAE1001     0.0004
     14  C25       -7.5400   37.8320  -15.0490 C.3   1001  LAE1001     0.0000
     15  C28       -8.0980   39.2200  -15.1980 C.3   1001  LAE1001     0.0000
     16  O35       -8.1610   33.1990  -10.1330 O.2   1001  LAE1001    -0.2728
     17  O36       -4.8960   34.6760  -11.5600 O.2   1001  LAE1001    -0.2955
@<TRIPOS>BOND
     1    15    14    1
     2    14    13    1
     3    13    12    1
     4    12    11    1
     5    17    10    2
     6    11    10    1
     7     6     2    2
     8    10     9    1
     9    16     8    2
    10     2     3    1
    11     2     1    1
    12     9     8    1
    13     8     7   am
    14     3     4    1
    15     1     7    1
    16     1     5    1
    17     4     5    2
