@<TRIPOS>MOLECULE
2q0r_ATP_A_1.pdb
 31 33 0 0 0
SMALL
GASTEIGER

@<TRIPOS>ATOM
      1  PG         8.1410    2.7280   25.8010 P.3   425  ATP425      0.5373
      2  O1G        7.6190    2.9800   24.4010 O.2   425  ATP425     -0.2221
      3  O2G        7.1090    2.7490   26.8960 O.3   425  ATP425     -0.1143
      4  O3G        9.0530    1.4980   25.8550 O.3   425  ATP425     -0.1143
      5  PB        10.7060    4.2050   25.9330 P.3   425  ATP425      0.2277
      6  O1B       10.8690    5.6520   25.4890 O.3   425  ATP425     -0.4368
      7  O2B       11.3350    3.0900   25.1510 O.2   425  ATP425     -0.5168
      8  O3B        9.1300    3.9850   26.1470 O.3   425  ATP425     -0.2258
      9  PA        12.6390    3.7420   28.0640 P.3   425  ATP425      0.2189
     10  O1A       12.7000    2.2720   28.3210 O.3   425  ATP425     -0.4371
     11  O2A       13.6740    4.4410   27.2250 O.2   425  ATP425     -0.5170
     12  O3A       11.1680    4.0580   27.4770 O.3   425  ATP425     -0.2700
     13  O5'       12.5300    4.4520   29.4890 O.3   425  ATP425     -0.3112
     14  C5'       12.1470    5.8180   29.6860 C.3   425  ATP425      0.1813
     15  C4'       11.3330    5.9020   30.9810 C.3   425  ATP425      0.1821
     16  O4'       12.1250    5.3470   32.0520 O.3   425  ATP425     -0.3135
     17  C3'       10.9480    7.2930   31.4010 C.3   425  ATP425      0.2184
     18  O3'        9.6180    7.3210   31.9570 O.3   425  ATP425     -0.2174
     19  C2'       11.9740    7.6230   32.4560 C.3   425  ATP425      0.2570
     20  O2'       11.5850    8.6800   33.3410 O.3   425  ATP425     -0.2130
     21  C1'       12.1650    6.2570   33.1310 C.3   425  ATP425      0.3186
     22  N9        13.4110    6.1540   33.8980 N.pl3 425  ATP425     -0.1439
     23  C8        14.6710    6.2570   33.4290 C.3   425  ATP425      0.3377
     24  N7        15.5570    6.0940   34.4430 N.2   425  ATP425     -0.2095
     25  C5        14.8380    5.8410   35.5590 C.2   425  ATP425      0.2526
     26  C6        15.1360    5.5860   36.9670 C.2   425  ATP425      0.4393
     27  N6        16.4200    5.5340   37.3760 N.pl3 425  ATP425      0.2180
     28  N1        14.1100    5.3650   37.8180 N.2   425  ATP425      0.0021
     29  C2        12.8300    5.4250   37.3900 C.3   425  ATP425      0.5254
     30  N3        12.4830    5.6370   36.1120 N.2   425  ATP425     -0.0055
     31  C4        13.4320    5.8590   35.1800 C.2   425  ATP425      0.3518
@<TRIPOS>BOND
     1     2     1    2
     2     7     5    2
     3     6     5    1
     4     1     4    1
     5     1     8    1
     6     1     3    1
     7     5     8    1
     8     5    12    1
     9    11     9    2
    10    12     9    1
    11     9    10    1
    12     9    13    1
    13    13    14    1
    14    14    15    1
    15    15    17    1
    16    15    16    1
    17    17    18    1
    18    17    19    1
    19    16    21    1
    20    19    21    1
    21    19    20    1
    22    21    22    1
    23    23    22    1
    24    23    24    1
    25    22    31    1
    26    24    25    2
    27    31    25    1
    28    31    30    2
    29    25    26    1
    30    30    29    1
    31    26    27    1
    32    26    28    2
    33    29    28    1
