@<TRIPOS>MOLECULE
2q0u_LAB_A_1.pdb
 27 29 0 0 0
SMALL
GASTEIGER

@<TRIPOS>ATOM
      1  O5         8.9900   11.4780   32.7150 O.2   401  LAB401     -0.2155
      2  C18        8.9230   12.1390   31.7000 C.1   401  LAB401      0.1790
      3  N1         8.9830   11.7260   30.4470 N.2   401  LAB401     -0.1932
      4  C16        8.9780   12.7020   29.3130 C.3   401  LAB401      0.1810
      5  C17        8.6560   14.0530   29.8760 C.3   401  LAB401      0.1042
      6  S1         8.7260   13.9290   31.7110 S.3   401  LAB401     -0.0192
      7  C15       10.3860   12.6960   28.7400 C.3   401  LAB401      0.2448
      8  O4        11.2710   13.3830   29.6440 O.3   401  LAB401     -0.1930
      9  C14       11.1020   11.3830   28.5860 C.3   401  LAB401      0.1048
     10  C13       12.1460   11.3230   27.5070 C.3   401  LAB401      0.1766
     11  O2        13.3860   11.8570   28.1230 O.3   401  LAB401     -0.4490
     12  C12       12.1630   12.3060   26.3860 C.3   401  LAB401      0.0734
     13  C11       11.4910   13.5820   26.7180 C.3   401  LAB401      0.1214
     14  O3        10.3790   13.5790   27.6700 O.3   401  LAB401     -0.3329
     15  C10       11.2070   14.7090   25.6480 C.3   401  LAB401      0.0301
     16  C9        11.1740   16.0830   26.1910 C.3   401  LAB401      0.0068
     17  C8        12.5650   16.4590   26.8540 C.3   401  LAB401      0.0218
     18  C20       12.4810   18.2200   27.1420 C.3   401  LAB401      0.0047
     19  C7        13.9710   16.2270   26.2020 C.2   401  LAB401     -0.0310
     20  C6        14.9750   15.5910   26.6320 C.2   401  LAB401     -0.0304
     21  C5        15.0960   14.9180   27.9150 C.3   401  LAB401      0.0300
     22  C4        15.7570   13.5010   27.8120 C.3   401  LAB401      0.0269
     23  C3        16.0350   12.7610   28.9370 C.2   401  LAB401     -0.0372
     24  C19       17.3670   13.2310   29.5910 C.3   401  LAB401      0.0266
     25  C2        15.3360   11.8100   29.4810 C.2   401  LAB401      0.0734
     26  C1        14.0830   11.1390   29.0370 C.2   401  LAB401      0.3407
     27  O1        13.7290   10.0390   29.3830 O.2   401  LAB401     -0.2449
@<TRIPOS>BOND
     1    15    16    1
     2    15    13    1
     3    16    17    1
     4    19    20    2
     5    19    17    1
     6    12    13    1
     7    12    10    1
     8    20    21    1
     9    13    14    1
    10    17    18    1
    11    10    11    1
    12    10     9    1
    13    14     7    1
    14    22    21    1
    15    22    23    1
    16    11    26    1
    17     9     7    1
    18     7     4    1
    19     7     8    1
    20    23    25    2
    21    23    24    1
    22    26    27    2
    23    26    25    1
    24     4     5    1
    25     4     3    1
    26     5     6    1
    27     3     2    2
    28     2     6    1
    29     2     1    2
