@<TRIPOS>MOLECULE
2q0u_ATP_A_1.pdb
 31 33 0 0 0
SMALL
GASTEIGER

@<TRIPOS>ATOM
      1  PG         8.1000    2.9900   26.0040 P.3   425  ATP425      0.5373
      2  O1G        7.0950    3.1830   27.0940 O.3   425  ATP425     -0.1143
      3  O2G        7.5560    3.3250   24.6260 O.2   425  ATP425     -0.2221
      4  O3G        8.8710    1.6960   26.0530 O.3   425  ATP425     -0.1143
      5  PB        10.7920    4.2500   26.1270 P.3   425  ATP425      0.2277
      6  O1B       11.2740    3.0770   25.3420 O.2   425  ATP425     -0.5168
      7  O2B       11.1390    5.6260   25.6720 O.3   425  ATP425     -0.4368
      8  O3B        9.1810    4.1790   26.3030 O.3   425  ATP425     -0.2258
      9  PA        12.6400    3.6440   28.2730 P.3   425  ATP425      0.2189
     10  O1A       12.6540    2.1860   28.5750 O.3   425  ATP425     -0.4371
     11  O2A       13.7250    4.2220   27.4150 O.2   425  ATP425     -0.5170
     12  O3A       11.2110    4.1100   27.6770 O.3   425  ATP425     -0.2700
     13  O5'       12.5950    4.3720   29.6940 O.3   425  ATP425     -0.3112
     14  C5'       12.4650    5.7930   29.8340 C.3   425  ATP425      0.1813
     15  C4'       11.6710    6.0350   31.1100 C.3   425  ATP425      0.1821
     16  O4'       12.3960    5.4340   32.1900 O.3   425  ATP425     -0.3135
     17  C3'       11.4580    7.4940   31.4740 C.3   425  ATP425      0.2184
     18  O3'       10.1490    7.6700   32.0280 O.3   425  ATP425     -0.2174
     19  C2'       12.4910    7.7370   32.5550 C.3   425  ATP425      0.2570
     20  O2'       12.1580    8.7890   33.4710 O.3   425  ATP425     -0.2130
     21  C1'       12.4860    6.3800   33.2390 C.3   425  ATP425      0.3186
     22  N9        13.6960    6.1320   34.0320 N.pl3 425  ATP425     -0.1439
     23  C8        14.9560    6.1600   33.5510 C.3   425  ATP425      0.3377
     24  N7        15.8450    5.9340   34.5350 N.2   425  ATP425     -0.2095
     25  C5        15.1400    5.7500   35.6720 C.2   425  ATP425      0.2526
     26  C6        15.4590    5.4980   37.0730 C.2   425  ATP425      0.4393
     27  N6        16.7400    5.3650   37.4450 N.pl3 425  ATP425      0.2180
     28  N1        14.4330    5.3930   37.9290 N.2   425  ATP425      0.0021
     29  C2        13.1490    5.5390   37.5370 C.3   425  ATP425      0.5254
     30  N3        12.7700    5.7850   36.2750 N.2   425  ATP425     -0.0055
     31  C4        13.7250    5.9010   35.3280 C.2   425  ATP425      0.3518
@<TRIPOS>BOND
     1     3     1    2
     2     6     5    2
     3     7     5    1
     4     1     4    1
     5     1     8    1
     6     1     2    1
     7     5     8    1
     8     5    12    1
     9    11     9    2
    10    12     9    1
    11     9    10    1
    12     9    13    1
    13    13    14    1
    14    14    15    1
    15    15    17    1
    16    15    16    1
    17    17    18    1
    18    17    19    1
    19    16    21    1
    20    19    21    1
    21    19    20    1
    22    21    22    1
    23    23    22    1
    24    23    24    1
    25    22    31    1
    26    24    25    2
    27    31    25    1
    28    31    30    2
    29    25    26    1
    30    30    29    1
    31    26    27    1
    32    26    28    2
    33    29    28    1
