@<TRIPOS>MOLECULE
2q11_XX4_A_1.pdb
 31 34 0 0 0
SMALL
GASTEIGER

@<TRIPOS>ATOM
      1  C01      197.9170    8.7920   21.0780 C.3   501  XX4501      0.1148
      2  N02      198.3070    7.4450   20.6090 N.am  501  XX4501     -0.2794
      3  C03      199.0590    6.6020   21.4310 C.2   501  XX4501      0.2274
      4  O04      199.3820    5.5000   21.0540 O.2   501  XX4501     -0.2748
      5  C05      199.4830    7.0330   22.8000 C.3   501  XX4501      0.1068
      6  C06      198.5970    6.3740   23.8740 C.3   501  XX4501      0.1043
      7  N07      197.3700    5.7670   23.2910 N.pl3 501  XX4501     -0.2645
      8  C08      196.1360    6.6190   23.1140 C.3   501  XX4501      0.1234
      9  C09      195.0370    5.8770   22.3720 C.2   501  XX4501      0.0239
     10  C10      193.9290    6.5660   21.8920 C.2   501  XX4501     -0.0144
     11  C11      192.8930    5.8520   21.1880 C.3   501  XX4501      0.1056
     12  C12      191.6870    6.5780   20.6750 C.2   501  XX4501      0.1807
     13  O13      190.5910    6.2720   21.1100 O.2   501  XX4501     -0.2907
     14  C14      191.8020    7.6840   19.6530 C.ar  501  XX4501      0.0353
     15  C15      193.0710    8.0510   19.0970 C.ar  501  XX4501      0.0029
     16  C16      193.1490    9.0940   18.1460 C.ar  501  XX4501      0.0001
     17  C17      191.9800    9.7780   17.7390 C.ar  501  XX4501      0.0000
     18  C18      190.7250    9.4270   18.2790 C.ar  501  XX4501      0.0001
     19  C19      190.6280    8.3840   19.2260 C.ar  501  XX4501      0.0029
     20  C20      193.0160    4.4320   20.9880 C.2   501  XX4501     -0.0118
     21  C21      194.1280    3.7460   21.4740 C.2   501  XX4501      0.0281
     22  C22      195.1520    4.4480   22.1700 C.2   501  XX4501      0.1315
     23  N23      196.2320    3.7750   22.6490 N.2   501  XX4501     -0.3709
     24  C24      197.3650    4.3940   22.9370 C.cat 501  XX4501      0.2781
     25  N25      198.5550    3.6860   22.9020 N.pl3 501  XX4501     -0.0779
     26  C26      197.8690    7.0100   19.2450 C.3   501  XX4501      0.0754
     27  C27      199.0500    6.3720   18.4500 C.3   501  XX4501      0.0198
     28  C28      198.5660    5.8260   17.0960 C.3   501  XX4501      0.0017
     29  C29      197.4500    4.7890   17.3270 C.3   501  XX4501      0.0001
     30  C30      196.2520    5.4820   17.9990 C.3   501  XX4501      0.0017
     31  C31      196.6790    6.0130   19.3790 C.3   501  XX4501      0.0198
@<TRIPOS>BOND
     1    28    29    1
     2    28    27    1
     3    29    30    1
     4    17    16   ar
     5    17    18   ar
     6    30    31    1
     7    16    15   ar
     8    18    19   ar
     9    27    26    1
    10    15    14   ar
    11    19    14   ar
    12    26    31    1
    13    26     2    1
    14    14    12    1
    15     2     1    1
    16     2     3   am
    17    12    13    2
    18    12    11    1
    19    20    11    1
    20    20    21    2
    21     4     3    2
    22    11    10    1
    23     3     5    1
    24    21    22    1
    25    10     9    2
    26    22     9    1
    27    22    23    2
    28     9     8    1
    29    23    24    2
    30     5     6    1
    31    25    24    1
    32    24     7    1
    33     8     7    1
    34     7     6    1
