@<TRIPOS>MOLECULE
2q14_ADP_A_1.pdb
 27 29 0 0 0
SMALL
GASTEIGER

@<TRIPOS>ATOM
      1  PB        -6.4240   -2.1530  -85.9560 P.3   501  ADP501      0.5373
      2  O1B       -5.6650   -2.7580  -84.8010 O.3   501  ADP501     -0.1143
      3  O2B       -5.6800   -2.2890  -87.2630 O.2   501  ADP501     -0.2221
      4  O3B       -7.8960   -2.5190  -86.0460 O.3   501  ADP501     -0.1143
      5  PA        -6.0850    0.2520  -84.3680 P.3   501  ADP501      0.2231
      6  O1A       -5.6940    1.6420  -84.8070 O.2   501  ADP501     -0.5169
      7  O2A       -5.1020   -0.5240  -83.5150 O.3   501  ADP501     -0.4370
      8  O3A       -6.4890   -0.5540  -85.7150 O.3   501  ADP501     -0.2261
      9  O5'       -7.4700    0.2790  -83.5520 O.3   501  ADP501     -0.3111
     10  C5'       -7.6620   -0.5670  -82.4170 C.3   501  ADP501      0.1813
     11  C4'       -9.1380   -0.5820  -82.0470 C.3   501  ADP501      0.1821
     12  O4'       -9.5530    0.7250  -81.6480 O.3   501  ADP501     -0.3135
     13  C3'      -10.0470   -1.0150  -83.1990 C.3   501  ADP501      0.2184
     14  O3'      -10.4810   -2.3770  -83.0580 O.3   501  ADP501     -0.2174
     15  C2'      -11.2180   -0.0480  -83.1620 C.3   501  ADP501      0.2570
     16  O2'      -12.3590   -0.6770  -82.5780 O.3   501  ADP501     -0.2130
     17  C1'      -10.7700    1.1230  -82.2910 C.3   501  ADP501      0.3186
     18  N9       -10.5170    2.3820  -83.0550 N.pl3 501  ADP501     -0.1439
     19  C8       -10.0990    2.5100  -84.3370 C.3   501  ADP501      0.3377
     20  N7        -9.9700    3.8240  -84.6710 N.2   501  ADP501     -0.2095
     21  C5       -10.3000    4.5550  -83.5970 C.2   501  ADP501      0.2526
     22  C6       -10.3670    5.9870  -83.2700 C.2   501  ADP501      0.4393
     23  N6       -10.0520    6.9100  -84.1900 N.pl3 501  ADP501      0.2180
     24  N1       -10.7490    6.3360  -82.0280 N.2   501  ADP501      0.0021
     25  C2       -11.0660    5.4080  -81.1040 C.3   501  ADP501      0.5254
     26  N3       -11.0240    4.0870  -81.3360 N.2   501  ADP501     -0.0055
     27  C4       -10.6520    3.6040  -82.5370 C.2   501  ADP501      0.3518
@<TRIPOS>BOND
     1     3     1    2
     2     4     1    1
     3     1     8    1
     4     1     2    1
     5     8     5    1
     6     6     5    2
     7    20    19    1
     8    20    21    2
     9     5     9    1
    10     5     7    1
    11    19    18    1
    12    23    22    1
    13    21    22    1
    14    21    27    1
    15     9    10    1
    16    22    24    2
    17    13    15    1
    18    13    14    1
    19    13    11    1
    20    15    16    1
    21    15    17    1
    22    18    27    1
    23    18    17    1
    24    27    26    2
    25    10    11    1
    26    17    12    1
    27    11    12    1
    28    24    25    1
    29    26    25    1
