@<TRIPOS>MOLECULE
2q15_3MR_A_1.pdb
 37 41 0 0 0
SMALL
GASTEIGER

@<TRIPOS>ATOM
      1  C1        72.9440   46.5280    7.9080 C.3   386  3MR386      0.1148
      2  N2        71.6390   47.1820    7.9130 N.am  386  3MR386     -0.2794
      3  C3        70.5450   46.4070    8.2060 C.2   386  3MR386      0.2257
      4  O4        70.6760   45.2200    8.4690 O.2   386  3MR386     -0.2749
      5  C5        69.1630   47.0130    8.2000 C.3   386  3MR386      0.0870
      6  C6        68.0710   46.0970    8.7240 C.3   386  3MR386      0.0294
      7  C7        66.7820   46.6280    8.0820 C.3   386  3MR386      0.0771
      8  C9        65.5940   46.0060    8.8160 C.3   386  3MR386      0.0183
      9  C10       64.3970   46.8590    8.4240 C.3   386  3MR386      0.0016
     10  C11       63.0950   46.3500    9.0180 C.3   386  3MR386      0.0001
     11  C12       62.8450   44.9020    8.5990 C.3   386  3MR386      0.0000
     12  C13       64.0590   44.0910    9.0320 C.3   386  3MR386      0.0001
     13  C14       65.3300   44.5750    8.3270 C.3   386  3MR386      0.0016
     14  N15       66.6720   48.0860    8.2110 N.pl3 386  3MR386     -0.2666
     15  C16       66.4230   48.5630    9.5710 C.3   386  3MR386      0.1234
     16  C17       67.3960   49.6950    9.8370 C.2   386  3MR386      0.0266
     17  C18       67.9260   49.8730   11.1350 C.2   386  3MR386      0.0368
     18  C19       68.8100   50.9270   11.3860 C.2   386  3MR386      0.1413
     19  O20       69.3110   51.2060   12.6370 O.3   386  3MR386     -0.4538
     20  C21       70.5180   50.6750   12.9980 C.ar  386  3MR386      0.1453
     21  C22       71.0850   49.6390   12.2950 C.ar  386  3MR386      0.0375
     22  C23       72.2900   49.1130   12.6840 C.ar  386  3MR386      0.0031
     23  C24       72.9640   49.6180   13.7850 C.ar  386  3MR386      0.0002
     24  C25       72.3970   50.6470   14.4630 C.ar  386  3MR386      0.0031
     25  C26       71.1810   51.1870   14.1060 C.ar  386  3MR386      0.0375
     26  C27       69.0810   51.7950   10.3390 C.2   386  3MR386      0.0188
     27  C28       68.5620   51.6150    9.0620 C.3   386  3MR386      0.0879
     28  C29       67.7070   50.5580    8.7660 C.2   386  3MR386      0.1143
     29  N30       67.2080   50.3360    7.4740 N.2   386  3MR386     -0.3749
     30  C31       66.8550   49.0520    7.1830 C.cat 386  3MR386      0.2777
     31  N32       66.6720   48.6580    5.8740 N.pl3 386  3MR386     -0.0779
     32  C33       71.5370   48.6230    7.6680 C.3   386  3MR386      0.0754
     33  C34       72.8960   49.1760    7.3060 C.3   386  3MR386      0.0198
     34  C35       72.7130   50.6730    7.3220 C.3   386  3MR386      0.0017
     35  C36       71.8790   50.9280    6.0660 C.3   386  3MR386      0.0001
     36  C37       70.4620   50.4540    6.3600 C.3   386  3MR386      0.0017
     37  C38       70.5940   48.9600    6.5230 C.3   386  3MR386      0.0198
@<TRIPOS>BOND
     1    31    30    1
     2    35    36    1
     3    35    34    1
     4    36    37    1
     5    37    32    1
     6    30    29    2
     7    30    14    1
     8    33    34    1
     9    33    32    1
    10    29    28    2
    11    32     2    1
    12     1     2    1
    13     2     3   am
    14     7    14    1
    15     7     6    1
    16     7     8    1
    17     5     3    1
    18     5     6    1
    19     3     4    2
    20    14    15    1
    21    13     8    1
    22    13    12    1
    23     9     8    1
    24     9    10    1
    25    11    10    1
    26    11    12    1
    27    28    27    1
    28    28    16    1
    29    27    26    1
    30    15    16    1
    31    16    17    2
    32    26    18    2
    33    17    18    1
    34    18    19    1
    35    21    22   ar
    36    21    20   ar
    37    19    20    1
    38    22    23   ar
    39    20    25   ar
    40    23    24   ar
    41    25    24   ar
