@<TRIPOS>MOLECULE
2q16_ITT_A_1.pdb
 31 33 0 0 0
SMALL
GASTEIGER

@<TRIPOS>ATOM
      1  PG        41.6030    8.9910   11.4300 P.3   6246  ITT6246     0.5373
      2  O1G       40.3800    9.7470   11.8980 O.3   6246  ITT6246    -0.1143
      3  O2G       42.0050    7.9310   12.4220 O.3   6246  ITT6246    -0.1143
      4  O3G       42.6750    9.9420   10.9920 O.2   6246  ITT6246    -0.2221
      5  PB        40.8120    6.7240    9.7980 P.3   6246  ITT6246     0.2277
      6  O1B       40.0350    6.6660    8.5190 O.2   6246  ITT6246    -0.5168
      7  O2B       41.9890    5.8050    9.9880 O.3   6246  ITT6246    -0.4368
      8  O3B       41.1940    8.2610   10.0600 O.3   6246  ITT6246    -0.2258
      9  PA        39.4800    5.2680   12.0030 P.3   6246  ITT6246     0.2189
     10  O1A       40.6780    4.5210   12.5460 O.2   6246  ITT6246    -0.5170
     11  O2A       38.4750    5.9200   12.9110 O.3   6246  ITT6246    -0.4371
     12  O3A       39.8100    6.4800   11.0030 O.3   6246  ITT6246    -0.2700
     13  O5'       38.8220    4.3080   10.9460 O.3   6246  ITT6246    -0.3112
     14  C5'       37.4570    3.9870   10.7590 C.3   6246  ITT6246     0.1813
     15  C4'       36.9190    3.4610    9.6540 C.3   6246  ITT6246     0.1821
     16  O4'       35.5440    3.1280    9.7500 O.3   6246  ITT6246    -0.3135
     17  C3'       37.4160    3.3890    8.2590 C.3   6246  ITT6246     0.2184
     18  O3'       37.3970    2.0650    7.7050 O.3   6246  ITT6246    -0.2174
     19  C2'       36.1670    4.1000    7.7320 C.3   6246  ITT6246     0.2570
     20  O2'       35.9980    4.0330    6.2860 O.3   6246  ITT6246    -0.2130
     21  C1'       35.0080    3.3940    8.4690 C.3   6246  ITT6246     0.3186
     22  N9        33.9610    4.3970    8.6660 N.pl3 6246  ITT6246    -0.1435
     23  C8        33.9090    5.3030    9.6640 C.3   6246  ITT6246     0.3382
     24  N7        32.8070    6.0650    9.4680 N.2   6246  ITT6246    -0.2054
     25  C5        32.2020    5.6150    8.3320 C.2   6246  ITT6246     0.2446
     26  C6        31.0720    5.9820    7.5860 C.1   6246  ITT6246     0.1792
     27  O6        30.2680    7.0100    7.9300 O.2   6246  ITT6246    -0.2203
     28  N1        30.7490    5.2880    6.4890 N.2   6246  ITT6246    -0.1458
     29  C2        31.4910    4.2620    6.0350 C.3   6246  ITT6246     0.4017
     30  N3        32.5780    3.8920    6.6880 N.2   6246  ITT6246    -0.0334
     31  C4        32.9480    4.5650    7.8340 C.2   6246  ITT6246     0.3528
@<TRIPOS>BOND
     1    29    28    1
     2    29    30    1
     3    20    19    1
     4    28    26    2
     5    30    31    2
     6    26    27    2
     7    26    25    1
     8    18    17    1
     9    19    17    1
    10    19    21    1
    11    31    25    1
    12    31    22    1
    13    17    15    1
    14    25    24    2
    15    21    22    1
    16    21    16    1
    17     6     5    2
    18    22    23    1
    19    24    23    1
    20    15    16    1
    21    15    14    1
    22     5     7    1
    23     5     8    1
    24     5    12    1
    25     8     1    1
    26    14    13    1
    27    13     9    1
    28     4     1    2
    29    12     9    1
    30     1     2    1
    31     1     3    1
    32     9    10    2
    33     9    11    1
