@<TRIPOS>MOLECULE
2q1b_LSA_A_1.pdb
 12 13 0 0 0
SMALL
GASTEIGER

@<TRIPOS>ATOM
      1  C4        15.4210    6.5880   15.6490 C.ar  500  LSA500      0.0014
      2  C5        14.9370    5.5540   16.4480 C.ar  500  LSA500      0.0212
      3  C6        15.2710    4.2550   16.0740 C.ar  500  LSA500      0.1408
      4  C7        16.2260    2.4540   14.8370 C.1   500  LSA500      0.1735
      5  C3        16.2060    6.2850   14.5290 C.ar  500  LSA500      0.0008
      6  S10       14.7960    2.7790   16.9140 S.O2  500  LSA500      0.1102
      7  N9        15.6160    1.7050   15.7950 N.2   500  LSA500     -0.0526
      8  O8        16.8810    1.9960   13.9210 O.2   500  LSA500     -0.2206
      9  C1        16.0420    3.9480   14.9740 C.ar  500  LSA500      0.1035
     10  C2        16.5240    4.9780   14.1790 C.ar  500  LSA500      0.0130
     11  O12       13.3630    2.6780   16.7990 O.2   500  LSA500     -0.1456
     12  O11       15.4250    2.7840   18.2360 O.2   500  LSA500     -0.1456
@<TRIPOS>BOND
     1     8     4    2
     2    10     5   ar
     3    10     9   ar
     4     5     1   ar
     5     4     9    1
     6     4     7    2
     7     9     3   ar
     8     1     2   ar
     9     7     6    1
    10     3     2   ar
    11     3     6    1
    12    11     6    2
    13     6    12    2
