@<TRIPOS>MOLECULE
2q1h_AS4_A_1.pdb
 26 30 0 0 0
SMALL
GASTEIGER

@<TRIPOS>ATOM
      1  C1        -9.8060  -31.8810  -16.5070 C.3   301  AS4301      0.0054
      2  C5        -8.0870  -33.1310  -17.8440 C.3   301  AS4301      0.0350
      3  C6        -7.3380  -31.3080  -16.5990 C.3   301  AS4301      0.2690
      4  C7        -9.6560  -30.3610  -20.0180 C.3   301  AS4301      0.0180
      5  C8       -10.9200  -29.7670  -20.0040 C.2   301  AS4301     -0.0419
      6  C9       -11.6320  -29.5710  -21.1830 C.2   301  AS4301      0.0289
      7  C10      -11.0880  -29.8450  -22.4340 C.2   301  AS4301      0.1725
      8  C15       -8.5950  -29.2620  -19.9250 C.3   301  AS4301      0.0041
      9  C16       -9.1150  -32.3660  -14.2680 C.3   301  AS4301      0.0076
     10  C17       -8.3890  -33.2460  -15.2780 C.3   301  AS4301      0.0652
     11  C18       -7.0210  -33.6950  -14.7590 C.2   301  AS4301      0.1835
     12  C19       -6.3360  -34.8110  -15.5510 C.3   301  AS4301      0.2458
     13  C20       -9.8600  -31.3240  -15.0940 C.3   301  AS4301      0.0006
     14  C         -8.3840  -32.4070  -16.5460 C.3   301  AS4301      0.0637
     15  C2        -9.9580  -30.7900  -17.5540 C.3   301  AS4301      0.0031
     16  C3        -9.4830  -31.3600  -18.8790 C.3   301  AS4301      0.0308
     17  C4        -8.0650  -31.9040  -18.7450 C.3   301  AS4301      0.1183
     18  O         -7.2790  -30.9570  -17.9950 O.3   301  AS4301     -0.3310
     19  O1        -6.0540  -31.8150  -16.2070 O.3   301  AS4301     -0.1899
     20  O2       -11.7910  -29.7290  -23.4370 O.2   301  AS4301     -0.2914
     21  C11       -9.7830  -30.3130  -22.5300 C.3   301  AS4301      0.0694
     22  C12       -9.4560  -31.1510  -21.3050 C.3   301  AS4301      0.0119
     23  C13      -11.5640  -29.4190  -18.8190 C.3   301  AS4301      0.0221
     24  C14      -11.4330  -30.4780  -17.7360 C.3   301  AS4301      0.0044
     25  O3        -6.6430  -33.4000  -13.6260 O.2   301  AS4301     -0.2933
     26  O4        -5.0820  -35.1210  -14.9380 O.3   301  AS4301     -0.2119
@<TRIPOS>BOND
     1    20     7    2
     2    21     7    1
     3    21    22    1
     4     7     6    1
     5    22     4    1
     6     6     5    2
     7     4     5    1
     8     4     8    1
     9     4    16    1
    10     5    23    1
    11    16    17    1
    12    16    15    1
    13    23    24    1
    14    17    18    1
    15    17     2    1
    16    18     3    1
    17     2    14    1
    18    24    15    1
    19    15     1    1
    20     3    14    1
    21     3    19    1
    22    14     1    1
    23    14    10    1
    24     1    13    1
    25    12    26    1
    26    12    11    1
    27    10    11    1
    28    10     9    1
    29    13     9    1
    30    11    25    2
