@<TRIPOS>MOLECULE
2q1n_LAR_A_1.pdb
 29 31 0 0 0
SMALL
GASTEIGER

@<TRIPOS>ATOM
      1  S1        34.4230   33.3410   30.8650 S.3   403  LAR403     -0.0192
      2  N1        33.9580   33.2570   28.3730 N.2   403  LAR403     -0.1932
      3  O1        31.0980   36.8580   25.9770 O.2   403  LAR403     -0.2449
      4  O2        29.9820   36.2620   27.9030 O.3   403  LAR403     -0.4490
      5  O3        30.4870   33.1670   29.6680 O.3   403  LAR403     -0.3329
      6  O4        32.0480   34.9050   29.6670 O.3   403  LAR403     -0.1930
      7  O5        35.7920   34.4220   29.0330 O.2   403  LAR403     -0.2155
      8  C1        30.4920   37.2510   26.9650 C.2   403  LAR403      0.3407
      9  C2        30.3470   38.7200   27.1530 C.2   403  LAR403      0.0734
     10  C3        29.7670   39.3480   28.2000 C.2   403  LAR403     -0.0371
     11  C4        29.1300   38.6700   29.3910 C.3   403  LAR403      0.0276
     12  C5        27.6940   38.2290   29.0960 C.3   403  LAR403      0.0387
     13  C6        26.9420   38.0550   30.4050 C.2   403  LAR403      0.0152
     14  C7        27.0480   36.9780   31.0620 C.1   403  LAR403     -0.1098
     15  C8        26.8020   36.1590   31.9800 C.2   403  LAR403      0.0148
     16  C9        26.8790   34.9550   32.4510 C.3   403  LAR403      0.0344
     17  C10       28.2440   34.3410   32.6220 C.3   403  LAR403      0.0051
     18  C11       28.3370   33.0020   31.8790 C.3   403  LAR403      0.0028
     19  C12       28.1680   33.1260   30.3620 C.3   403  LAR403      0.0298
     20  C13       29.2700   33.9110   29.6470 C.3   403  LAR403      0.1214
     21  C14       28.8390   34.1690   28.2060 C.3   403  LAR403      0.0734
     22  C15       29.8980   34.9210   27.4150 C.3   403  LAR403      0.1766
     23  C16       31.2350   34.1910   27.5330 C.3   403  LAR403      0.1048
     24  C17       31.5970   33.7530   28.9550 C.3   403  LAR403      0.2448
     25  C18       32.7170   32.7140   28.9010 C.3   403  LAR403      0.1810
     26  C19       33.1380   32.2760   30.3050 C.3   403  LAR403      0.1042
     27  C20       34.8100   33.7310   29.2870 C.1   403  LAR403      0.1790
     28  C21       29.7490   40.8400   28.1830 C.3   403  LAR403      0.0266
     29  C22       28.5350   34.1750   34.1090 C.3   403  LAR403      0.0004
@<TRIPOS>BOND
     1     3     8    2
     2     8     9    1
     3     8     4    1
     4     9    10    2
     5    22    23    1
     6    22     4    1
     7    22    21    1
     8    23    24    1
     9    28    10    1
    10    10    11    1
    11    21    20    1
    12     2    25    1
    13     2    27    2
    14    25    24    1
    15    25    26    1
    16    24     6    1
    17    24     5    1
    18     7    27    2
    19    12    11    1
    20    12    13    1
    21    27     1    1
    22    20     5    1
    23    20    19    1
    24    26     1    1
    25    19    18    1
    26    13    14    2
    27    14    15    2
    28    18    17    1
    29    15    16    1
    30    16    17    1
    31    17    29    1
