@<TRIPOS>MOLECULE
2q1n_ANP_A_1.pdb
 31 33 0 0 0
SMALL
GASTEIGER

@<TRIPOS>ATOM
      1  PG        32.2740   30.7490   18.8100 P.3   400  ANP400      0.4884
      2  O1G       31.2210   29.8010   18.2840 O.3   400  ANP400     -0.1240
      3  O2G       32.4880   31.9570   17.9150 O.2   400  ANP400     -0.2331
      4  O3G       33.5610   30.1300   19.2970 O.3   400  ANP400     -0.1240
      5  PB        30.9790   33.0670   20.0540 P.3   400  ANP400      0.4669
      6  O1B       30.4550   33.2530   18.6610 O.2   400  ANP400     -0.2351
      7  O2B       30.0690   33.3600   21.2170 O.3   400  ANP400     -0.1253
      8  N3B       31.5890   31.4540   20.2270 N.3   400  ANP400     -0.0163
      9  PA        32.0840   35.5950   19.6800 P.3   400  ANP400      0.2220
     10  O1A       32.7680   35.6580   18.3220 O.2   400  ANP400     -0.5170
     11  O2A       30.6710   36.0880   19.7960 O.3   400  ANP400     -0.4370
     12  O3A       32.2060   34.0750   20.2190 O.3   400  ANP400     -0.2360
     13  O5'       32.9940   36.3570   20.7730 O.3   400  ANP400     -0.3111
     14  C5'       33.0430   36.0170   22.1690 C.3   400  ANP400      0.1813
     15  C4'       34.4960   36.0090   22.6600 C.3   400  ANP400      0.1821
     16  O4'       35.1200   37.2310   22.2920 O.3   400  ANP400     -0.3135
     17  C3'       34.6660   35.9360   24.1690 C.3   400  ANP400      0.2184
     18  O3'       35.6960   34.9970   24.5090 O.3   400  ANP400     -0.2174
     19  C2'       35.0450   37.3580   24.5520 C.3   400  ANP400      0.2570
     20  O2'       35.7330   37.4940   25.8090 O.3   400  ANP400     -0.2130
     21  C1'       35.8870   37.7190   23.3610 C.3   400  ANP400      0.3186
     22  N9        36.0570   39.1680   23.2170 N.pl3 400  ANP400     -0.1439
     23  C8        35.0790   40.0800   23.0720 C.3   400  ANP400      0.3377
     24  N7        35.6000   41.3290   22.9850 N.2   400  ANP400     -0.2095
     25  C5        36.9330   41.2080   23.0690 C.2   400  ANP400      0.2526
     26  C6        38.0740   42.1330   23.0500 C.2   400  ANP400      0.4393
     27  N6        37.8680   43.4640   22.9050 N.pl3 400  ANP400      0.2180
     28  N1        39.3110   41.6020   23.1850 N.2   400  ANP400      0.0021
     29  C2        39.5010   40.2710   23.3180 C.3   400  ANP400      0.5254
     30  N3        38.5030   39.3620   23.3460 N.2   400  ANP400     -0.0055
     31  C4        37.2280   39.7780   23.2250 C.2   400  ANP400      0.3518
@<TRIPOS>BOND
     1     3     1    2
     2     2     1    1
     3    10     9    2
     4     6     5    2
     5     1     4    1
     6     1     8    1
     7     9    11    1
     8     9    12    1
     9     9    13    1
    10     5    12    1
    11     5     8    1
    12     5     7    1
    13    13    14    1
    14    14    15    1
    15    16    15    1
    16    16    21    1
    17    15    17    1
    18    27    26    1
    19    24    25    2
    20    24    23    1
    21    26    25    1
    22    26    28    2
    23    25    31    1
    24    23    22    1
    25    28    29    1
    26    22    31    1
    27    22    21    1
    28    31    30    2
    29    29    30    1
    30    21    19    1
    31    17    18    1
    32    17    19    1
    33    19    20    1
