@<TRIPOS>MOLECULE
2q1q_OSP_A_1.pdb
 18 19 0 0 0
SMALL
GASTEIGER

@<TRIPOS>ATOM
      1  O3        -5.2520    4.5090   11.2130 O.2   300  OSP300     -0.1543
      2  S2        -4.0070    5.1270   11.6080 S.O2  300  OSP300      0.0569
      3  O4        -2.9710    4.2460   11.1220 O.2   300  OSP300     -0.1543
      4  C7        -3.7850    6.6210   10.9110 C.3   300  OSP300      0.1727
      5  C8        -2.5260    7.3020   11.4600 C.3   300  OSP300      0.0292
      6  C9        -1.9850    6.6550   12.7350 C.3   300  OSP300      0.0252
      7  C10       -3.0830    6.3190   13.7370 C.3   300  OSP300      0.1155
      8  N2        -3.8530    5.2320   13.1420 N.pl3 300  OSP300     -0.1944
      9  C4        -4.3780    4.2460   14.0100 C.ar  300  OSP300      0.0685
     10  C3        -3.5850    3.1360   14.3000 C.ar  300  OSP300      0.0175
     11  C2        -4.0580    2.1420   15.1650 C.ar  300  OSP300      0.0213
     12  C5        -5.6540    4.3450   14.5730 C.ar  300  OSP300      0.0175
     13  C6        -6.1280    3.3490   15.4340 C.ar  300  OSP300      0.0213
     14  C1        -5.3370    2.2300   15.7390 C.ar  300  OSP300      0.1251
     15  S1        -5.8650    1.0470   16.7210 S.O2  300  OSP300      0.0935
     16  O1        -7.3000    1.0520   16.7650 O.2   300  OSP300     -0.1503
     17  O2        -5.3130    1.2480   18.0320 O.2   300  OSP300     -0.1503
     18  N1        -5.3580   -0.3420   16.1270 N.3   300  OSP300      0.0392
@<TRIPOS>BOND
     1     4     5    1
     2     4     2    1
     3     3     2    2
     4     1     2    2
     5     5     6    1
     6     2     8    1
     7     6     7    1
     8     8     7    1
     9     8     9    1
    10     9    10   ar
    11     9    12   ar
    12    10    11   ar
    13    12    13   ar
    14    11    14   ar
    15    13    14   ar
    16    14    15    1
    17    18    15    1
    18    15    16    2
    19    15    17    2
