@<TRIPOS>MOLECULE
2q1s_NAI_A_1.pdb
 44 48 0 0 0
SMALL
GASTEIGER

@<TRIPOS>ATOM
      1  PA        17.1740   12.8230   15.6410 P.3   358  NAI358      0.2189
      2  O1A       17.0500   12.2160   16.9920 O.3   358  NAI358     -0.4371
      3  O2A       16.0700   12.5490   14.5930 O.2   358  NAI358     -0.5170
      4  O5B       18.5420   12.5140   14.9950 O.3   358  NAI358     -0.3112
      5  C5B       19.6910   12.0300   15.6990 C.3   358  NAI358      0.1813
      6  C4B       20.1350   10.6860   15.1480 C.3   358  NAI358      0.1821
      7  O4B       21.2500   10.2290   15.9050 O.3   358  NAI358     -0.3135
      8  C3B       19.0140    9.6220   15.2850 C.3   358  NAI358      0.2184
      9  O3B       18.7990    8.9770   14.0180 O.3   358  NAI358     -0.2174
     10  C2B       19.6140    8.6240   16.2650 C.3   358  NAI358      0.2570
     11  O2B       19.2350    7.2220   16.1070 O.3   358  NAI358     -0.2130
     12  C1B       21.1130    8.7950   16.0110 C.3   358  NAI358      0.3186
     13  N9A       21.9730    8.2980   17.0710 N.pl3 358  NAI358     -0.1439
     14  C8A       21.7630    8.3890   18.4200 C.3   358  NAI358      0.3377
     15  N7A       22.8040    7.8530   19.0600 N.2   358  NAI358     -0.2095
     16  C5A       23.7220    7.4130   18.1530 C.2   358  NAI358      0.2526
     17  C6A       25.0320    6.7480   18.1690 C.2   358  NAI358      0.4393
     18  N6A       25.6620    6.4060   19.2990 N.pl3 358  NAI358      0.2180
     19  N1A       25.6580    6.4600   16.9850 N.2   358  NAI358      0.0021
     20  C2A       25.0310    6.7930   15.8240 C.3   358  NAI358      0.5254
     21  N3A       23.8430    7.4070   15.6980 N.2   358  NAI358     -0.0055
     22  C4A       23.1360    7.7520   16.8320 C.2   358  NAI358      0.3518
     23  O3        17.2090   14.3940   15.9380 O.3   358  NAI358     -0.2703
     24  PN        17.4740   15.6320   14.9180 P.3   358  NAI358      0.2189
     25  O1N       16.5760   16.7170   15.2450 O.3   358  NAI358     -0.4371
     26  O2N       17.5890   15.0250   13.5430 O.2   358  NAI358     -0.5170
     27  O5D       19.0040   16.0400   15.3390 O.3   358  NAI358     -0.3112
     28  C5D       20.0900   16.0140   14.3970 C.3   358  NAI358      0.1813
     29  C4D       21.2110   16.8790   14.9770 C.3   358  NAI358      0.1799
     30  O4D       20.7740   18.2160   15.0260 O.3   358  NAI358     -0.3327
     31  C3D       21.5290   16.5400   16.4340 C.3   358  NAI358      0.2158
     32  O3D       22.9540   16.5960   16.5820 O.3   358  NAI358     -0.2175
     33  C2D       20.8330   17.6080   17.2210 C.3   358  NAI358      0.2309
     34  O2D       21.4780   17.8290   18.5040 O.3   358  NAI358     -0.2158
     35  C1D       20.9790   18.8070   16.3260 C.3   358  NAI358      0.2263
     36  N1N       19.9940   19.8320   16.5530 N.pl3 358  NAI358     -0.2787
     37  C2N       18.6810   19.6930   16.1750 C.3   358  NAI358      0.1244
     38  C3N       17.7610   20.7160   16.3860 C.2   358  NAI358      0.0544
     39  C7N       16.2950   20.5740   15.9880 C.2   358  NAI358      0.2818
     40  O7N       15.5500   21.5190   16.1840 O.2   358  NAI358     -0.2670
     41  N7N       15.9220   19.4050   15.4080 N.am  358  NAI358     -0.0839
     42  C4N       18.1860   21.9510   16.9460 C.2   358  NAI358      0.0033
     43  C5N       19.5630   22.0740   17.2900 C.2   358  NAI358      0.0157
     44  C6N       20.4380   21.0160   17.0490 C.2   358  NAI358      0.0633
@<TRIPOS>BOND
     1    26    24    2
     2     9     8    1
     3    28    29    1
     4    28    27    1
     5     3     1    2
     6    24    25    1
     7    24    27    1
     8    24    23    1
     9    29    30    1
    10    29    31    1
    11     4     1    1
    12     4     5    1
    13    30    35    1
    14     6     8    1
    15     6     5    1
    16     6     7    1
    17     8    10    1
    18    41    39   am
    19     1    23    1
    20     1     2    1
    21    21    20    1
    22    21    22    2
    23    20    19    1
    24     7    12    1
    25    39    40    2
    26    39    38    1
    27    12    10    1
    28    12    13    1
    29    11    10    1
    30    37    38    1
    31    37    36    1
    32    35    36    1
    33    35    33    1
    34    38    42    2
    35    31    32    1
    36    31    33    1
    37    36    44    1
    38    22    13    1
    39    22    16    1
    40    42    43    1
    41    19    17    2
    42    44    43    2
    43    13    14    1
    44    33    34    1
    45    16    17    1
    46    16    15    2
    47    17    18    1
    48    14    15    1
