@<TRIPOS>MOLECULE
2q1t_UDP_A_1.pdb
 25 26 0 0 0
SMALL
GASTEIGER

@<TRIPOS>ATOM
      1  N1        18.6240   63.3180   33.0130 N.am  400  UDP400     -0.1996
      2  C2        20.0260   63.4220   32.9370 C.1   400  UDP400      0.2802
      3  N3        20.7690   62.2720   33.0000 N.2   400  UDP400     -0.2497
      4  C4        20.1380   61.0460   33.1480 C.1   400  UDP400      0.1941
      5  C5        18.7440   60.9390   33.2350 C.3   400  UDP400      0.1579
      6  C6        17.9900   62.0910   32.9990 C.3   400  UDP400      0.1249
      7  O2        20.6250   64.4960   32.8020 O.2   400  UDP400     -0.1922
      8  O4        20.8240   60.0280   33.2060 O.2   400  UDP400     -0.2133
      9  C1'       17.7890   64.5420   32.9490 C.3   400  UDP400      0.2361
     10  C2'       16.8890   64.5260   31.7150 C.3   400  UDP400      0.2316
     11  O2'       17.5710   65.1290   30.6240 O.3   400  UDP400     -0.2157
     12  C3'       15.6800   65.3090   32.1980 C.3   400  UDP400      0.2158
     13  C4'       15.6550   65.1100   33.7170 C.3   400  UDP400      0.1799
     14  O4'       16.9460   64.6400   34.0890 O.3   400  UDP400     -0.3322
     15  O3'       15.9210   66.6810   31.9580 O.3   400  UDP400     -0.2175
     16  C5'       14.5780   64.1350   34.2100 C.3   400  UDP400      0.1813
     17  O5'       13.2590   64.6490   34.0180 O.3   400  UDP400     -0.3111
     18  PA        11.9270   63.9150   34.5930 P.3   400  UDP400      0.2231
     19  O1A       12.3280   62.9690   35.6510 O.3   400  UDP400     -0.4370
     20  O2A       10.9360   64.8850   35.1020 O.2   400  UDP400     -0.5169
     21  O3A       11.2540   63.0590   33.4210 O.3   400  UDP400     -0.2261
     22  PB        11.5090   63.4070   31.8780 P.3   400  UDP400      0.5373
     23  O1B       11.3510   64.8730   31.7530 O.3   400  UDP400     -0.1143
     24  O2B       10.4840   62.7040   31.0650 O.2   400  UDP400     -0.2221
     25  O3B       12.8580   62.9850   31.4110 O.3   400  UDP400     -0.1143
@<TRIPOS>BOND
     1    11    10    1
     2    24    22    2
     3    25    22    1
     4    10    12    1
     5    10     9    1
     6    23    22    1
     7    22    21    1
     8    15    12    1
     9    12    13    1
    10     7     2    2
    11     2     3    2
    12     2     1   am
    13     9     1    1
    14     9    14    1
    15     6     1    1
    16     6     5    1
    17     3     4    2
    18     4     8    2
    19     4     5    1
    20    21    18    1
    21    13    14    1
    22    13    16    1
    23    17    16    1
    24    17    18    1
    25    18    20    2
    26    18    19    1
