@<TRIPOS>MOLECULE
2q1t_NAD_A_1.pdb
 44 48 0 0 0
SMALL
GASTEIGER

@<TRIPOS>ATOM
      1  PA         5.9490   51.9750   40.6880 P.3   358  NAD358      0.2189
      2  O1A        6.1690   51.3090   39.3950 O.2   358  NAD358     -0.5170
      3  O2A        7.0300   51.7010   41.6910 O.3   358  NAD358     -0.4371
      4  O5B        4.5780   51.5450   41.3290 O.3   358  NAD358     -0.3112
      5  C5B        3.4750   51.1340   40.5740 C.3   358  NAD358      0.1813
      6  C4B        3.0470   49.8450   41.1930 C.3   358  NAD358      0.1821
      7  O4B        1.9270   49.3830   40.4800 O.3   358  NAD358     -0.3135
      8  C3B        4.1490   48.7370   41.1160 C.3   358  NAD358      0.2184
      9  O3B        4.3100   48.1270   42.4010 O.3   358  NAD358     -0.2174
     10  C2B        3.5540   47.7330   40.1270 C.3   358  NAD358      0.2570
     11  O2B        3.9080   46.3510   40.2500 O.3   358  NAD358     -0.2130
     12  C1B        2.0700   47.9750   40.3430 C.3   358  NAD358      0.3186
     13  N9A        1.2130   47.4900   39.2730 N.pl3 358  NAD358     -0.1439
     14  C8A        1.4510   47.5640   37.9170 C.3   358  NAD358      0.3377
     15  N7A        0.4030   46.9810   37.3410 N.2   358  NAD358     -0.2095
     16  C5A       -0.4990   46.5640   38.2620 C.2   358  NAD358      0.2526
     17  C6A       -1.7430   45.9540   38.1940 C.2   358  NAD358      0.4393
     18  N6A       -2.3640   45.6010   37.0980 N.pl3 358  NAD358      0.2180
     19  N1A       -2.3850   45.6560   39.3950 N.2   358  NAD358      0.0021
     20  C2A       -1.8330   45.9850   40.5880 C.3   358  NAD358      0.5254
     21  N3A       -0.6100   46.6000   40.6760 N.2   358  NAD358     -0.0055
     22  C4A        0.0250   46.8750   39.4920 C.2   358  NAD358      0.3518
     23  O3         6.0050   53.5640   40.4710 O.3   358  NAD358     -0.2703
     24  PN         5.6830   54.6980   41.5690 P.3   358  NAD358      0.2189
     25  O1N        6.6640   55.6820   41.2540 O.2   358  NAD358     -0.5170
     26  O2N        5.5290   54.1650   42.9380 O.3   358  NAD358     -0.4371
     27  O5D        4.2520   55.3060   41.0650 O.3   358  NAD358     -0.3112
     28  C5D        3.1000   55.2370   41.9190 C.3   358  NAD358      0.1813
     29  C4D        1.9950   56.1890   41.4000 C.3   358  NAD358      0.1799
     30  O4D        2.4560   57.5310   41.3600 O.3   358  NAD358     -0.3327
     31  C3D        1.6150   55.8230   39.9690 C.3   358  NAD358      0.2158
     32  O3D        0.2380   55.9550   39.7550 O.3   358  NAD358     -0.2175
     33  C2D        2.3180   56.8380   39.1070 C.3   358  NAD358      0.2309
     34  O2D        1.6550   57.0450   37.8620 O.3   358  NAD358     -0.2158
     35  C1D        2.2830   58.0410   40.0480 C.3   358  NAD358      0.2263
     36  N1N        3.3570   58.9790   39.7940 N.pl3 358  NAD358     -0.2787
     37  C2N        4.6570   58.7040   40.1420 C.3   358  NAD358      0.1244
     38  C3N        5.6220   59.6730   39.8860 C.2   358  NAD358      0.0544
     39  C7N        6.9930   59.5940   40.4750 C.2   358  NAD358      0.2818
     40  O7N        7.7610   60.7660   40.3690 O.2   358  NAD358     -0.2670
     41  N7N        7.4270   58.4510   41.0290 N.am  358  NAD358     -0.0839
     42  C4N        5.2720   60.8730   39.2820 C.2   358  NAD358      0.0033
     43  C5N        3.9580   61.1400   38.9500 C.2   358  NAD358      0.0157
     44  C6N        2.9920   60.1790   39.2310 C.2   358  NAD358      0.0633
@<TRIPOS>BOND
     1    18    17    1
     2    15    14    1
     3    15    16    2
     4    34    33    1
     5    14    13    1
     6    17    16    1
     7    17    19    2
     8    16    22    1
     9    43    44    2
    10    43    42    1
    11    33    31    1
    12    33    35    1
    13    44    36    1
    14    13    22    1
    15    13    12    1
    16    42    38    2
    17     2     1    2
    18    19    20    1
    19    22    21    2
    20    32    31    1
    21    36    35    1
    22    36    37    1
    23    38    37    1
    24    38    39    1
    25    31    29    1
    26    35    30    1
    27    10    11    1
    28    10    12    1
    29    10     8    1
    30    12     7    1
    31    40    39    2
    32    23     1    1
    33    23    24    1
    34    39    41   am
    35     7     6    1
    36     5     6    1
    37     5     4    1
    38    20    21    1
    39     1     4    1
    40     1     3    1
    41    27    24    1
    42    27    28    1
    43     8     6    1
    44     8     9    1
    45    25    24    2
    46    30    29    1
    47    29    28    1
    48    24    26    1
