@<TRIPOS>MOLECULE
2q1u_UDP_A_1.pdb
 21 22 0 0 0
SMALL
GASTEIGER

@<TRIPOS>ATOM
      1  N1         6.6810   24.2450   43.3140 N.am  701  UDP701     -0.1766
      2  C2         6.1920   24.2840   44.6340 C.1   701  UDP701      0.2845
      3  N3         5.9220   23.1130   45.2940 N.2   701  UDP701     -0.2452
      4  C4         6.1150   21.8990   44.6580 C.1   701  UDP701      0.2182
      5  C5         6.5980   21.8480   43.3460 C.2   701  UDP701      0.1242
      6  C6         6.9790   23.0340   42.7200 C.2   701  UDP701      0.0929
      7  O2         5.9910   25.3090   45.2770 O.2   701  UDP701     -0.1918
      8  O4         5.8630   20.8760   45.2960 O.2   701  UDP701     -0.2085
      9  C1'        6.9730   25.4990   42.5740 C.3   701  UDP701      0.2401
     10  C2'        8.4610   25.7110   42.3270 C.3   701  UDP701      0.2319
     11  O2'        9.1050   26.2950   43.4470 O.3   701  UDP701     -0.2157
     12  C3'        8.4780   26.5870   41.0780 C.3   701  UDP701      0.2158
     13  C4'        7.1860   26.2030   40.3480 C.3   701  UDP701      0.1801
     14  O4'        6.3930   25.4560   41.2740 O.3   701  UDP701     -0.3320
     15  O3'        8.4460   27.9570   41.4190 O.3   701  UDP701     -0.2175
     16  C5'        7.4580   25.3960   39.0780 C.3   701  UDP701      0.1859
     17  O5'        7.8220   24.0990   39.5110 O.3   701  UDP701     -0.2675
     18  PA         8.9560   23.1960   38.7910 P.3   701  UDP701      0.5327
     19  O1A        8.5780   23.0480   37.3580 O.2   701  UDP701     -0.2224
     20  O2A        9.0400   21.9110   39.5270 O.3   701  UDP701     -0.1145
     21  O3A       10.3340   24.0250   38.9120 O.3   701  UDP701     -0.1145
@<TRIPOS>BOND
     1    19    18    2
     2    18    21    1
     3    18    17    1
     4    18    20    1
     5    16    17    1
     6    16    13    1
     7    13    12    1
     8    13    14    1
     9    12    15    1
    10    12    10    1
    11    14     9    1
    12    10     9    1
    13    10    11    1
    14     9     1    1
    15     6     1    1
    16     6     5    2
    17     1     2   am
    18     5     4    1
    19     2     7    2
    20     2     3    2
    21     4     3    2
    22     4     8    2
