@<TRIPOS>MOLECULE
2q1u_NAD_A_1.pdb
 44 48 0 0 0
SMALL
GASTEIGER

@<TRIPOS>ATOM
      1  PA         4.7350   12.6850   28.6310 P.3   601  NAD601      0.2189
      2  O1A        5.9010   12.0640   29.3100 O.3   601  NAD601     -0.4371
      3  O2A        3.3950   12.3930   29.2170 O.2   601  NAD601     -0.5170
      4  O5B        4.6940   12.3420   27.0860 O.3   601  NAD601     -0.3112
      5  C5B        5.7960   11.9690   26.3150 C.3   601  NAD601      0.1813
      6  C4B        5.5180   10.5950   25.7160 C.3   601  NAD601      0.1821
      7  O4B        6.6400   10.1200   24.9970 O.3   601  NAD601     -0.3135
      8  C3B        5.2410    9.5130   26.8130 C.3   601  NAD601      0.2184
      9  O3B        3.9940    8.8450   26.5500 O.3   601  NAD601     -0.2174
     10  C2B        6.3560    8.5230   26.6780 C.3   601  NAD601      0.2570
     11  O2B        6.0540    7.1480   27.0690 O.3   601  NAD601     -0.2130
     12  C1B        6.7000    8.6960   25.2090 C.3   601  NAD601      0.3186
     13  N9A        8.0070    8.1660   24.7870 N.pl3 601  NAD601     -0.1439
     14  C8A        9.1680    8.2280   25.5240 C.3   601  NAD601      0.3377
     15  N7A       10.1830    7.7210   24.8030 N.2   601  NAD601     -0.2095
     16  C5A        9.6880    7.2830   23.6090 C.2   601  NAD601      0.2526
     17  C6A       10.2900    6.6880   22.5000 C.2   601  NAD601      0.4393
     18  N6A       11.5720    6.3450   22.4480 N.pl3 601  NAD601      0.2180
     19  N1A        9.4390    6.4010   21.4340 N.2   601  NAD601      0.0021
     20  C2A        8.1110    6.6960   21.4610 C.3   601  NAD601      0.5254
     21  N3A        7.5000    7.2890   22.5260 N.2   601  NAD601     -0.0055
     22  C4A        8.3270    7.5980   23.5880 C.2   601  NAD601      0.3518
     23  O3         4.9790   14.2700   28.7000 O.3   601  NAD601     -0.2703
     24  PN         4.1310   15.4200   28.0290 P.3   601  NAD601      0.2189
     25  O1N        3.9910   16.4880   28.9810 O.3   601  NAD601     -0.4371
     26  O2N        2.8460   14.9340   27.4510 O.2   601  NAD601     -0.5170
     27  O5D        5.0630   15.9850   26.8200 O.3   601  NAD601     -0.3112
     28  C5D        4.6650   15.8740   25.4500 C.3   601  NAD601      0.1813
     29  C4D        5.6660   16.7000   24.6210 C.3   601  NAD601      0.1799
     30  O4D        5.4120   18.0740   24.9650 O.3   601  NAD601     -0.3327
     31  C3D        7.1080   16.3940   24.9350 C.3   601  NAD601      0.2158
     32  O3D        7.8150   16.4710   23.7170 O.3   601  NAD601     -0.2175
     33  C2D        7.5090   17.5330   25.8520 C.3   601  NAD601      0.2309
     34  O2D        8.9100   17.8240   25.8110 O.3   601  NAD601     -0.2158
     35  C1D        6.6710   18.6650   25.2750 C.3   601  NAD601      0.2263
     36  N1N        6.4850   19.7460   26.2430 N.pl3 601  NAD601     -0.2787
     37  C2N        5.6930   19.5440   27.3620 C.3   601  NAD601      0.1244
     38  C3N        5.4910   20.5120   28.3290 C.2   601  NAD601      0.0544
     39  C7N        4.5270   20.3030   29.4590 C.2   601  NAD601      0.2818
     40  O7N        4.3180   21.3830   30.2860 O.2   601  NAD601     -0.2670
     41  N7N        3.9080   19.1330   29.6600 N.am  601  NAD601     -0.0839
     42  C4N        6.0820   21.7690   28.1660 C.2   601  NAD601      0.0033
     43  C5N        6.8530   21.9850   27.0240 C.2   601  NAD601      0.0157
     44  C6N        7.0680   20.9980   26.0570 C.2   601  NAD601      0.0633
@<TRIPOS>BOND
     1    19    20    1
     2    19    17    2
     3    20    21    1
     4    18    17    1
     5    17    16    1
     6    21    22    2
     7    22    16    1
     8    22    13    1
     9    16    15    2
    10    32    31    1
    11    29    31    1
    12    29    30    1
    13    29    28    1
    14    13    12    1
    15    13    14    1
    16    15    14    1
    17    31    33    1
    18    30    35    1
    19     7    12    1
    20     7     6    1
    21    12    10    1
    22    35    33    1
    23    35    36    1
    24    28    27    1
    25     6     5    1
    26     6     8    1
    27    34    33    1
    28    44    36    1
    29    44    43    2
    30    36    37    1
    31     5     4    1
    32     9     8    1
    33    10     8    1
    34    10    11    1
    35    27    24    1
    36    43    42    1
    37     4     1    1
    38    37    38    1
    39    26    24    2
    40    24    23    1
    41    24    25    1
    42    42    38    2
    43    38    39    1
    44     1    23    1
    45     1     3    2
    46     1     2    1
    47    39    41   am
    48    39    40    2
