@<TRIPOS>MOLECULE
2q1v_PDN_A_1.pdb
 26 29 0 0 0
SMALL
GASTEIGER

@<TRIPOS>ATOM
      1  C1        -9.4430  -31.2040  -21.3660 C.3   248  PDN248      0.0119
      2  C2        -9.7720  -30.3640  -22.5880 C.3   248  PDN248      0.0694
      3  C3       -11.0700  -29.8820  -22.4680 C.2   248  PDN248      0.1725
      4  C4       -11.5730  -29.5670  -21.2090 C.2   248  PDN248      0.0289
      5  C5       -10.8270  -29.7410  -20.0490 C.2   248  PDN248     -0.0419
      6  C6       -11.4140  -29.3440  -18.8480 C.3   248  PDN248      0.0221
      7  C7       -11.2440  -30.3490  -17.7190 C.3   248  PDN248      0.0044
      8  C8        -9.7860  -30.7570  -17.6150 C.3   248  PDN248      0.0032
      9  C9        -9.4630  -31.4090  -18.9480 C.3   248  PDN248      0.0339
     10  C10       -9.5990  -30.4020  -20.0820 C.3   248  PDN248      0.0181
     11  C11       -8.1160  -32.1270  -18.9510 C.3   248  PDN248      0.1523
     12  C12       -7.9880  -33.0970  -17.7830 C.3   248  PDN248      0.0357
     13  C13       -8.2770  -32.3660  -16.4820 C.3   248  PDN248      0.0348
     14  C14       -9.6910  -31.8240  -16.5370 C.3   248  PDN248      0.0030
     15  C15       -9.8240  -31.2790  -15.1270 C.3   248  PDN248      0.0031
     16  C16       -9.2610  -32.4240  -14.2920 C.3   248  PDN248      0.0377
     17  C17       -8.4440  -33.2640  -15.2670 C.3   248  PDN248      0.1796
     18  C18       -7.2750  -31.2550  -16.2110 C.3   248  PDN248      0.0030
     19  C19       -8.4960  -29.3460  -19.9850 C.3   248  PDN248      0.0041
     20  C20       -7.1090  -33.6970  -14.6560 C.2   248  PDN248      0.2109
     21  C21       -6.5010  -34.9850  -15.2150 C.3   248  PDN248      0.2484
     22  O1       -11.8060  -29.8200  -23.4520 O.2   248  PDN248     -0.2914
     23  O2        -7.0120  -31.2120  -18.9750 O.3   248  PDN248     -0.2231
     24  O3        -9.1930  -34.4320  -15.6320 O.3   248  PDN248     -0.2181
     25  O4        -6.6170  -33.1240  -13.6840 O.2   248  PDN248     -0.2907
     26  O5        -5.1020  -35.0080  -14.9160 O.3   248  PDN248     -0.2118
@<TRIPOS>BOND
     1    22     3    2
     2     2     3    1
     3     2     1    1
     4     3     4    1
     5     1    10    1
     6     4     5    2
     7    10     5    1
     8    10    19    1
     9    10     9    1
    10     5     6    1
    11    23    11    1
    12    11     9    1
    13    11    12    1
    14     9     8    1
    15     6     7    1
    16    12    13    1
    17     7     8    1
    18     8    14    1
    19    14    13    1
    20    14    15    1
    21    13    18    1
    22    13    17    1
    23    24    17    1
    24    17    20    1
    25    17    16    1
    26    21    26    1
    27    21    20    1
    28    15    16    1
    29    20    25    2
