@<TRIPOS>MOLECULE
2q1w_NAD_A_1.pdb
 44 48 0 0 0
SMALL
GASTEIGER

@<TRIPOS>ATOM
      1  PA        17.5170    7.9930   49.7020 P.3   501  NAD501      0.2189
      2  O1A       16.4730    8.8700   49.1750 O.2   501  NAD501     -0.5170
      3  O2A       18.9220    8.4570   49.4970 O.3   501  NAD501     -0.4371
      4  O5B       17.3050    6.4500   49.1880 O.3   501  NAD501     -0.3112
      5  C5B       16.1000    5.8470   48.7420 C.3   501  NAD501      0.1813
      6  C4B       16.4290    5.2440   47.3660 C.3   501  NAD501      0.1821
      7  O4B       15.3780    4.4210   46.9330 O.3   501  NAD501     -0.3135
      8  C3B       16.5550    6.3250   46.3030 C.3   501  NAD501      0.2184
      9  O3B       17.7520    6.1530   45.5720 O.3   501  NAD501     -0.2174
     10  C2B       15.2610    6.2140   45.5210 C.3   501  NAD501      0.2570
     11  O2B       15.3960    6.6380   44.2100 O.3   501  NAD501     -0.2130
     12  C1B       14.9940    4.7230   45.6310 C.3   501  NAD501      0.3186
     13  N9A       13.5750    4.4280   45.4430 N.pl3 501  NAD501     -0.1439
     14  C8A       12.4730    5.1640   45.8430 C.3   501  NAD501      0.3377
     15  N7A       11.3590    4.5550   45.4100 N.2   501  NAD501     -0.2095
     16  C5A       11.7340    3.4380   44.7020 C.2   501  NAD501      0.2526
     17  C6A       11.0390    2.4110   44.0260 C.2   501  NAD501      0.4393
     18  N6A        9.7240    2.4780   43.8900 N.pl3 501  NAD501      0.2180
     19  N1A       11.7140    1.3700   43.3940 N.2   501  NAD501      0.0021
     20  C2A       13.1010    1.3270   43.4030 C.3   501  NAD501      0.5254
     21  N3A       13.7910    2.3210   44.0740 N.2   501  NAD501     -0.0055
     22  C4A       13.1300    3.3550   44.7100 C.2   501  NAD501      0.3518
     23  O3        17.2310    7.8450   51.2490 O.3   501  NAD501     -0.2703
     24  PN        18.1110    7.1130   52.3420 P.3   501  NAD501      0.2189
     25  O1N       18.4810    8.1520   53.3080 O.3   501  NAD501     -0.4371
     26  O2N       19.2050    6.2870   51.7180 O.2   501  NAD501     -0.5170
     27  O5D       17.0270    6.1660   52.9950 O.3   501  NAD501     -0.3112
     28  C5D       17.1680    4.7550   52.9080 C.3   501  NAD501      0.1813
     29  C4D       16.1220    4.0630   53.7920 C.3   501  NAD501      0.1799
     30  O4D       16.3310    4.3850   55.1600 O.3   501  NAD501     -0.3327
     31  C3D       14.6790    4.4170   53.4740 C.3   501  NAD501      0.2158
     32  O3D       13.8600    3.3050   53.7250 O.3   501  NAD501     -0.2175
     33  C2D       14.2830    5.3890   54.5530 C.3   501  NAD501      0.2309
     34  O2D       12.8940    5.3340   54.8060 O.3   501  NAD501     -0.2158
     35  C1D       15.1270    4.9090   55.7220 C.3   501  NAD501      0.2263
     36  N1N       15.3630    6.0140   56.6600 N.pl3 501  NAD501     -0.2787
     37  C2N       16.2840    7.0110   56.3680 C.3   501  NAD501      0.1244
     38  C3N       16.4900    8.0470   57.2690 C.2   501  NAD501      0.0544
     39  C7N       17.3030    9.2380   56.9140 C.2   501  NAD501      0.2818
     40  O7N       17.2600   10.2900   57.8350 O.2   501  NAD501     -0.2670
     41  N7N       18.0010    9.3180   55.7740 N.am  501  NAD501     -0.0839
     42  C4N       15.7660    8.0870   58.4650 C.2   501  NAD501      0.0033
     43  C5N       14.8510    7.0630   58.7430 C.2   501  NAD501      0.0157
     44  C6N       14.6540    6.0290   57.8330 C.2   501  NAD501      0.0633
@<TRIPOS>BOND
     1    19    20    1
     2    19    17    2
     3    20    21    1
     4    18    17    1
     5    17    16    1
     6    21    22    2
     7    11    10    1
     8    16    22    1
     9    16    15    2
    10    22    13    1
    11    15    14    1
    12    13    12    1
    13    13    14    1
    14    10    12    1
    15    10     8    1
    16     9     8    1
    17    12     7    1
    18     8     6    1
    19     7     6    1
    20     6     5    1
    21     5     4    1
    22     2     1    2
    23     4     1    1
    24     3     1    1
    25     1    23    1
    26    23    24    1
    27    26    24    2
    28    24    27    1
    29    24    25    1
    30    28    27    1
    31    28    29    1
    32    31    32    1
    33    31    29    1
    34    31    33    1
    35    29    30    1
    36    33    34    1
    37    33    35    1
    38    30    35    1
    39    35    36    1
    40    41    39   am
    41    37    36    1
    42    37    38    1
    43    36    44    1
    44    39    38    1
    45    39    40    2
    46    38    42    2
    47    44    43    2
    48    42    43    1
