@<TRIPOS>MOLECULE
2q1y_GSP_A_1.pdb
 32 34 0 0 0
SMALL
GASTEIGER

@<TRIPOS>ATOM
      1  PG         8.3230   42.0080   16.2660 P.3   401  GSP401      0.4340
      2  O3B        7.2340   41.1600   15.4110 O.3   401  GSP401     -0.2405
      3  S1G        9.8710   41.8530   15.5740 S.3   401  GSP401      0.0416
      4  O2G        7.9260   43.4970   16.2690 O.2   401  GSP401     -0.2423
      5  O3G        8.3060   41.5120   17.7270 O.3   401  GSP401     -0.1305
      6  PB         7.0720   41.0300   13.8120 P.3   401  GSP401      0.2262
      7  O1B        5.6570   40.6680   13.5560 O.3   401  GSP401     -0.4369
      8  O2B        7.5180   42.1700   12.9890 O.2   401  GSP401     -0.5168
      9  PA         8.3640   39.1590   12.0730 P.3   401  GSP401      0.2189
     10  O1A        7.2090   39.3520   11.1410 O.2   401  GSP401     -0.5170
     11  O2A        9.6550   39.6940   11.5550 O.3   401  GSP401     -0.4371
     12  O3A        8.0050   39.7480   13.5190 O.3   401  GSP401     -0.2701
     13  O5'        8.5080   37.6110   12.3810 O.3   401  GSP401     -0.3112
     14  C5'        7.3820   36.8140   12.6630 C.3   401  GSP401      0.1813
     15  C4'        7.4780   35.4960   11.9100 C.3   401  GSP401      0.1799
     16  O4'        7.4610   35.6920   10.5120 O.3   401  GSP401     -0.3326
     17  C3'        8.7610   34.7330   12.2150 C.3   401  GSP401      0.2158
     18  O3'        8.6170   33.9350   13.3670 O.3   401  GSP401     -0.2175
     19  C2'        8.9870   33.9320   10.9530 C.3   401  GSP401      0.2310
     20  O2'        8.2960   32.6900   10.9680 O.3   401  GSP401     -0.2158
     21  C1'        8.3760   34.8140    9.8770 C.3   401  GSP401      0.2293
     22  N9         9.3530   35.6220    9.1330 N.pl3 401  GSP401     -0.2354
     23  C8        10.5230   36.2140    9.5760 C.3   401  GSP401      0.2246
     24  N7        11.0860   36.8700    8.5350 N.2   401  GSP401     -0.2322
     25  C5        10.2910   36.7150    7.4300 C.2   401  GSP401      0.2182
     26  C6        10.3670   37.1530    6.1130 C.1   401  GSP401      0.2372
     27  O6        11.3100   37.8440    5.7160 O.2   401  GSP401     -0.2069
     28  N1         9.3760   36.8070    5.2190 N.2   401  GSP401     -0.2485
     29  C2         8.3060   36.0270    5.6250 C.1   401  GSP401      0.2531
     30  N2         7.3330   35.6870    4.7890 N.pl3 401  GSP401     -0.0226
     31  N3         8.2340   35.5920    6.9320 N.2   401  GSP401     -0.3074
     32  C4         9.2080   35.9310    7.8080 C.2   401  GSP401      0.2300
@<TRIPOS>BOND
     1    30    29    1
     2    28    29    2
     3    28    26    2
     4    29    31    2
     5    27    26    2
     6    26    25    1
     7    31    32    2
     8    25    32    1
     9    25    24    2
    10    32    22    1
    11    24    23    1
    12    22    23    1
    13    22    21    1
    14    21    16    1
    15    21    19    1
    16    16    15    1
    17    19    20    1
    18    19    17    1
    19    10     9    2
    20    11     9    1
    21    15    17    1
    22    15    14    1
    23     9    13    1
    24     9    12    1
    25    17    18    1
    26    13    14    1
    27     8     6    2
    28    12     6    1
    29     7     6    1
    30     6     2    1
    31     2     1    1
    32     3     1    1
    33     1     4    2
    34     1     5    1
