@<TRIPOS>MOLECULE
2q21_GDP_A_1.pdb
 28 30 0 0 0
SMALL
GASTEIGER

@<TRIPOS>ATOM
      1  PB        25.7570   20.8490   13.2070 P.3   180  GDP180      0.5373
      2  O1B       26.3940   19.8950   14.2690 O.3   180  GDP180     -0.1143
      3  O2B       26.4920   22.1540   12.9940 O.2   180  GDP180     -0.2221
      4  O3B       24.1490   21.1890   13.5470 O.3   180  GDP180     -0.1143
      5  O3A       25.6340   20.1520   11.8030 O.3   180  GDP180     -0.2261
      6  PA        24.3350   19.8120   10.8830 P.3   180  GDP180      0.2231
      7  O1A       23.7970   21.0920   10.3140 O.2   180  GDP180     -0.5169
      8  O2A       23.3300   18.8460   11.6820 O.3   180  GDP180     -0.4370
      9  O5'       25.0140   19.0100    9.7890 O.3   180  GDP180     -0.3111
     10  C5'       26.2340   19.5400    9.2780 C.3   180  GDP180      0.1813
     11  C4'       26.4960   19.0120    7.9070 C.3   180  GDP180      0.1799
     12  O4'       26.8470   17.6210    8.0170 O.3   180  GDP180     -0.3326
     13  C3'       25.3190   19.0110    6.9740 C.3   180  GDP180      0.2158
     14  O3'       25.8030   18.9680    5.6260 O.3   180  GDP180     -0.2175
     15  C2'       24.6560   17.7280    7.3530 C.3   180  GDP180      0.2310
     16  O2'       23.7350   17.3190    6.3320 O.3   180  GDP180     -0.2158
     17  C1'       25.8650   16.8480    7.3300 C.3   180  GDP180      0.2293
     18  N9        25.6760   15.5990    8.0660 N.pl3 180  GDP180     -0.2354
     19  C8        25.2190   15.4920    9.3520 C.3   180  GDP180      0.2246
     20  N7        25.2640   14.2510    9.8350 N.2   180  GDP180     -0.2322
     21  C5        25.7250   13.4730    8.7450 C.2   180  GDP180      0.2182
     22  C6        25.8920   12.1560    8.7020 C.1   180  GDP180      0.2372
     23  O6        25.6350   11.3010    9.5790 O.2   180  GDP180     -0.2069
     24  N1        26.3950   11.7390    7.4460 N.2   180  GDP180     -0.2485
     25  C2        26.7460   12.5770    6.3940 C.1   180  GDP180      0.2531
     26  N2        27.3120   11.9710    5.3360 N.pl3 180  GDP180     -0.0226
     27  N3        26.5880   13.9160    6.4750 N.2   180  GDP180     -0.3074
     28  C4        26.0050   14.3160    7.6620 C.2   180  GDP180      0.2300
@<TRIPOS>BOND
     1    26    25    1
     2    14    13    1
     3    16    15    1
     4    25    27    2
     5    25    24    2
     6    27    28    2
     7    13    15    1
     8    13    11    1
     9    17    15    1
    10    17    12    1
    11    17    18    1
    12    24    22    2
    13    28    18    1
    14    28    21    1
    15    11    12    1
    16    11    10    1
    17    18    19    1
    18    22    21    1
    19    22    23    2
    20    21    20    2
    21    10     9    1
    22    19    20    1
    23     9     6    1
    24     7     6    2
    25     6     8    1
    26     6     5    1
    27     5     1    1
    28     3     1    2
    29     1     4    1
    30     1     2    1
