@<TRIPOS>MOLECULE
2q27_TPP_A_1.pdb
 26 27 0 0 0
SMALL
GASTEIGER

@<TRIPOS>ATOM
      1  N1'        9.1360  -13.6500  -33.0570 N.2   3001  TPP3001    -0.1861
      2  C2'        8.2710  -14.0000  -32.0780 C.1   3001  TPP3001     0.0663
      3  CM2        6.7880  -14.1970  -32.3930 C.3   3001  TPP3001     0.1291
      4  N3'        8.7870  -14.1240  -30.7950 N.2   3001  TPP3001    -0.3368
      5  C4'       10.1210  -13.9480  -30.5100 C.2   3001  TPP3001     0.2292
      6  N4'       10.5770  -14.1330  -29.2800 N.pl3 3001  TPP3001    -0.0925
      7  C5'       11.0120  -13.5910  -31.5180 C.2   3001  TPP3001     0.0654
      8  C6'       10.4970  -13.4360  -32.7820 C.2   3001  TPP3001     0.1115
      9  C7'       12.4760  -13.3160  -31.1980 C.3   3001  TPP3001     0.1237
     10  N3        12.6510  -12.1630  -30.2720 N.pl3 3001  TPP3001    -0.2970
     11  C2        13.1840  -12.1630  -28.9400 C.3   3001  TPP3001     0.1543
     12  S1        13.1790  -10.6800  -28.2290 S.3   3001  TPP3001    -0.0951
     13  C5        12.6480   -9.9730  -29.6250 C.2   3001  TPP3001     0.0164
     14  C4        12.3450  -10.8890  -30.6230 C.2   3001  TPP3001     0.0279
     15  CM4       11.7910  -10.5070  -31.9610 C.3   3001  TPP3001     0.0473
     16  C6        12.4090   -8.4490  -29.6530 C.3   3001  TPP3001     0.0661
     17  C7        13.5260   -7.6560  -28.8830 C.3   3001  TPP3001     0.1544
     18  O7        13.4760   -6.2530  -29.0990 O.3   3001  TPP3001    -0.3134
     19  PA        12.5330   -5.2920  -28.3270 P.3   3001  TPP3001     0.2230
     20  O1A       11.1290   -5.8540  -28.2440 O.3   3001  TPP3001    -0.4370
     21  O2A       12.5230   -4.0050  -29.0810 O.2   3001  TPP3001    -0.5169
     22  O3A       13.1900   -5.1960  -26.8580 O.3   3001  TPP3001    -0.2261
     23  PB        14.5370   -4.3230  -26.4770 P.3   3001  TPP3001     0.5373
     24  O1B       15.4600   -5.4100  -26.0770 O.3   3001  TPP3001    -0.1143
     25  O2B       14.1100   -3.3610  -25.3780 O.3   3001  TPP3001    -0.1143
     26  O3B       15.0210   -3.6530  -27.7420 O.2   3001  TPP3001    -0.2221
@<TRIPOS>BOND
     1     1     8    1
     2     1     2    2
     3     8     7    2
     4     3     2    1
     5     2     4    2
     6    15    14    1
     7     7     9    1
     8     7     5    1
     9     9    10    1
    10     4     5    2
    11    14    10    1
    12    14    13    2
    13     5     6    1
    14    10    11    1
    15    16    13    1
    16    16    17    1
    17    13    12    1
    18    18    17    1
    19    18    19    1
    20    21    19    2
    21    11    12    1
    22    19    20    1
    23    19    22    1
    24    26    23    2
    25    22    23    1
    26    23    24    1
    27    23    25    1
