@<TRIPOS>MOLECULE
2q28_TPP_A_1.pdb
 26 27 0 0 0
SMALL
GASTEIGER

@<TRIPOS>ATOM
      1  N1'        9.2930   13.4170   32.9570 N.2   4001  TPP4001    -0.1861
      2  C2'        8.3810   13.7580   31.9750 C.1   4001  TPP4001     0.0663
      3  CM2        6.9380   14.0090   32.3120 C.3   4001  TPP4001     0.1291
      4  N3'        8.8020   13.9010   30.6730 N.2   4001  TPP4001    -0.3368
      5  C4'       10.1490   13.7080   30.3460 C.2   4001  TPP4001     0.2292
      6  N4'       10.5150   13.8820   29.0680 N.pl3 4001  TPP4001    -0.0925
      7  C5'       11.0820   13.3400   31.3200 C.2   4001  TPP4001     0.0654
      8  C6'       10.6270   13.1890   32.6400 C.2   4001  TPP4001     0.1115
      9  C7'       12.5610   13.0500   31.0040 C.3   4001  TPP4001     0.1237
     10  N3        12.7110   11.8600   30.1210 N.pl3 4001  TPP4001    -0.2970
     11  C2        13.2020   11.8610   28.8110 C.3   4001  TPP4001     0.1543
     12  S1        13.2300   10.3890   28.0940 S.3   4001  TPP4001    -0.0951
     13  C5        12.6940    9.6760   29.4690 C.2   4001  TPP4001     0.0164
     14  C4        12.4340   10.5670   30.4930 C.2   4001  TPP4001     0.0279
     15  CM4       11.9020   10.1640   31.8530 C.3   4001  TPP4001     0.0473
     16  C6        12.4830    8.1730   29.5060 C.3   4001  TPP4001     0.0661
     17  C7        13.5590    7.4090   28.7120 C.3   4001  TPP4001     0.1544
     18  O7        13.4930    6.0210   29.0010 O.3   4001  TPP4001    -0.3134
     19  PA        12.5170    5.0050   28.2300 P.3   4001  TPP4001     0.2230
     20  O1A       11.1160    5.5320   28.0840 O.2   4001  TPP4001    -0.5169
     21  O2A       12.5500    3.6610   28.9470 O.3   4001  TPP4001    -0.4370
     22  O3A       13.1610    4.9370   26.7530 O.3   4001  TPP4001    -0.2261
     23  PB        14.5390    4.1140   26.3880 P.3   4001  TPP4001     0.5373
     24  O1B       15.4910    5.1960   25.9420 O.3   4001  TPP4001    -0.1143
     25  O2B       14.2010    3.1960   25.2290 O.2   4001  TPP4001    -0.2221
     26  O3B       15.0480    3.3920   27.6120 O.3   4001  TPP4001    -0.1143
@<TRIPOS>BOND
     1    25    23    2
     2    24    23    1
     3    23    22    1
     4    23    26    1
     5    22    19    1
     6    20    19    2
     7    12    11    1
     8    12    13    1
     9    19    21    1
    10    19    18    1
    11    17    18    1
    12    17    16    1
    13    11    10    1
    14     6     5    1
    15    13    16    1
    16    13    14    2
    17    10    14    1
    18    10     9    1
    19     5     4    2
    20     5     7    1
    21    14    15    1
    22     4     2    2
    23     9     7    1
    24     7     8    2
    25     2     3    1
    26     2     1    2
    27     8     1    1
