@<TRIPOS>MOLECULE
2q28_ADP_A_1.pdb
 27 29 0 0 0
SMALL
GASTEIGER

@<TRIPOS>ATOM
      1  PB         6.3350   20.0620   14.1200 P.3   4003  ADP4003     0.5373
      2  O1B        5.8100   18.9700   13.2570 O.2   4003  ADP4003    -0.2221
      3  O2B        6.6200   19.6810   15.5450 O.3   4003  ADP4003    -0.1143
      4  O3B        7.5190   20.7920   13.5000 O.3   4003  ADP4003    -0.1143
      5  PA         4.9250   22.3840   15.1300 P.3   4003  ADP4003     0.2231
      6  O1A        3.9410   21.9600   16.2060 O.3   4003  ADP4003    -0.4370
      7  O2A        6.2790   22.9080   15.5200 O.2   4003  ADP4003    -0.5169
      8  O3A        5.1360   21.1540   14.1290 O.3   4003  ADP4003    -0.2261
      9  O5'        4.2440   23.4730   14.1660 O.3   4003  ADP4003    -0.3111
     10  C5'        2.8780   23.3900   13.7570 C.3   4003  ADP4003     0.1813
     11  C4'        2.5130   24.7690   13.1800 C.3   4003  ADP4003     0.1821
     12  O4'        1.3120   24.6330   12.4100 O.3   4003  ADP4003    -0.3135
     13  C3'        2.2350   25.8650   14.2030 C.3   4003  ADP4003     0.2184
     14  O3'        3.1270   26.9830   13.9960 O.3   4003  ADP4003    -0.2174
     15  C2'        0.7720   26.2690   13.9560 C.3   4003  ADP4003     0.2570
     16  O2'        0.4720   27.6640   14.0760 O.3   4003  ADP4003    -0.2130
     17  C1'        0.5670   25.8640   12.5090 C.3   4003  ADP4003     0.3186
     18  N9        -0.7780   25.4280   12.0910 N.pl3 4003  ADP4003    -0.1439
     19  C8        -1.6160   24.5550   12.7170 C.3   4003  ADP4003     0.3377
     20  N7        -2.7310   24.3260   11.9650 N.2   4003  ADP4003    -0.2095
     21  C5        -2.5960   25.0600   10.8410 C.2   4003  ADP4003     0.2526
     22  C6        -3.3850   25.2810    9.6080 C.2   4003  ADP4003     0.4393
     23  N6        -4.5870   24.6670    9.4440 N.pl3 4003  ADP4003     0.2180
     24  N1        -2.8570   26.1340    8.6750 N.2   4003  ADP4003     0.0021
     25  C2        -1.6750   26.7410    8.8530 C.3   4003  ADP4003     0.5254
     26  N3        -0.8930   26.5780    9.9400 N.2   4003  ADP4003    -0.0055
     27  C4        -1.3080   25.7650   10.9300 C.2   4003  ADP4003     0.3518
@<TRIPOS>BOND
     1    24    25    1
     2    24    22    2
     3    25    26    1
     4    23    22    1
     5    22    21    1
     6    26    27    2
     7    21    27    1
     8    21    20    2
     9    27    18    1
    10    20    19    1
    11    18    17    1
    12    18    19    1
    13    12    17    1
    14    12    11    1
    15    17    15    1
    16    11    10    1
    17    11    13    1
    18     2     1    2
    19     4     1    1
    20    10     9    1
    21    15    16    1
    22    15    13    1
    23    14    13    1
    24     1     8    1
    25     1     3    1
    26     8     5    1
    27     9     5    1
    28     5     7    2
    29     5     6    1
