@<TRIPOS>MOLECULE
2q29_TPP_A_1.pdb
 26 27 0 0 0
SMALL
GASTEIGER

@<TRIPOS>ATOM
      1  N1'        9.3120  -13.7250  -32.8730 N.2   2001  TPP2001    -0.1861
      2  C2'        8.4080  -14.0120  -31.8690 C.1   2001  TPP2001     0.0663
      3  CM2        6.9520  -14.2490  -32.2030 C.3   2001  TPP2001     0.1291
      4  N3'        8.8530  -14.1200  -30.5800 N.2   2001  TPP2001    -0.3368
      5  C4'       10.1910  -13.9430  -30.2670 C.2   2001  TPP2001     0.2292
      6  N4'       10.5550  -14.0840  -28.9920 N.pl3 2001  TPP2001    -0.0925
      7  C5'       11.1110  -13.6010  -31.2730 C.2   2001  TPP2001     0.0654
      8  C6'       10.6380  -13.4840  -32.5800 C.2   2001  TPP2001     0.1115
      9  C7'       12.5820  -13.3100  -30.9930 C.3   2001  TPP2001     0.1237
     10  N3        12.7020  -12.1110  -30.1190 N.pl3 2001  TPP2001    -0.2970
     11  C2        13.1970  -12.1070  -28.8060 C.3   2001  TPP2001     0.1543
     12  S1        13.1890  -10.6480  -28.0580 S.3   2001  TPP2001    -0.0951
     13  C5        12.6680   -9.9450  -29.4550 C.2   2001  TPP2001     0.0164
     14  C4        12.4210  -10.8260  -30.4930 C.2   2001  TPP2001     0.0279
     15  CM4       11.9130  -10.3850  -31.8530 C.3   2001  TPP2001     0.0473
     16  C6        12.4720   -8.4330  -29.4800 C.3   2001  TPP2001     0.0661
     17  C7        13.5760   -7.7130  -28.6910 C.3   2001  TPP2001     0.1544
     18  O7        13.5150   -6.3200  -28.9700 O.3   2001  TPP2001    -0.3134
     19  PA        12.5690   -5.2990  -28.1730 P.3   2001  TPP2001     0.2230
     20  O1A       11.1740   -5.8470  -27.9900 O.3   2001  TPP2001    -0.4370
     21  O2A       12.5320   -4.0030  -28.9370 O.2   2001  TPP2001    -0.5169
     22  O3A       13.2090   -5.1460  -26.7040 O.3   2001  TPP2001    -0.2261
     23  PB        14.6150   -4.3950  -26.3590 P.3   2001  TPP2001     0.5373
     24  O1B       15.5750   -5.4540  -25.8990 O.3   2001  TPP2001    -0.1143
     25  O2B       14.2280   -3.4500  -25.2500 O.3   2001  TPP2001    -0.1143
     26  O3B       15.0940   -3.6640  -27.5870 O.2   2001  TPP2001    -0.2221
@<TRIPOS>BOND
     1     1     8    1
     2     1     2    2
     3     8     7    2
     4     3     2    1
     5     2     4    2
     6    15    14    1
     7     7     9    1
     8     7     5    1
     9     9    10    1
    10     4     5    2
    11    14    10    1
    12    14    13    2
    13     5     6    1
    14    10    11    1
    15    16    13    1
    16    16    17    1
    17    13    12    1
    18    18    17    1
    19    18    19    1
    20    21    19    2
    21    11    12    1
    22    19    20    1
    23    19    22    1
    24    26    23    2
    25    22    23    1
    26    23    24    1
    27    23    25    1
