@<TRIPOS>MOLECULE
2q29_ACO_A_1.pdb
 31 33 0 0 0
SMALL
GASTEIGER

@<TRIPOS>ATOM
      1  N1A       17.0310   -5.3170   -7.2110 N.2   2003  ACO2003     0.0021
      2  C2A       18.2940   -5.8130   -7.1470 C.3   2003  ACO2003     0.5254
      3  N3A       18.6230   -7.0060   -7.6740 N.2   2003  ACO2003    -0.0055
      4  C4A       17.6680   -7.7040   -8.3650 C.2   2003  ACO2003     0.3518
      5  C5A       16.2810   -7.2660   -8.4570 C.2   2003  ACO2003     0.2526
      6  C6A       16.0110   -5.9570   -7.8720 C.2   2003  ACO2003     0.4393
      7  N6A       14.7570   -5.4430   -7.9320 N.pl3 2003  ACO2003     0.2180
      8  N7A       15.5850   -8.2190   -9.1750 N.2   2003  ACO2003    -0.2095
      9  C8A       16.4270   -9.2300   -9.5130 C.3   2003  ACO2003     0.3377
     10  N9A       17.7320   -8.9520   -8.9210 N.pl3 2003  ACO2003    -0.1439
     11  C1B       18.9600   -9.4900   -9.5000 C.3   2003  ACO2003     0.3185
     12  C2B       18.9500  -10.9930   -9.2440 C.3   2003  ACO2003     0.2543
     13  O2B       19.3050  -11.3770   -7.9090 O.3   2003  ACO2003    -0.2131
     14  C3B       19.9600  -11.4590  -10.2700 C.3   2003  ACO2003     0.1928
     15  O3B       21.2930  -11.1580   -9.7900 O.3   2003  ACO2003    -0.2673
     16  P3B       22.2010  -12.3170   -9.1520 P.3   2003  ACO2003     0.5327
     17  O7A       22.6620  -13.1820  -10.2860 O.2   2003  ACO2003    -0.2224
     18  O8A       21.3180  -12.9900   -8.1390 O.3   2003  ACO2003    -0.1145
     19  O9A       23.3750  -11.5180   -8.5810 O.3   2003  ACO2003    -0.1145
     20  C4B       19.6630  -10.5450  -11.4410 C.3   2003  ACO2003     0.1795
     21  O4B       19.0860   -9.3420  -10.9010 O.3   2003  ACO2003    -0.3136
     22  C5B       18.7100  -11.1840  -12.4630 C.3   2003  ACO2003     0.1812
     23  O5B       17.5090  -11.6400  -11.8250 O.3   2003  ACO2003    -0.3111
     24  P1A       16.4140  -12.4460  -12.6710 P.3   2003  ACO2003     0.2231
     25  O1A       15.3530  -12.9050  -11.7040 O.3   2003  ACO2003    -0.4370
     26  O2A       16.0420  -11.5460  -13.8410 O.2   2003  ACO2003    -0.5169
     27  O3A       17.3430  -13.7070  -13.0840 O.3   2003  ACO2003    -0.2261
     28  P2A       17.2890  -14.5310  -14.4780 P.3   2003  ACO2003     0.5373
     29  O4A       15.8230  -14.6990  -14.8370 O.3   2003  ACO2003    -0.1143
     30  O5A       18.1570  -15.7550  -14.3220 O.3   2003  ACO2003    -0.1143
     31  O6A       17.9800  -13.4970  -15.5080 O.2   2003  ACO2003    -0.2221
@<TRIPOS>BOND
     1    31    28    2
     2    29    28    1
     3    28    30    1
     4    28    27    1
     5    26    24    2
     6    27    24    1
     7    24    23    1
     8    24    25    1
     9    22    23    1
    10    22    20    1
    11    20    21    1
    12    20    14    1
    13    21    11    1
    14    17    16    2
    15    14    15    1
    16    14    12    1
    17    15    16    1
    18     9     8    1
    19     9    10    1
    20    11    12    1
    21    11    10    1
    22    12    13    1
    23     8     5    2
    24    16    19    1
    25    16    18    1
    26    10     4    1
    27     5     4    1
    28     5     6    1
    29     4     3    2
    30     7     6    1
    31     6     1    2
    32     3     2    1
    33     1     2    1
