@<TRIPOS>MOLECULE
2q2a_ARG_A_1.pdb
 12 11 0 0 0
SMALL
GASTEIGER

@<TRIPOS>ATOM
      1  N          3.0300    1.9490   13.2740 N.3   904  ARG904     -0.1208
      2  CA         3.8830    0.9220   14.0000 C.3   904  ARG904      0.1944
      3  C          4.9230    0.3310   13.0670 C.2   904  ARG904      0.3819
      4  O          4.9050    0.5290   11.8310 O.co2 904  ARG904     -0.2441
      5  CB         3.0340   -0.2090   14.5910 C.3   904  ARG904      0.0343
      6  CG         2.1130   -0.8270   13.5400 C.3   904  ARG904      0.0490
      7  CD         1.5750   -2.1920   13.9660 C.3   904  ARG904      0.2205
      8  NE         0.4410   -2.5640   13.1070 N.pl3 904  ARG904     -0.0865
      9  CZ        -0.2520   -3.6990   13.2240 C.cat 904  ARG904      0.5346
     10  NH1        0.0680   -4.5820   14.1700 N.pl3 904  ARG904      0.1354
     11  NH2       -1.2820   -3.9490   12.4120 N.pl3 904  ARG904      0.1354
     12  OXT        5.8450   -0.3260   13.5550 O.co2 904  ARG904     -0.2441
@<TRIPOS>BOND
     1     4     3   ar
     2    11     9    1
     3     3    12   ar
     4     3     2    1
     5     8     9    2
     6     8     7    1
     7     9    10    1
     8     1     2    1
     9     6     7    1
    10     6     5    1
    11     2     5    1
