@<TRIPOS>MOLECULE
2q2c_HIS_A_1.pdb
 11 11 0 0 0
SMALL
GASTEIGER

@<TRIPOS>ATOM
      1  N          2.8720   -0.7830    4.2710 N.3   504  HIS504     -0.1204
      2  CA         3.7530   -1.4240    5.2890 C.3   504  HIS504      0.1999
      3  C          4.5380   -0.3970    6.0930 C.2   504  HIS504      0.3822
      4  O          5.0920   -0.7160    7.1420 O.co2 504  HIS504     -0.2440
      5  CB         4.6840   -2.4640    4.6430 C.3   504  HIS504      0.0740
      6  CG         5.7350   -1.8850    3.7430 C.2   504  HIS504      0.0651
      7  ND1        6.9950   -2.4320    3.6300 N.2   504  HIS504     -0.2310
      8  CD2        5.7150   -0.8160    2.9110 C.3   504  HIS504      0.1683
      9  CE1        7.7040   -1.7270    2.7660 C.2   504  HIS504      0.1939
     10  NE2        6.9490   -0.7430    2.3130 N.2   504  HIS504     -0.2440
     11  OXT        4.6200    0.7770    5.7260 O.co2 504  HIS504     -0.2440
@<TRIPOS>BOND
     1    10     9    2
     2    10     8    1
     3     9     7    1
     4     8     6    1
     5     7     6    2
     6     6     5    1
     7     1     2    1
     8     5     2    1
     9     2     3    1
    10    11     3   ar
    11     3     4   ar
