@<TRIPOS>MOLECULE
2q2n_H01_A_1.pdb
 46 50 0 0 0
SMALL
GASTEIGER

@<TRIPOS>ATOM
      1  N1        26.8370   -3.0190    1.9250 N.2   9001  H019001    -0.3657
      2  C11       27.5450   -1.8800    1.7580 C.1   9001  H019001     0.0303
      3  C12       27.1620   -0.9820    2.7510 C.2   9001  H019001     0.1671
      4  O1        27.6930    1.3980    1.6550 O.3   9001  H019001    -0.0643
      5  O2        29.2260    0.6380    3.3860 O.3   9001  H019001    -0.0643
      6  C13       26.1980   -1.6100    3.5210 C.2   9001  H019001     0.0359
      7  C15       25.1570   -3.8570    3.4550 C.2   9001  H019001     0.0998
      8  C14       26.0070   -2.8730    2.9810 C.2   9001  H019001     0.1486
      9  C16       22.4650   -7.9650    2.4860 C.3   9001  H019001     0.0435
     10  O3        26.9800    1.3790    3.9940 O.3   9001  H019001    -0.0643
     11  O4        23.3620   -4.5130    5.6450 O.3   9001  H019001    -0.0643
     12  C21       24.6670   -4.9970    2.8350 C.1   9001  H019001     0.0331
     13  C22       23.6550   -5.8180    3.2980 C.2   9001  H019001     0.1736
     14  C23       23.4870   -6.8230    2.3860 C.2   9001  H019001     0.0619
     15  C24       24.4190   -6.6150    1.3720 C.1   9001  H019001     0.0129
     16  C25       24.6300   -7.3690    0.2230 C.2   9001  H019001     0.0982
     17  C26       25.4480   -1.0430    4.7470 C.3   9001  H019001     0.0358
     18  O41       29.3600  -10.4910   -4.8480 O.co2 9001  H019001    -0.2456
     19  C49       29.8060   -9.4780   -4.2700 C.2   9001  H019001     0.3652
     20  O42       30.8840   -8.8660   -4.5130 O.co2 9001  H019001    -0.2456
     21  C48       28.9640   -8.9510   -3.1380 C.3   9001  H019001     0.1194
     22  C47       27.7340   -8.2050   -3.6420 C.3   9001  H019001     0.0476
     23  C33       27.0460   -7.5880   -2.4190 C.2   9001  H019001     0.0338
     24  C32       25.9580   -8.0910   -1.7570 C.2   9001  H019001     0.0141
     25  C46       25.1910   -9.3710   -2.1520 C.3   9001  H019001     0.0341
     26  C31       25.6590   -7.2460   -0.6990 C.2   9001  H019001     0.1469
     27  N3        26.5620   -6.2460   -0.6940 N.2   9001  H019001    -0.3673
     28  C34       27.4230   -6.4350   -1.7220 C.1   9001  H019001     0.0085
     29  C35       28.4930   -5.5950   -2.0280 C.2   9001  H019001     0.1301
     30  C41       28.9110   -4.3640   -1.5140 C.1   9001  H019001     0.0183
     31  N4        28.2700   -3.7430   -0.5110 N.2   9001  H019001    -0.3327
     32  C42       30.0060   -3.5720   -1.9060 C.2   9001  H019001     0.0410
     33  C37       31.0800   -3.8320   -3.0010 C.3   9001  H019001     0.0482
     34  C38       30.5650   -4.6080   -4.2230 C.3   9001  H019001     0.1194
     35  C39       30.0820   -3.6910   -5.3540 C.2   9001  H019001     0.3652
     36  O32       29.3600   -2.7160   -5.0450 O.co2 9001  H019001    -0.2456
     37  O31       30.4310   -4.0020   -6.5100 O.co2 9001  H019001    -0.2456
     38  C43       29.9640   -2.4620   -1.0810 C.2   9001  H019001     0.0408
     39  C36       30.9410   -1.2690   -1.0840 C.3   9001  H019001     0.0418
     40  C44       28.8890   -2.5840   -0.2300 C.1   9001  H019001     0.0184
     41  C45       28.4770   -1.6870    0.7510 C.2   9001  H019001     0.1317
     42  S1        27.7910    0.6560    2.9520 S.3   9001  H019001     0.0503
     43  N2        25.1200   -5.5010    1.6730 N.2   9001  H019001    -0.3322
     44  S2        22.7300   -5.5770    4.7880 S.3   9001  H019001     0.0509
     45  O5        22.6610   -6.8570    5.5760 O.3   9001  H019001    -0.0643
     46  O6        21.3540   -5.1490    4.4190 O.3   9001  H019001    -0.0643
@<TRIPOS>BOND
     1    37    35   ar
     2    35    36   ar
     3    35    34    1
     4    18    19   ar
     5    20    19   ar
     6    19    21    1
     7    34    33    1
     8    22    21    1
     9    22    23    1
    10    33    32    1
    11    23    24    2
    12    23    28    1
    13    25    24    1
    14    29    28    2
    15    29    30    1
    16    32    30    2
    17    32    38    1
    18    24    26    1
    19    28    27    2
    20    30    31    2
    21    39    38    1
    22    38    40    2
    23    26    27    2
    24    26    16    1
    25    31    40    2
    26    40    41    1
    27    16    15    2
    28    41     2    2
    29    15    43    2
    30    15    14    1
    31     4    42    1
    32    43    12    2
    33     2     1    2
    34     2     3    1
    35     1     8    2
    36    14     9    1
    37    14    13    2
    38     3    42    1
    39     3     6    2
    40    12    13    1
    41    12     7    2
    42    42     5    1
    43    42    10    1
    44     8     7    1
    45     8     6    1
    46    13    44    1
    47     6    17    1
    48    46    44    1
    49    44    45    1
    50    44    11    1
