@<TRIPOS>MOLECULE
2q2o_H01_A_1.pdb
 46 50 0 0 0
SMALL
GASTEIGER

@<TRIPOS>ATOM
      1  N1        -2.0790   -2.8660   -1.4980 N.2   9001  H019001    -0.3322
      2  C11       -2.8230   -1.7640   -1.2740 C.1   9001  H019001     0.0331
      3  C12       -2.5420   -0.8300   -2.2660 C.2   9001  H019001     0.1736
      4  O1        -2.8740    1.5750   -1.1770 O.3   9001  H019001    -0.0643
      5  O2        -4.7800    0.7240   -2.4750 O.3   9001  H019001    -0.0643
      6  C13       -1.6200   -1.4030   -3.1130 C.2   9001  H019001     0.0619
      7  C15       -0.4740   -3.6310   -3.1620 C.2   9001  H019001     0.0999
      8  C14       -1.3270   -2.6700   -2.6070 C.1   9001  H019001     0.0129
      9  C16        2.3970   -7.6670   -2.2750 C.3   9001  H019001     0.0429
     10  O3        -2.7290    1.4020   -3.6200 O.3   9001  H019001    -0.0643
     11  O4         1.2720   -4.4830   -5.5120 O.3   9001  H019001    -0.0649
     12  C21        0.0720   -4.7700   -2.5880 C.2   9001  H019001     0.1683
     13  C22        1.1120   -5.5500   -3.0750 C.2   9001  H019001     0.1480
     14  C23        1.3360   -6.5620   -2.1760 C.2   9001  H019001     0.0552
     15  C24        0.4240   -6.3890   -1.1530 C.1   9001  H019001     0.0101
     16  C25        0.3030   -7.1700   -0.0270 C.2   9001  H019001     0.1301
     17  C26       -0.9790   -0.7940   -4.3650 C.3   9001  H019001     0.0435
     18  O41       -4.1970  -10.6480    5.0830 O.co2 9001  H019001    -0.2456
     19  C49       -4.5560   -9.5580    4.5830 C.2   9001  H019001     0.3652
     20  O42       -5.4940   -8.7910    4.9430 O.co2 9001  H019001    -0.2456
     21  C48       -3.7510   -9.1310    3.4140 C.3   9001  H019001     0.1194
     22  C47       -2.5790   -8.2540    3.8880 C.3   9001  H019001     0.0482
     23  C33       -2.0130   -7.5790    2.6420 C.2   9001  H019001     0.0410
     24  C32       -0.8820   -7.9600    1.9600 C.2   9001  H019001     0.0408
     25  C46        0.0520   -9.1210    2.3110 C.3   9001  H019001     0.0418
     26  C31       -0.7110   -7.1170    0.8900 C.1   9001  H019001     0.0183
     27  N3        -1.7200   -6.2310    0.8840 N.2   9001  H019001    -0.3327
     28  C34       -2.5300   -6.4840    1.9460 C.1   9001  H019001     0.0183
     29  C35       -3.6750   -5.7510    2.2480 C.2   9001  H019001     0.1301
     30  C41       -4.0800   -4.4680    1.8540 C.1   9001  H019001     0.0085
     31  N4        -3.4780   -3.7770    0.8770 N.2   9001  H019001    -0.3673
     32  C42       -5.1380   -3.6810    2.3540 C.2   9001  H019001     0.0338
     33  C37       -6.1530   -4.0260    3.4680 C.3   9001  H019001     0.0476
     34  C38       -5.4880   -4.5670    4.7340 C.3   9001  H019001     0.1194
     35  C39       -5.1800   -3.4780    5.7840 C.2   9001  H019001     0.3652
     36  O32       -4.6320   -2.4310    5.3770 O.co2 9001  H019001    -0.2456
     37  O31       -5.4790   -3.7250    6.9770 O.co2 9001  H019001    -0.2456
     38  C43       -5.1120   -2.5110    1.6100 C.2   9001  H019001     0.0141
     39  C36       -6.0400   -1.2930    1.7320 C.3   9001  H019001     0.0341
     40  C44       -4.0780   -2.5850    0.7160 C.2   9001  H019001     0.1469
     41  C45       -3.6990   -1.6280   -0.2030 C.2   9001  H019001     0.0998
     42  S1        -3.2710    0.7650   -2.3860 S.3   9001  H019001     0.0509
     43  N2        -0.3230   -5.3000   -1.4130 N.2   9001  H019001    -0.3656
     44  S2         2.0370   -5.3220   -4.5370 S.3   9001  H019001     0.0449
     45  O5         2.3600   -6.6920   -5.0710 O.3   9001  H019001    -0.0649
     46  O6         3.3250   -4.6830   -4.1620 O.3   9001  H019001    -0.0649
@<TRIPOS>BOND
     1    11    44    1
     2    45    44    1
     3    44    46    1
     4    44    13    1
     5    17     6    1
     6    10    42    1
     7     7     8    2
     8     7    12    1
     9     6     8    1
    10     6     3    2
    11    13    12    1
    12    13    14    2
    13     8     1    2
    14    12    43    2
    15     5    42    1
    16    42     3    1
    17    42     4    1
    18     9    14    1
    19     3     2    1
    20    14    15    1
    21     1     2    2
    22    43    15    2
    23     2    41    2
    24    15    16    2
    25    41    40    1
    26    16    26    1
    27    40    31    2
    28    40    38    1
    29    31    30    2
    30    27    26    2
    31    27    28    2
    32    26    24    2
    33    38    39    1
    34    38    32    2
    35    30    29    2
    36    30    32    1
    37    28    29    1
    38    28    23    2
    39    24    25    1
    40    24    23    1
    41    32    33    1
    42    23    22    1
    43    21    22    1
    44    21    19    1
    45    33    34    1
    46    19    20   ar
    47    19    18   ar
    48    34    35    1
    49    36    35   ar
    50    35    37   ar
