@<TRIPOS>MOLECULE
2q2q_NAD_C_1.pdb
 44 48 0 0 0
SMALL
GASTEIGER

@<TRIPOS>ATOM
      1  PA        68.1910   42.3090   45.5090 P.3   300  NAD300      0.2189
      2  O1A       69.4160   42.7410   44.7660 O.2   300  NAD300     -0.5170
      3  O2A       67.3560   43.3120   46.2780 O.3   300  NAD300     -0.4371
      4  O5B       68.6110   41.0240   46.4520 O.3   300  NAD300     -0.3112
      5  C5B       69.5190   40.0330   45.9670 C.3   300  NAD300      0.1813
      6  C4B       70.1890   39.2450   47.0940 C.3   300  NAD300      0.1821
      7  O4B       71.0520   38.2400   46.5470 O.3   300  NAD300     -0.3135
      8  C3B       71.0510   40.1250   48.0320 C.3   300  NAD300      0.2184
      9  O3B       70.9170   39.7160   49.3790 O.3   300  NAD300     -0.2174
     10  C2B       72.4790   39.8140   47.5930 C.3   300  NAD300      0.2570
     11  O2B       73.4860   40.0490   48.5840 O.3   300  NAD300     -0.2130
     12  C1B       72.3450   38.3400   47.1750 C.3   300  NAD300      0.3186
     13  N9A       73.4080   38.0360   46.2380 N.pl3 300  NAD300     -0.1439
     14  C8A       73.7860   38.8380   45.1680 C.3   300  NAD300      0.3377
     15  N7A       74.8230   38.2410   44.5230 N.2   300  NAD300     -0.2095
     16  C5A       75.0900   37.0820   45.2020 C.2   300  NAD300      0.2526
     17  C6A       76.0330   36.1340   44.9560 C.2   300  NAD300      0.4393
     18  N6A       76.9890   36.4580   44.0960 N.pl3 300  NAD300      0.2180
     19  N1A       76.1030   35.0240   45.7630 N.2   300  NAD300      0.0021
     20  C2A       75.2510   34.8960   46.8530 C.3   300  NAD300      0.5254
     21  N3A       74.3150   35.8770   47.1210 N.2   300  NAD300     -0.0055
     22  C4A       74.2280   36.9420   46.2840 C.2   300  NAD300      0.3518
     23  O3        67.2280   41.7710   44.2920 O.3   300  NAD300     -0.2703
     24  PN        65.7870   41.0710   44.5220 P.3   300  NAD300      0.2189
     25  O1N       64.8280   41.9540   43.7830 O.2   300  NAD300     -0.5170
     26  O2N       65.5590   41.0160   45.9990 O.3   300  NAD300     -0.4371
     27  O5D       66.2270   39.6570   43.7990 O.3   300  NAD300     -0.3112
     28  C5D       65.9760   38.3660   44.3300 C.3   300  NAD300      0.1813
     29  C4D       65.5530   37.3400   43.2680 C.3   300  NAD300      0.1799
     30  O4D       64.2470   37.6650   42.8380 O.3   300  NAD300     -0.3327
     31  C3D       66.4370   37.3040   42.0120 C.3   300  NAD300      0.2158
     32  O3D       66.8260   36.0050   41.5720 O.3   300  NAD300     -0.2175
     33  C2D       65.6130   37.9860   40.9340 C.3   300  NAD300      0.2309
     34  O2D       65.9800   37.5320   39.6530 O.3   300  NAD300     -0.2158
     35  C1D       64.2150   37.6200   41.4060 C.3   300  NAD300      0.2263
     36  N1N       63.2310   38.4950   40.7470 N.pl3 300  NAD300     -0.2787
     37  C2N       63.1740   39.8230   41.1080 C.3   300  NAD300      0.1244
     38  C3N       62.2810   40.6900   40.4800 C.2   300  NAD300      0.0544
     39  C7N       62.4960   42.1510   40.7080 C.2   300  NAD300      0.2818
     40  O7N       61.7100   43.0820   39.9680 O.2   300  NAD300     -0.2670
     41  N7N       63.4420   42.4750   41.6280 N.am  300  NAD300     -0.0839
     42  C4N       61.4400   40.1990   39.4590 C.2   300  NAD300      0.0033
     43  C5N       61.4970   38.8410   39.0930 C.2   300  NAD300      0.0157
     44  C6N       62.3990   37.9950   39.7540 C.2   300  NAD300      0.0633
@<TRIPOS>BOND
     1    43    42    1
     2    43    44    2
     3    42    38    2
     4    34    33    1
     5    44    36    1
     6    40    39    2
     7    38    39    1
     8    38    37    1
     9    39    41   am
    10    36    37    1
    11    36    35    1
    12    33    35    1
    13    33    31    1
    14    35    30    1
    15    32    31    1
    16    31    29    1
    17    30    29    1
    18    29    28    1
    19    25    24    2
    20    27    28    1
    21    27    24    1
    22    18    17    1
    23    23    24    1
    24    23     1    1
    25    24    26    1
    26    15    14    1
    27    15    16    2
    28     2     1    2
    29    17    16    1
    30    17    19    2
    31    14    13    1
    32    16    22    1
    33     1     3    1
    34     1     4    1
    35    19    20    1
    36     5     4    1
    37     5     6    1
    38    13    22    1
    39    13    12    1
    40    22    21    2
    41     7     6    1
    42     7    12    1
    43    20    21    1
    44     6     8    1
    45    12    10    1
    46    10     8    1
    47    10    11    1
    48     8     9    1
