@<TRIPOS>MOLECULE
2q2r_ADP_A_1.pdb
 27 29 0 0 0
SMALL
GASTEIGER

@<TRIPOS>ATOM
      1  PB        93.9460   26.0830   33.2870 P.3   2001  ADP2001     0.5373
      2  O1B       92.6480   25.3080   33.2900 O.3   2001  ADP2001    -0.1143
      3  O2B       95.0960   25.3070   32.6460 O.2   2001  ADP2001    -0.2221
      4  O3B       93.7760   27.5080   32.8220 O.3   2001  ADP2001    -0.1143
      5  PA        95.6350   25.9020   35.6320 P.3   2001  ADP2001     0.2231
      6  O1A       95.4330   26.4100   37.0370 O.3   2001  ADP2001    -0.4370
      7  O2A       96.8040   26.3820   34.8060 O.2   2001  ADP2001    -0.5169
      8  O3A       94.2740   26.2990   34.8540 O.3   2001  ADP2001    -0.2261
      9  O5'       95.6310   24.2960   35.6920 O.3   2001  ADP2001    -0.3111
     10  C5'       94.5050   23.6300   36.2320 C.3   2001  ADP2001     0.1813
     11  C4'       94.4980   22.1970   35.7110 C.3   2001  ADP2001     0.1821
     12  O4'       95.7770   21.5870   35.8950 O.3   2001  ADP2001    -0.3135
     13  C3'       93.5140   21.3380   36.4860 C.3   2001  ADP2001     0.2184
     14  O3'       92.2100   21.3380   35.8810 O.3   2001  ADP2001    -0.2174
     15  C2'       94.1560   19.9600   36.5100 C.3   2001  ADP2001     0.2570
     16  O2'       93.7660   19.2540   35.3290 O.3   2001  ADP2001    -0.2130
     17  C1'       95.6480   20.2670   36.4440 C.3   2001  ADP2001     0.3186
     18  N9        96.2700   20.3260   37.8030 N.pl3 2001  ADP2001    -0.1439
     19  C8        95.6720   20.6820   38.9630 C.3   2001  ADP2001     0.3377
     20  N7        96.5460   20.6500   40.0000 N.2   2001  ADP2001    -0.2095
     21  C5        97.7410   20.2690   39.5050 C.2   2001  ADP2001     0.2526
     22  C6        99.1030   20.0330   40.0440 C.2   2001  ADP2001     0.4393
     23  N6        99.3700   20.2000   41.3680 N.pl3 2001  ADP2001     0.2180
     24  N1       100.0690   19.6500   39.1710 N.2   2001  ADP2001     0.0021
     25  C2        99.8290   19.4850   37.8610 C.3   2001  ADP2001     0.5254
     26  N3        98.6200   19.6780   37.3050 N.2   2001  ADP2001    -0.0055
     27  C4        97.5580   20.0640   38.0590 C.2   2001  ADP2001     0.3518
@<TRIPOS>BOND
     1     3     1    2
     2     4     1    1
     3     1     2    1
     4     1     8    1
     5     7     5    2
     6     8     5    1
     7    16    15    1
     8     5     9    1
     9     5     6    1
    10     9    10    1
    11    11    12    1
    12    11    10    1
    13    11    13    1
    14    14    13    1
    15    12    17    1
    16    17    15    1
    17    17    18    1
    18    13    15    1
    19    26    25    1
    20    26    27    2
    21    18    27    1
    22    18    19    1
    23    25    24    1
    24    27    21    1
    25    19    20    1
    26    24    22    2
    27    21    20    2
    28    21    22    1
    29    22    23    1
