@<TRIPOS>MOLECULE
2q2r_BGC_A_1.pdb
 12 12 0 0 0
SMALL
GASTEIGER

@<TRIPOS>ATOM
      1  C2        96.3810   25.8190   23.6310 C.3   1001  BGC1001     0.2434
      2  C3        97.3680   26.9520   23.8210 C.3   1001  BGC1001     0.2199
      3  C4        97.4060   27.3930   25.2600 C.3   1001  BGC1001     0.2144
      4  C5        97.6820   26.1810   26.1540 C.3   1001  BGC1001     0.1836
      5  C6        97.6920   26.6930   27.6110 C.3   1001  BGC1001     0.2142
      6  C1        96.8320   24.6660   24.5340 C.3   1001  BGC1001     0.3024
      7  O1        96.1570   23.4220   24.2740 O.3   1001  BGC1001    -0.1869
      8  O2        96.4480   25.4030   22.2570 O.3   1001  BGC1001    -0.2148
      9  O3        97.0850   28.0570   22.9620 O.3   1001  BGC1001    -0.2174
     10  O4        98.5060   28.3010   25.3770 O.3   1001  BGC1001    -0.2176
     11  O5        96.7840   25.0320   25.9220 O.3   1001  BGC1001    -0.3236
     12  O6        96.3760   27.0330   28.0050 O.3   1001  BGC1001    -0.2176
@<TRIPOS>BOND
     1     8     1    1
     2     9     2    1
     3     1     2    1
     4     1     6    1
     5     2     3    1
     6     7     6    1
     7     6    11    1
     8     3    10    1
     9     3     4    1
    10    11     4    1
    11     4     5    1
    12     5    12    1
