@<TRIPOS>MOLECULE
2q2t_AMP_A_1.pdb
 22 24 0 0 0
SMALL
GASTEIGER

@<TRIPOS>ATOM
      1  P        -65.5090   -7.8410   58.0030 P.3   300  AMP300      0.3942
      2  O1P      -64.7400   -7.4100   56.8420 O.3   300  AMP300     -0.1425
      3  O3P      -66.9340   -7.2990   57.5750 O.3   300  AMP300     -0.1425
      4  O5'      -65.1770   -7.0350   59.1880 O.3   300  AMP300     -0.2926
      5  C5'      -66.0040   -7.1850   60.4310 C.3   300  AMP300      0.1831
      6  C4'      -65.7720   -6.0620   61.3950 C.3   300  AMP300      0.1822
      7  O4'      -66.2640   -6.5100   62.6370 O.3   300  AMP300     -0.3135
      8  C3'      -64.2920   -5.6770   61.6050 C.3   300  AMP300      0.2184
      9  O3'      -63.9870   -4.3720   61.1270 O.3   300  AMP300     -0.2174
     10  C2'      -64.0340   -5.7610   63.0740 C.3   300  AMP300      0.2570
     11  O2'      -63.7210   -4.4880   63.6250 O.3   300  AMP300     -0.2130
     12  C1'      -65.2980   -6.4510   63.6170 C.3   300  AMP300      0.3186
     13  N9       -65.0330   -7.7870   64.1950 N.pl3 300  AMP300     -0.1439
     14  C8       -65.8510   -8.8900   64.0010 C.3   300  AMP300      0.3377
     15  N7       -65.3800   -9.9360   64.6120 N.2   300  AMP300     -0.2095
     16  C5       -64.2110   -9.5660   65.2470 C.2   300  AMP300      0.2526
     17  C6       -63.2700  -10.2520   66.0620 C.2   300  AMP300      0.4393
     18  N6       -63.4150  -11.5870   66.3830 N.pl3 300  AMP300      0.2180
     19  N1       -62.2060   -9.5330   66.5230 N.2   300  AMP300      0.0021
     20  C2       -62.0620   -8.2400   66.2180 C.3   300  AMP300      0.5254
     21  N3       -62.8810   -7.4650   65.4570 N.2   300  AMP300     -0.0055
     22  C4       -63.9780   -8.1730   64.9710 C.2   300  AMP300      0.3518
@<TRIPOS>BOND
     1     2     1    1
     2     3     1    1
     3     1     4    1
     4     4     5    1
     5     5     6    1
     6     9     8    1
     7     6     8    1
     8     6     7    1
     9     8    10    1
    10     7    12    1
    11    10    12    1
    12    10    11    1
    13    12    13    1
    14    14    13    1
    15    14    15    1
    16    13    22    1
    17    15    16    2
    18    22    16    1
    19    22    21    2
    20    16    17    1
    21    21    20    1
    22    17    18    1
    23    17    19    2
    24    20    19    1
