@<TRIPOS>MOLECULE
2q2v_NAD_B_1.pdb
 44 48 0 0 0
SMALL
GASTEIGER

@<TRIPOS>ATOM
      1  PA        46.0660   12.9320   21.3950 P.3   300  NAD300      0.2189
      2  O1A       47.1520   13.5300   22.2100 O.3   300  NAD300     -0.4371
      3  O2A       44.9360   13.8580   21.1070 O.2   300  NAD300     -0.5170
      4  O5B       45.5120   11.6140   22.1370 O.3   300  NAD300     -0.3112
      5  C5B       46.3870   10.6950   22.7570 C.3   300  NAD300      0.1813
      6  C4B       45.5900    9.7830   23.6740 C.3   300  NAD300      0.1821
      7  O4B       46.5080    8.8740   24.2480 O.3   300  NAD300     -0.3135
      8  C3B       44.9440   10.5450   24.8240 C.3   300  NAD300      0.2184
      9  O3B       43.7780    9.8520   25.1880 O.3   300  NAD300     -0.2174
     10  C2B       45.9620   10.4400   25.9420 C.3   300  NAD300      0.2570
     11  O2B       45.3850   10.5230   27.2140 O.3   300  NAD300     -0.2130
     12  C1B       46.4400    9.0220   25.6650 C.3   300  NAD300      0.3186
     13  N9A       47.7070    8.6490   26.3060 N.pl3 300  NAD300     -0.1439
     14  C8A       48.8790    9.3490   26.2340 C.3   300  NAD300      0.3377
     15  N7A       49.7960    8.6890   26.9520 N.2   300  NAD300     -0.2095
     16  C5A       49.2420    7.5640   27.4590 C.2   300  NAD300      0.2526
     17  C6A       49.7090    6.5280   28.2760 C.2   300  NAD300      0.4393
     18  N6A       50.9580    6.4740   28.7510 N.pl3 300  NAD300      0.2180
     19  N1A       48.8340    5.5260   28.6360 N.2   300  NAD300      0.0021
     20  C2A       47.5010    5.5440   28.2090 C.3   300  NAD300      0.5254
     21  N3A       47.0390    6.5570   27.4150 N.2   300  NAD300     -0.0055
     22  C4A       47.8970    7.5460   27.0390 C.2   300  NAD300      0.3518
     23  O3        46.8170   12.4270   20.0630 O.3   300  NAD300     -0.2703
     24  PN        46.2450   11.8080   18.6970 P.3   300  NAD300      0.2189
     25  O1N       46.6540   12.7370   17.6270 O.2   300  NAD300     -0.5170
     26  O2N       44.8030   11.4910   18.8540 O.3   300  NAD300     -0.4371
     27  O5D       47.0890   10.4370   18.6520 O.3   300  NAD300     -0.3112
     28  C5D       46.5200    9.1390   18.7160 C.3   300  NAD300      0.1813
     29  C4D       47.3970    8.2000   17.8640 C.3   300  NAD300      0.1799
     30  O4D       47.3620    8.6470   16.5230 O.3   300  NAD300     -0.3327
     31  C3D       48.8770    8.2180   18.2730 C.3   300  NAD300      0.2158
     32  O3D       49.3850    6.8870   18.2770 O.3   300  NAD300     -0.2175
     33  C2D       49.5320    9.0990   17.2230 C.3   300  NAD300      0.2309
     34  O2D       50.8900    8.7620   17.0420 O.3   300  NAD300     -0.2158
     35  C1D       48.6950    8.6890   16.0210 C.3   300  NAD300      0.2263
     36  N1N       48.7380    9.5870   14.8540 N.pl3 300  NAD300     -0.2787
     37  C2N       48.3580   10.9180   14.9820 C.3   300  NAD300      0.1244
     38  C3N       48.3720   11.7390   13.8740 C.2   300  NAD300      0.0544
     39  C7N       47.8000   13.1080   13.9910 C.2   300  NAD300      0.2818
     40  O7N       48.0590   13.9270   12.9340 O.2   300  NAD300     -0.2670
     41  N7N       47.0930   13.5060   15.0630 N.am  300  NAD300     -0.0839
     42  C4N       48.7920   11.2400   12.6120 C.2   300  NAD300      0.0033
     43  C5N       49.1540    9.8860   12.4800 C.2   300  NAD300      0.0157
     44  C6N       49.1200    9.0780   13.6220 C.2   300  NAD300      0.0633
@<TRIPOS>BOND
     1    43    42    1
     2    43    44    2
     3    42    38    2
     4    40    39    2
     5    44    36    1
     6    38    39    1
     7    38    37    1
     8    39    41   am
     9    36    37    1
    10    36    35    1
    11    35    30    1
    12    35    33    1
    13    30    29    1
    14    34    33    1
    15    33    31    1
    16    25    24    2
    17    29    31    1
    18    29    28    1
    19    31    32    1
    20    27    24    1
    21    27    28    1
    22    24    26    1
    23    24    23    1
    24    23     1    1
    25     3     1    2
    26     1     4    1
    27     1     2    1
    28     4     5    1
    29     5     6    1
    30     6     7    1
    31     6     8    1
    32     7    12    1
    33     8     9    1
    34     8    10    1
    35    12    10    1
    36    12    13    1
    37    10    11    1
    38    14    13    1
    39    14    15    1
    40    13    22    1
    41    15    16    2
    42    22    21    2
    43    22    16    1
    44    21    20    1
    45    16    17    1
    46    20    19    1
    47    17    19    2
    48    17    18    1
