@<TRIPOS>MOLECULE
2q2y_MKR_A_1.pdb
 35 39 0 0 0
SMALL
GASTEIGER

@<TRIPOS>ATOM
      1  C1        21.9000   16.5170  106.1240 C.ar  604  MKR604      0.1416
      2  C2        20.6630   16.6840  106.8450 C.ar  604  MKR604      0.0490
      3  C3        20.3150   15.5360  107.6560 C.ar  604  MKR604      0.1052
      4  C4        21.1400   14.3930  107.6850 C.ar  604  MKR604      0.1537
      5  C5        22.3140   14.2460  106.9980 C.ar  604  MKR604      0.0405
      6  C6        22.6750   15.3540  106.1700 C.ar  604  MKR604      0.0328
      7  N2        19.1170   15.4520  108.4270 N.pl3 604  MKR604     -0.2060
      8  N12       18.5790   16.4330  109.0100 N.2   604  MKR604     -0.1790
      9  C8        17.6140   16.1840  109.8890 C.2   604  MKR604      0.1157
     10  C14       17.4540   14.5950  109.9210 C.3   604  MKR604      0.0806
     11  C15       18.4700   14.1970  108.8090 C.3   604  MKR604      0.1488
     12  C18       17.6410   14.0660  111.3530 C.ar  604  MKR604     -0.0157
     13  C20       16.8730   17.2660  110.6740 C.2   604  MKR604      0.1887
     14  C9        17.4730   18.6260  110.6720 C.3   604  MKR604      0.0786
     15  O25       15.7920   17.0400  111.2440 O.2   604  MKR604     -0.2900
     16  C26       18.6610   14.6870  112.1340 C.ar  604  MKR604     -0.0039
     17  C27       18.9970   14.3450  113.4740 C.ar  604  MKR604     -0.0003
     18  C28       18.2150   13.3290  114.0090 C.ar  604  MKR604     -0.0000
     19  C29       17.1740   12.6650  113.2940 C.ar  604  MKR604     -0.0003
     20  C30       16.8900   13.0590  111.9240 C.ar  604  MKR604     -0.0039
     21  O1        20.7560   13.2880  108.4210 O.3   604  MKR604     -0.4723
     22  F1        22.3890   17.5020  105.3880 F     604  MKR604     -0.2041
     23  C7        19.6320   13.3380  109.2680 C.3   604  MKR604      0.2277
     24  C10       16.0120   14.3640  109.4640 C.3   604  MKR604      0.0130
     25  C11       15.6410   14.2560  107.9870 C.3   604  MKR604      0.0181
     26  C12       14.3280   15.0800  107.6970 C.3   604  MKR604      0.0722
     27  N3        13.9080   15.0860  106.2690 N.3   604  MKR604     -0.2698
     28  C16       13.9750   16.3670  105.5640 C.3   604  MKR604      0.0939
     29  C17       13.1720   14.0160  105.6240 C.3   604  MKR604      0.0939
     30  C19       12.5210   16.8970  105.7600 C.3   604  MKR604      0.1107
     31  C21       11.6500   14.3800  105.6820 C.3   604  MKR604      0.1107
     32  N1        11.4400   15.8630  105.3840 N.am  604  MKR604     -0.2767
     33  C22       10.3150   16.3480  104.8040 C.2   604  MKR604      0.2262
     34  C24        9.6020   15.2390  103.9500 C.3   604  MKR604      0.0948
     35  O2         9.9870   17.5290  104.9460 O.2   604  MKR604     -0.2749
@<TRIPOS>BOND
     1    34    33    1
     2    33    35    2
     3    33    32   am
     4    32    31    1
     5    32    30    1
     6    22     1    1
     7    28    30    1
     8    28    27    1
     9    29    31    1
    10    29    27    1
    11     1     6   ar
    12     1     2   ar
    13     6     5   ar
    14    27    26    1
    15     2     3   ar
    16     5     4   ar
    17     3     4   ar
    18     3     7    1
    19     4    21    1
    20    26    25    1
    21    25    24    1
    22    21    23    1
    23     7    11    1
    24     7     8    1
    25    11    23    1
    26    11    10    1
    27     8     9    2
    28    24    10    1
    29     9    10    1
    30     9    13    1
    31    10    12    1
    32    14    13    1
    33    13    15    2
    34    12    20   ar
    35    12    16   ar
    36    20    19   ar
    37    16    17   ar
    38    19    18   ar
    39    17    18   ar
