@<TRIPOS>MOLECULE
2q2y_ADP_A_1.pdb
 27 29 0 0 0
SMALL
GASTEIGER

@<TRIPOS>ATOM
      1  PB        14.7690    6.3290   99.2130 P.3   601  ADP601      0.5373
      2  O1B       13.8380    6.9690   98.2470 O.2   601  ADP601     -0.2221
      3  O2B       15.4150    5.0440   98.7270 O.3   601  ADP601     -0.1143
      4  O3B       15.7480    7.3620   99.7230 O.3   601  ADP601     -0.1143
      5  PA        13.3120    6.8800  101.5590 P.3   601  ADP601      0.2231
      6  O1A       14.3310    6.9450  102.6530 O.3   601  ADP601     -0.4370
      7  O2A       12.9990    8.2590  101.0050 O.2   601  ADP601     -0.5169
      8  O3A       13.9220    5.9630  100.4540 O.3   601  ADP601     -0.2261
      9  O5'       12.0000    6.2000  102.1800 O.3   601  ADP601     -0.3111
     10  C5'       10.8410    6.1140  101.4050 C.3   601  ADP601      0.1813
     11  C4'        9.7190    6.1360  102.3630 C.3   601  ADP601      0.1821
     12  O4'        9.5410    4.8360  102.9940 O.3   601  ADP601     -0.3135
     13  C3'        9.7270    7.1750  103.4990 C.3   601  ADP601      0.2184
     14  O3'        8.2630    7.3600  103.7500 O.3   601  ADP601     -0.2174
     15  C2'       10.3760    6.4670  104.7180 C.3   601  ADP601      0.2570
     16  O2'        9.5450    6.7800  105.8210 O.3   601  ADP601     -0.2130
     17  C1'        9.9780    5.0060  104.4470 C.3   601  ADP601      0.3186
     18  N9        10.7720    3.9070  104.9490 N.pl3 601  ADP601     -0.1439
     19  C8        11.8410    3.4370  104.2920 C.3   601  ADP601      0.3377
     20  N7        12.3940    2.3940  104.9300 N.2   601  ADP601     -0.2095
     21  C5        11.5670    2.1850  106.0800 C.2   601  ADP601      0.2526
     22  C6        11.6600    1.2170  107.1500 C.2   601  ADP601      0.4393
     23  N6        12.6820    0.3130  107.2050 N.pl3 601  ADP601      0.2180
     24  N1        10.6800    1.2370  108.1450 N.2   601  ADP601      0.0021
     25  C2         9.7150    2.2340  108.0320 C.3   601  ADP601      0.5254
     26  N3         9.5830    3.1810  107.0500 N.2   601  ADP601     -0.0055
     27  C4        10.5490    3.1140  106.0970 C.2   601  ADP601      0.3518
@<TRIPOS>BOND
     1     2     1    2
     2     3     1    1
     3     1     4    1
     4     1     8    1
     5     8     5    1
     6     7     5    2
     7    10     9    1
     8    10    11    1
     9     5     9    1
    10     5     6    1
    11    11    12    1
    12    11    13    1
    13    12    17    1
    14    13    14    1
    15    13    15    1
    16    19    20    1
    17    19    18    1
    18    17    15    1
    19    17    18    1
    20    15    16    1
    21    20    21    2
    22    18    27    1
    23    21    27    1
    24    21    22    1
    25    27    26    2
    26    26    25    1
    27    22    23    1
    28    22    24    2
    29    25    24    1
