@<TRIPOS>MOLECULE
2q2z_MKK_A_1.pdb
 34 37 0 0 0
SMALL
GASTEIGER

@<TRIPOS>ATOM
      1  C1        21.9390   16.3780  106.8010 C.ar  604  MKK604     -0.0204
      2  C2        20.8940   16.2580  107.7810 C.ar  604  MKK604      0.0143
      3  C3        20.8550   15.0040  108.6450 C.ar  604  MKK604      0.0961
      4  C4        21.7960   14.0510  108.4120 C.ar  604  MKK604      0.1550
      5  C5        22.8530   14.0980  107.5250 C.ar  604  MKK604      0.0307
      6  C6        22.8710   15.2870  106.7010 C.ar  604  MKK604     -0.0019
      7  N4        19.8030   14.9600  109.5910 N.pl3 604  MKK604     -0.2088
      8  N1        19.2370   15.9940  110.1130 N.2   604  MKK604     -0.1791
      9  C24       18.1900   15.9200  110.9110 C.2   604  MKK604      0.1156
     10  C13       17.9360   14.4530  110.9630 C.3   604  MKK604      0.0787
     11  C14       19.2200   13.8630  110.3100 C.3   604  MKK604      0.1260
     12  C17       18.0440   13.9180  112.3780 C.ar  604  MKK604     -0.0157
     13  C19       17.0780   12.9400  112.8250 C.ar  604  MKK604     -0.0039
     14  C20       17.2430   12.4510  114.1900 C.ar  604  MKK604     -0.0003
     15  C21       18.3700   13.0050  115.0340 C.ar  604  MKK604     -0.0000
     16  C22       19.3710   13.9870  114.6170 C.ar  604  MKK604     -0.0003
     17  C23       19.1400   14.4120  113.2510 C.ar  604  MKK604     -0.0039
     18  C29       17.5020   17.1510  111.5140 C.2   604  MKK604      0.1887
     19  C9        18.2350   18.4940  111.1570 C.3   604  MKK604      0.0786
     20  O39       16.4600   17.1550  112.2320 O.2   604  MKK604     -0.2900
     21  F40       21.7890   12.9590  109.0780 F     604  MKK604     -0.2028
     22  C10       22.1930   17.4780  105.9020 C.3   604  MKK604      0.0311
     23  C7        16.6190   14.2230  110.1310 C.3   604  MKK604      0.0130
     24  C8        16.5880   15.0110  108.8600 C.3   604  MKK604      0.0181
     25  C11       15.2640   14.9690  108.0520 C.3   604  MKK604      0.0722
     26  N2        15.6040   14.5620  106.6140 N.3   604  MKK604     -0.2698
     27  C12       14.6410   13.4540  106.1960 C.3   604  MKK604      0.0939
     28  C15       15.7160   15.7320  105.6520 C.3   604  MKK604      0.0939
     29  C16       14.2990   16.3190  105.3890 C.3   604  MKK604      0.1107
     30  C18       13.2460   14.2040  106.3050 C.3   604  MKK604      0.1107
     31  N3        13.2750   15.1750  105.1600 N.am  604  MKK604     -0.2767
     32  C25       12.3950   14.8750  104.0090 C.2   604  MKK604      0.2262
     33  C26       11.4650   13.6430  104.1160 C.3   604  MKK604      0.0948
     34  O1        12.2950   15.5300  102.9640 O.2   604  MKK604     -0.2749
@<TRIPOS>BOND
     1    34    32    2
     2    32    33    1
     3    32    31   am
     4    31    29    1
     5    31    30    1
     6    29    28    1
     7    28    26    1
     8    22     1    1
     9    27    30    1
    10    27    26    1
    11    26    25    1
    12     6     1   ar
    13     6     5   ar
    14     1     2   ar
    15     5     4   ar
    16     2     3   ar
    17    25    24    1
    18     4     3   ar
    19     4    21    1
    20     3     7    1
    21    24    23    1
    22     7     8    1
    23     7    11    1
    24     8     9    2
    25    23    10    1
    26    11    10    1
    27     9    10    1
    28     9    18    1
    29    10    12    1
    30    19    18    1
    31    18    20    2
    32    12    13   ar
    33    12    17   ar
    34    13    14   ar
    35    17    16   ar
    36    14    15   ar
    37    16    15   ar
