@<TRIPOS>MOLECULE
2q2z_ADP_A_1.pdb
 27 29 0 0 0
SMALL
GASTEIGER

@<TRIPOS>ATOM
      1  PB        15.0580    6.5350   99.7810 P.3   601  ADP601      0.5373
      2  O1B       14.4360    7.0390   98.5450 O.2   601  ADP601     -0.2221
      3  O2B       15.7460    5.3130   99.3930 O.3   601  ADP601     -0.1143
      4  O3B       15.9450    7.6770  100.2410 O.3   601  ADP601     -0.1143
      5  PA        13.5700    6.8950  102.2000 P.3   601  ADP601      0.2231
      6  O1A       14.4930    6.6800  103.4390 O.3   601  ADP601     -0.4370
      7  O2A       13.4550    8.4610  101.8690 O.2   601  ADP601     -0.5169
      8  O3A       14.0450    6.0470  100.8800 O.3   601  ADP601     -0.2261
      9  O5'       12.2170    6.2260  102.8230 O.3   601  ADP601     -0.3111
     10  C5'       11.0340    5.8010  102.0830 C.3   601  ADP601      0.1813
     11  C4'        9.8010    6.0910  103.0240 C.3   601  ADP601      0.1821
     12  O4'        9.3930    4.8630  103.6570 O.3   601  ADP601     -0.3135
     13  C3'        9.9810    7.1130  104.2210 C.3   601  ADP601      0.2184
     14  O3'        8.7240    7.4500  104.7480 O.3   601  ADP601     -0.2174
     15  C2'       10.6020    6.3770  105.4160 C.3   601  ADP601      0.2570
     16  O2'        9.6970    6.5370  106.5740 O.3   601  ADP601     -0.2130
     17  C1'       10.3870    4.9840  104.8130 C.3   601  ADP601      0.3186
     18  N9        11.1490    3.8610  105.3210 N.pl3 601  ADP601     -0.1439
     19  C8        12.1500    3.2280  104.6980 C.3   601  ADP601      0.3377
     20  N7        12.5970    2.2780  105.4410 N.2   601  ADP601     -0.2095
     21  C5        11.8310    2.2890  106.5830 C.2   601  ADP601      0.2526
     22  C6        11.8410    1.5000  107.7240 C.2   601  ADP601      0.4393
     23  N6        12.7260    0.4370  107.9640 N.pl3 601  ADP601      0.2180
     24  N1        10.9000    1.8220  108.6380 N.2   601  ADP601      0.0021
     25  C2        10.0500    2.8400  108.4320 C.3   601  ADP601      0.5254
     26  N3         9.9890    3.6320  107.3870 N.2   601  ADP601     -0.0055
     27  C4        10.9170    3.2810  106.5150 C.2   601  ADP601      0.3518
@<TRIPOS>BOND
     1     2     1    2
     2     3     1    1
     3     1     4    1
     4     1     8    1
     5     8     5    1
     6     7     5    2
     7    10     9    1
     8    10    11    1
     9     5     9    1
    10     5     6    1
    11    11    12    1
    12    11    13    1
    13    12    17    1
    14    13    14    1
    15    13    15    1
    16    19    18    1
    17    19    20    1
    18    17    18    1
    19    17    15    1
    20    18    27    1
    21    15    16    1
    22    20    21    2
    23    27    21    1
    24    27    26    2
    25    21    22    1
    26    26    25    1
    27    22    23    1
    28    22    24    2
    29    25    24    1
