@<TRIPOS>MOLECULE
2q31_ATP_A_1.pdb
 31 33 0 0 0
SMALL
GASTEIGER

@<TRIPOS>ATOM
      1  PG        32.3420   30.6520   18.7470 P.3   400  ATP400      0.5373
      2  O1G       31.3600   29.5050   18.6860 O.3   400  ATP400     -0.1143
      3  O2G       32.2420   31.6580   17.6180 O.2   400  ATP400     -0.2221
      4  O3G       33.7640   30.2300   19.0600 O.3   400  ATP400     -0.1143
      5  PB        31.1090   32.8590   19.9570 P.3   400  ATP400      0.2277
      6  O1B       30.3650   32.9470   18.6500 O.2   400  ATP400     -0.5168
      7  O2B       30.3700   33.0300   21.2610 O.3   400  ATP400     -0.4368
      8  O3B       31.8930   31.4640   20.0580 O.3   400  ATP400     -0.2258
      9  PA        32.0370   35.4780   19.4780 P.3   400  ATP400      0.2189
     10  O1A       32.3640   35.5980   18.0000 O.2   400  ATP400     -0.5170
     11  O2A       30.7090   35.9650   20.0030 O.3   400  ATP400     -0.4371
     12  O3A       32.2940   33.9430   19.9180 O.3   400  ATP400     -0.2700
     13  O5'       33.1760   36.2250   20.3370 O.3   400  ATP400     -0.3112
     14  C5'       33.1270   36.2140   21.7660 C.3   400  ATP400      0.1813
     15  C4'       34.5260   36.0250   22.3470 C.3   400  ATP400      0.1821
     16  O4'       35.3090   37.1800   22.0480 O.3   400  ATP400     -0.3135
     17  C3'       34.5430   35.8900   23.8630 C.3   400  ATP400      0.2184
     18  O3'       35.5180   34.9130   24.2350 O.3   400  ATP400     -0.2174
     19  C2'       34.9490   37.2610   24.3690 C.3   400  ATP400      0.2570
     20  O2'       35.6320   37.2310   25.6320 O.3   400  ATP400     -0.2130
     21  C1'       35.8590   37.7120   23.2450 C.3   400  ATP400      0.3186
     22  N9        35.9840   39.1770   23.1620 N.pl3 400  ATP400     -0.1439
     23  C8        35.0050   40.0970   23.1090 C.3   400  ATP400      0.3377
     24  N7        35.5340   41.3500   23.0500 N.2   400  ATP400     -0.2095
     25  C5        36.8730   41.2250   23.0600 C.2   400  ATP400      0.2526
     26  C6        38.0460   42.1270   23.0230 C.2   400  ATP400      0.4393
     27  N6        37.9050   43.4700   22.9550 N.pl3 400  ATP400      0.2180
     28  N1        39.2710   41.5650   23.0560 N.2   400  ATP400      0.0021
     29  C2        39.4510   40.2320   23.1210 C.3   400  ATP400      0.5254
     30  N3        38.4380   39.3560   23.1580 N.2   400  ATP400     -0.0055
     31  C4        37.1570   39.7870   23.1320 C.2   400  ATP400      0.3518
@<TRIPOS>BOND
     1     3     1    2
     2    10     9    2
     3     6     5    2
     4     2     1    1
     5     1     4    1
     6     1     8    1
     7     9    12    1
     8     9    11    1
     9     9    13    1
    10    12     5    1
    11     5     8    1
    12     5     7    1
    13    13    14    1
    14    14    15    1
    15    16    15    1
    16    16    21    1
    17    15    17    1
    18    27    26    1
    19    26    28    2
    20    26    25    1
    21    24    25    2
    22    24    23    1
    23    28    29    1
    24    25    31    1
    25    23    22    1
    26    29    30    1
    27    31    30    2
    28    31    22    1
    29    22    21    1
    30    21    19    1
    31    17    18    1
    32    17    19    1
    33    19    20    1
