@<TRIPOS>MOLECULE
2q31_LAR_A_1.pdb
 29 31 0 0 0
SMALL
GASTEIGER

@<TRIPOS>ATOM
      1  S1        34.9230   33.3930   30.2830 S.3   402  LAR402     -0.0192
      2  N1        33.8120   33.0140   28.0320 N.2   402  LAR402     -0.1932
      3  O1        31.3180   36.8440   25.9440 O.2   402  LAR402     -0.2449
      4  O2        30.1700   36.2140   27.8810 O.3   402  LAR402     -0.4490
      5  O3        30.4720   33.1190   29.5730 O.3   402  LAR402     -0.3329
      6  O4        32.0920   34.8550   29.6100 O.3   402  LAR402     -0.1930
      7  O5        35.7600   34.1150   28.0140 O.2   402  LAR402     -0.2155
      8  C1        30.6790   37.2050   26.9290 C.2   402  LAR402      0.3407
      9  C2        30.4840   38.6630   27.1110 C.2   402  LAR402      0.0734
     10  C3        29.8470   39.2490   28.1410 C.2   402  LAR402     -0.0375
     11  C4        29.2180   38.4940   29.2970 C.3   402  LAR402      0.0233
     12  C5        27.8210   37.9910   28.9510 C.3   402  LAR402      0.0183
     13  C6        26.9690   37.9570   30.2030 C.3   402  LAR402      0.0764
     14  C7        26.9820   36.9570   30.9660 C.1   402  LAR402     -0.0910
     15  C8        26.9880   36.0160   31.6780 C.1   402  LAR402     -0.0911
     16  C9        27.0220   35.0040   32.4180 C.3   402  LAR402      0.0760
     17  C10       28.3360   34.2720   32.5780 C.3   402  LAR402      0.0131
     18  C11       28.3650   32.9760   31.7590 C.3   402  LAR402      0.0035
     19  C12       28.1480   33.1800   30.2550 C.3   402  LAR402      0.0298
     20  C13       29.2860   33.9180   29.5510 C.3   402  LAR402      0.1214
     21  C14       28.8710   34.1870   28.1120 C.3   402  LAR402      0.0734
     22  C15       29.9780   34.8970   27.3540 C.3   402  LAR402      0.1766
     23  C16       31.2500   34.0640   27.4700 C.3   402  LAR402      0.1048
     24  C17       31.6180   33.6880   28.9110 C.3   402  LAR402      0.2448
     25  C18       32.7230   32.6250   28.9070 C.3   402  LAR402      0.1810
     26  C19       33.4190   32.4600   30.2600 C.3   402  LAR402      0.1042
     27  C20       34.8720   33.5420   28.6240 C.1   402  LAR402      0.1790
     28  C21       29.7810   40.7520   28.1400 C.3   402  LAR402      0.0266
     29  C22       28.5820   33.9890   34.0580 C.3   402  LAR402      0.0010
@<TRIPOS>BOND
     1     3     8    2
     2     8     9    1
     3     8     4    1
     4     9    10    2
     5    22    23    1
     6    22     4    1
     7    22    21    1
     8    23    24    1
     9     7    27    2
    10     2    27    2
    11     2    25    1
    12    21    20    1
    13    28    10    1
    14    10    11    1
    15    27     1    1
    16    25    24    1
    17    25    26    1
    18    24     5    1
    19    24     6    1
    20    12    11    1
    21    12    13    1
    22    20     5    1
    23    20    19    1
    24    13    14    1
    25    19    18    1
    26    26     1    1
    27    14    15    3
    28    15    16    1
    29    18    17    1
    30    16    17    1
    31    17    29    1
