@<TRIPOS>MOLECULE
2q32_OXN_A_1.pdb
 32 32 0 0 0
SMALL
GASTEIGER

@<TRIPOS>ATOM
      1  C5        32.0350   28.7050    8.5290 C.3   301  OXN301      0.0040
      2  C1        31.0940   29.3180    9.5930 C.3   301  OXN301      0.0003
      3  C3        29.6830   28.7190    9.6420 C.3   301  OXN301      0.0000
      4  C4        31.0540   30.8230    9.3890 C.3   301  OXN301      0.0000
      5  C2        31.7300   29.0550   10.9370 C.3   301  OXN301      0.0000
      6  C6        31.4500   28.2730    7.1710 C.3   301  OXN301      0.0189
      7  C9        30.6830   26.9080    7.3060 C.ar  301  OXN301     -0.0226
      8  C8        30.5950   29.3610    6.4940 C.3   301  OXN301      0.0044
      9  C7        32.6410   28.0190    6.2530 C.3   301  OXN301      0.0044
     10  C10       29.3680   26.7170    6.8360 C.ar  301  OXN301     -0.0012
     11  C11       28.7300   25.4710    6.9680 C.ar  301  OXN301      0.0366
     12  C12       29.3940   24.3890    7.5650 C.ar  301  OXN301      0.1387
     13  C13       30.6980   24.5780    8.0370 C.ar  301  OXN301      0.0366
     14  C14       31.3280   25.8150    7.9020 C.ar  301  OXN301     -0.0012
     15  O15       28.7720   23.1660    7.6930 O.3   301  OXN301     -0.4727
     16  C16       29.5800   22.0040    7.2770 C.3   301  OXN301      0.2373
     17  C17       28.7570   20.7270    6.9790 C.3   301  OXN301      0.1894
     18  O18       28.8940   19.7080    8.0060 O.3   301  OXN301     -0.3471
     19  C19       27.6170   19.1200    8.3660 C.3   301  OXN301      0.1743
     20  C20       27.7260   18.6090    9.8080 C.3   301  OXN301      0.1742
     21  O21       26.5420   18.7150   10.6420 O.3   301  OXN301     -0.3484
     22  C22       26.3680   20.0310   11.2140 C.3   301  OXN301      0.1742
     23  C23       27.0310   20.3450   12.5540 C.3   301  OXN301      0.1742
     24  O24       26.8150   21.7520   12.8340 O.3   301  OXN301     -0.3484
     25  C25       27.9900   22.4460   13.2860 C.3   301  OXN301      0.1742
     26  C26       27.7860   23.9530   13.1400 C.3   301  OXN301      0.1742
     27  O27       28.9390   24.5420   12.4760 O.3   301  OXN301     -0.3484
     28  C28       28.7020   25.9060   12.0450 C.3   301  OXN301      0.1742
     29  C29       29.3370   26.9480   12.9820 C.3   301  OXN301      0.1741
     30  O30       28.5420   27.1920   14.1670 O.3   301  OXN301     -0.3511
     31  C31       28.8830   28.4770   14.7210 C.3   301  OXN301      0.1424
     32  C32       27.6350   29.3250   14.9270 C.3   301  OXN301      0.0346
@<TRIPOS>BOND
     1     9     6    1
     2     8     6    1
     3    10    11   ar
     4    10     7   ar
     5    11    12   ar
     6    17    16    1
     7    17    18    1
     8     6     7    1
     9     6     1    1
    10    16    15    1
    11     7    14   ar
    12    12    15    1
    13    12    13   ar
    14    14    13   ar
    15    18    19    1
    16    19    20    1
    17     1     2    1
    18     4     2    1
    19     2     3    1
    20     2     5    1
    21    20    21    1
    22    21    22    1
    23    22    23    1
    24    28    27    1
    25    28    29    1
    26    27    26    1
    27    23    24    1
    28    24    25    1
    29    29    30    1
    30    26    25    1
    31    30    31    1
    32    31    32    1
