@<TRIPOS>MOLECULE
2q36_ATP_A_1.pdb
 31 33 0 0 0
SMALL
GASTEIGER

@<TRIPOS>ATOM
      1  PG         1.5840  -14.5900  -20.9810 P.3   400  ATP400      0.5373
      2  O1G        0.8370  -13.3780  -20.4870 O.3   400  ATP400     -0.1143
      3  O2G        3.0410  -14.3700  -21.2950 O.3   400  ATP400     -0.1143
      4  O3G        0.8780  -15.3370  -22.0960 O.2   400  ATP400     -0.2221
      5  PB         2.6620  -15.9120  -18.6050 P.3   400  ATP400      0.2277
      6  O1B        3.6950  -14.8120  -18.6570 O.2   400  ATP400     -0.5168
      7  O2B        1.9280  -16.1790  -17.3240 O.3   400  ATP400     -0.4368
      8  O3B        1.5160  -15.6360  -19.7380 O.3   400  ATP400     -0.2258
      9  PA         4.6980  -17.9380  -18.6040 P.3   400  ATP400      0.2189
     10  O1A        5.8520  -17.5290  -19.4990 O.2   400  ATP400     -0.5170
     11  O2A        4.7970  -17.7850  -17.1130 O.3   400  ATP400     -0.4371
     12  O3A        3.3330  -17.2730  -19.1400 O.3   400  ATP400     -0.2700
     13  O5'        4.4730  -19.4870  -18.9100 O.3   400  ATP400     -0.3112
     14  C5'        3.4770  -20.2350  -18.2240 C.3   400  ATP400      0.1813
     15  C4'        2.8980  -21.2230  -19.2290 C.3   400  ATP400      0.1821
     16  O4'        3.9570  -22.0750  -19.6690 O.3   400  ATP400     -0.3135
     17  C3'        1.8070  -22.1300  -18.6800 C.3   400  ATP400      0.2184
     18  O3'        0.7650  -22.2890  -19.6490 O.3   400  ATP400     -0.2174
     19  C2'        2.4940  -23.4560  -18.4700 C.3   400  ATP400      0.2570
     20  O2'        1.6150  -24.5760  -18.6300 O.3   400  ATP400     -0.2130
     21  C1'        3.5530  -23.4270  -19.5470 C.3   400  ATP400      0.3186
     22  N9         4.6900  -24.2950  -19.1910 N.pl3 400  ATP400     -0.1439
     23  C8         5.4590  -24.2350  -18.0860 C.3   400  ATP400      0.3377
     24  N7         6.4000  -25.2070  -18.1120 N.2   400  ATP400     -0.2095
     25  C5         6.2370  -25.8980  -19.2460 C.2   400  ATP400      0.2526
     26  C6         6.8700  -27.0520  -19.9000 C.2   400  ATP400      0.4393
     27  N6         7.9110  -27.6850  -19.3420 N.pl3 400  ATP400      0.2180
     28  N1         6.3810  -27.4560  -21.0890 N.2   400  ATP400      0.0021
     29  C2         5.3470  -26.8450  -21.6830 C.3   400  ATP400      0.5254
     30  N3         4.7160  -25.7920  -21.1550 N.2   400  ATP400     -0.0055
     31  C4         5.1070  -25.2940  -19.9580 C.2   400  ATP400      0.3518
@<TRIPOS>BOND
     1     4     1    2
     2    29    30    1
     3    29    28    1
     4     3     1    1
     5    30    31    2
     6    28    26    2
     7     1     2    1
     8     1     8    1
     9    31    25    1
    10    31    22    1
    11    26    27    1
    12    26    25    1
    13     8     5    1
    14    16    21    1
    15    16    15    1
    16    18    17    1
    17    21    22    1
    18    21    19    1
    19    10     9    2
    20    25    24    2
    21    15    17    1
    22    15    14    1
    23    22    23    1
    24    12     5    1
    25    12     9    1
    26    13     9    1
    27    13    14    1
    28    17    19    1
    29     6     5    2
    30    20    19    1
    31     5     7    1
    32     9    11    1
    33    24    23    1
