@<TRIPOS>MOLECULE
2q37_3AL_A_1.pdb
 11 11 0 0 0
SMALL
GASTEIGER

@<TRIPOS>ATOM
      1  C4        23.7750   16.1150   14.2200 C.3   200  3AL200      0.3311
      2  C5        23.0070   17.3140   14.4700 C.1   200  3AL200      0.2371
      3  O5        21.8450   17.5450   14.6860 O.2   200  3AL200     -0.2095
      4  N7        23.8580   18.4360   14.4490 N.2   200  3AL200     -0.2430
      5  C8        25.1240   17.9400   14.1770 C.1   200  3AL200      0.3089
      6  O8        26.1100   18.6610   14.0890 O.2   200  3AL200     -0.1881
      7  N9        25.1110   16.5550   14.0260 N.2   200  3AL200     -0.1367
      8  N3        23.1900   15.3200   13.1420 N.am  200  3AL200     -0.1461
      9  C2        23.8810   14.0540   12.8180 C.2   200  3AL200      0.3615
     10  N1        23.3800   13.3940   11.9390 N.am  200  3AL200     -0.0678
     11  O2        24.9650   13.7190   13.4920 O.2   200  3AL200     -0.2473
@<TRIPOS>BOND
     1    10     9   am
     2     9     8   am
     3     9    11    2
     4     8     1    1
     5     7     5    2
     6     7     1    1
     7     6     5    2
     8     5     4    2
     9     1     2    1
    10     4     2    2
    11     2     3    2
