@<TRIPOS>MOLECULE
2q38_LSA_A_1.pdb
 12 13 0 0 0
SMALL
GASTEIGER

@<TRIPOS>ATOM
      1  C4        15.1690    6.8120   15.6170 C.ar  503  LSA503      0.0014
      2  C5        14.6890    5.7980   16.4530 C.ar  503  LSA503      0.0212
      3  C6        15.0310    4.4810   16.1470 C.ar  503  LSA503      0.1408
      4  C7        16.1030    2.6940   15.0540 C.1   503  LSA503      0.1735
      5  C3        15.9540    6.5040   14.4950 C.ar  503  LSA503      0.0008
      6  S10       14.5830    3.0010   17.0080 S.O2  503  LSA503      0.1102
      7  N9        15.3560    2.0560   15.8870 N.2   503  LSA503     -0.0526
      8  O8        16.6240    2.0920   14.1220 O.2   503  LSA503     -0.2206
      9  C1        15.7940    4.1740   15.0290 C.ar  503  LSA503      0.1035
     10  C2        16.3230    5.1830   14.2250 C.ar  503  LSA503      0.0130
     11  O12       15.2640    2.9480   18.2880 O.2   503  LSA503     -0.1456
     12  O11       13.1510    2.8080   16.9460 O.2   503  LSA503     -0.1456
@<TRIPOS>BOND
     1     8     4    2
     2    10     5   ar
     3    10     9   ar
     4     5     1   ar
     5     9     4    1
     6     9     3   ar
     7     4     7    2
     8     1     2   ar
     9     7     6    1
    10     3     2   ar
    11     3     6    1
    12    12     6    2
    13     6    11    2
