@<TRIPOS>MOLECULE
2q3c_III_B_1.pdb
 34 34 0 0 0
SMALL
GASTEIGER

@<TRIPOS>ATOM
      1  N         12.8130  -14.3860    1.7890 N.3     1  ASP1       -0.1225
      2  CA        12.7340  -15.8460    2.1290 C.3     1  ASP1        0.1805
      3  C         11.2740  -16.2990    1.9920 C.2     1  ASP1        0.2598
      4  O         10.3950  -15.4600    1.7270 O.2     1  ASP1       -0.2718
      5  CB        13.2550  -16.0750    3.5500 C.3     1  ASP1        0.1424
      6  CG        13.8120  -17.4680    3.7540 C.2     1  ASP1        0.3668
      7  OD1       13.6460  -18.3320    2.8680 O.co2   1  ASP1       -0.2456
      8  OD2       14.4180  -17.6980    4.8160 O.co2   1  ASP1       -0.2456
      9  N         11.0090  -17.5950    2.1680 N.am    2  PHE2       -0.1962
     10  CA         9.6550  -18.1340    1.9540 C.3     2  PHE2        0.1771
     11  C          8.5920  -17.4820    2.8420 C.2     2  PHE2        0.2620
     12  O          8.8670  -17.0990    3.9800 O.2     2  PHE2       -0.2715
     13  CB         9.6150  -19.6710    2.0590 C.3     2  PHE2        0.0574
     14  CG         9.8640  -20.2090    3.4470 C.ar    2  PHE2       -0.0200
     15  CD1       11.1450  -20.5840    3.8410 C.ar    2  PHE2       -0.0042
     16  CD2        8.8160  -20.3700    4.3490 C.ar    2  PHE2       -0.0042
     17  CE1       11.3800  -21.0940    5.1180 C.ar    2  PHE2       -0.0003
     18  CE2        9.0390  -20.8760    5.6320 C.ar    2  PHE2       -0.0003
     19  CZ        10.3240  -21.2370    6.0190 C.ar    2  PHE2       -0.0000
     20  N          7.3890  -17.3380    2.2910 N.am    3  SER3       -0.1936
     21  CA         6.2430  -16.7890    3.0160 C.3     3  SER3        0.2055
     22  C          5.1040  -17.7990    3.0330 C.2     3  SER3        0.2644
     23  O          4.3350  -17.8990    2.0830 O.2     3  SER3       -0.2714
     24  CB         5.7700  -15.4870    2.3760 C.3     3  SER3        0.2130
     25  OG         6.5970  -14.4180    2.7710 O.3     3  SER3       -0.2179
     26  N          5.0190  -18.5530    4.1180 N.am    4  ILE4       -0.1941
     27  CA         4.0430  -19.6200    4.2420 C.3     4  ILE4        0.1977
     28  C          3.3330  -19.4350    5.5790 C.2     4  ILE4        0.3842
     29  O          3.9210  -19.5570    6.6640 O.co2   4  ILE4       -0.2437
     30  CB         4.6950  -21.0140    4.0750 C.3     4  ILE4        0.0311
     31  CG1        5.3200  -21.1230    2.6770 C.3     4  ILE4        0.0023
     32  CG2        3.6650  -22.1340    4.2790 C.3     4  ILE4        0.0023
     33  CD1        6.3380  -22.2250    2.5060 C.3     4  ILE4        0.0001
     34  OXT        2.1530  -19.0880    5.5740 O.co2   4  ILE4       -0.2437
@<TRIPOS>BOND
     1     4     3    2
     2     1     2    1
     3    10    13    1
     4    10     9    1
     5    10    11    1
     6     3     2    1
     7     3     9   am
     8    13    14    1
     9    23    22    2
    10     2     5    1
    11    20    11   am
    12    20    21    1
    13    24    25    1
    14    24    21    1
    15    33    31    1
    16    31    30    1
    17    11    12    2
    18     7     6   ar
    19    21    22    1
    20    22    26   am
    21    14    15   ar
    22    14    16   ar
    23     5     6    1
    24     6     8   ar
    25    15    17   ar
    26    30    27    1
    27    30    32    1
    28    26    27    1
    29    27    28    1
    30    16    18   ar
    31    17    19   ar
    32    34    28   ar
    33    28    29   ar
    34    18    19   ar
