@<TRIPOS>MOLECULE
2q3d_PDA_A_1.pdb
 21 21 0 0 0
SMALL
GASTEIGER

@<TRIPOS>ATOM
      1  N         35.7430   13.8890   43.1160 N.2   311  PDA311     -0.2632
      2  N1        37.1690   14.4510   47.8990 N.ar  311  PDA311     -0.2452
      3  C2        37.1510   15.2870   46.8460 C.ar  311  PDA311      0.0978
      4  C2A       37.6160   16.7310   47.0480 C.3   311  PDA311      0.0555
      5  C3        36.7320   14.8250   45.5860 C.ar  311  PDA311      0.2067
      6  O3A       36.7380   15.6490   44.5080 O.3   311  PDA311     -0.2856
      7  C4        36.3220   13.4870   45.4350 C.ar  311  PDA311      0.0421
      8  C4A       35.8360   12.8940   44.1620 C.3   311  PDA311      0.1547
      9  C5        36.3470   12.6570   46.5570 C.ar  311  PDA311      0.0280
     10  C5A       35.9460   11.1710   46.4540 C.3   311  PDA311      0.1816
     11  OP4       36.9530   10.4450   45.5990 O.3   311  PDA311     -0.2653
     12  P         36.5050    9.0270   44.8570 P.3   311  PDA311      0.5329
     13  OP1       37.8860    8.3020   44.4880 O.3   311  PDA311     -0.1145
     14  OP2       35.6830    8.2050   45.7750 O.3   311  PDA311     -0.1145
     15  OP3       35.8450    9.3030   43.4910 O.2   311  PDA311     -0.2224
     16  C6        36.7790   13.1720   47.7790 C.ar  311  PDA311      0.0965
     17  CA        34.8640   13.7280   42.1150 C.2   311  PDA311      0.1338
     18  CB        34.0020   12.6350   42.0580 C.3   311  PDA311      0.0588
     19  C         34.8440   14.7890   41.0390 C.2   311  PDA311      0.4007
     20  O         34.0290   14.6520   40.1010 O.co2 311  PDA311     -0.2392
     21  OXT       35.6470   15.7520   41.1630 O.co2 311  PDA311     -0.2392
@<TRIPOS>BOND
     1    20    19   ar
     2    19    21   ar
     3    19    17    1
     4    18    17    1
     5    17     1    2
     6     1     8    1
     7    15    12    2
     8     8     7    1
     9    13    12    1
    10     6     5    1
    11    12    11    1
    12    12    14    1
    13     7     5   ar
    14     7     9   ar
    15     5     3   ar
    16    11    10    1
    17    10     9    1
    18     9    16   ar
    19     3     4    1
    20     3     2   ar
    21    16     2   ar
