@<TRIPOS>MOLECULE
2q3e_UPG_A_1.pdb
 36 38 0 0 0
SMALL
GASTEIGER

@<TRIPOS>ATOM
      1  N1       -19.3230   -2.4220  -66.9860 N.am  501  UPG501     -0.1766
      2  C2       -19.2700   -1.2010  -66.3120 C.1   501  UPG501      0.2845
      3  N3       -18.1570   -0.9310  -65.5310 N.2   501  UPG501     -0.2452
      4  C4       -17.1040   -1.8400  -65.4040 C.1   501  UPG501      0.2182
      5  C5       -17.1750   -3.0700  -66.0580 C.2   501  UPG501      0.1242
      6  C6       -18.2800   -3.3420  -66.8480 C.2   501  UPG501      0.0929
      7  O2       -20.1680   -0.3630  -66.4080 O.2   501  UPG501     -0.1918
      8  O4       -16.1350   -1.5480  -64.7070 O.2   501  UPG501     -0.2085
      9  C1C      -20.4980   -2.7460  -67.7890 C.3   501  UPG501      0.2401
     10  C2C      -20.2110   -3.0280  -69.2620 C.3   501  UPG501      0.2319
     11  O2C      -20.1390   -1.8170  -70.0190 O.3   501  UPG501     -0.2157
     12  C3C      -21.4300   -3.8590  -69.6260 C.3   501  UPG501      0.2158
     13  C4C      -21.6440   -4.7040  -68.3650 C.3   501  UPG501      0.1799
     14  O4C      -20.9990   -4.0040  -67.2500 O.3   501  UPG501     -0.3320
     15  O3C      -22.5920   -3.0480  -69.8270 O.3   501  UPG501     -0.2175
     16  C5C      -21.0270   -6.1020  -68.5180 C.3   501  UPG501      0.1813
     17  O5C      -19.6880   -6.0050  -68.9650 O.3   501  UPG501     -0.3112
     18  PA       -18.7550   -7.2800  -69.1310 P.3   501  UPG501      0.2189
     19  O1A      -17.4080   -6.8210  -69.6320 O.2   501  UPG501     -0.5170
     20  O2A      -18.6730   -8.1260  -67.8010 O.3   501  UPG501     -0.4371
     21  O3A      -19.3890   -8.1010  -70.3860 O.3   501  UPG501     -0.2703
     22  PB       -20.3360   -9.3760  -70.3630 P.3   501  UPG501      0.2208
     23  O1B      -21.6820   -9.1030  -69.7690 O.3   501  UPG501     -0.4371
     24  O2B      -20.3210   -9.7930  -71.8680 O.2   501  UPG501     -0.5170
     25  O3B      -19.5380  -10.5050  -69.4960 O.3   501  UPG501     -0.2857
     26  C1'      -20.0730  -10.9270  -68.2330 C.3   501  UPG501      0.2742
     27  C2'      -18.8670  -11.4880  -67.4680 C.3   501  UPG501      0.2409
     28  C3'      -18.3780  -12.8230  -68.0950 C.3   501  UPG501      0.2198
     29  C4'      -19.5720  -13.7640  -68.1410 C.3   501  UPG501      0.2144
     30  C5'      -20.6960  -13.1210  -68.9850 C.3   501  UPG501      0.1835
     31  C6'      -21.9230  -14.0020  -69.2360 C.3   501  UPG501      0.2142
     32  O2'      -17.7970  -10.5060  -67.4800 O.3   501  UPG501     -0.2149
     33  O3'      -17.2940  -13.3960  -67.3010 O.3   501  UPG501     -0.2174
     34  O4'      -19.1880  -15.0240  -68.7290 O.3   501  UPG501     -0.2176
     35  O5'      -21.1620  -11.8760  -68.3740 O.3   501  UPG501     -0.3254
     36  O6'      -22.3930  -14.5390  -68.0050 O.3   501  UPG501     -0.2176
@<TRIPOS>BOND
     1    24    22    2
     2    21    22    1
     3    21    18    1
     4    22    23    1
     5    22    25    1
     6    11    10    1
     7    15    12    1
     8    19    18    2
     9    12    10    1
    10    12    13    1
    11    25    26    1
    12    10     9    1
    13    31    30    1
    14    31    36    1
    15    18    17    1
    16    18    20    1
    17    30    35    1
    18    30    29    1
    19    17    16    1
    20    34    29    1
    21    16    13    1
    22    35    26    1
    23    13    14    1
    24    26    27    1
    25    29    28    1
    26    28    27    1
    27    28    33    1
    28     9    14    1
    29     9     1    1
    30    32    27    1
    31     1     6    1
    32     1     2   am
    33     6     5    2
    34     7     2    2
    35     2     3    2
    36     5     4    1
    37     3     4    2
    38     4     8    2
