@<TRIPOS>MOLECULE
2q3e_NAD_A_1.pdb
 44 48 0 0 0
SMALL
GASTEIGER

@<TRIPOS>ATOM
      1  PA       -28.1820  -16.7080  -77.6530 P.3   500  NAD500      0.2189
      2  O1A      -29.6260  -16.5080  -77.4830 O.3   500  NAD500     -0.4371
      3  O2A      -27.4840  -15.6460  -78.3720 O.2   500  NAD500     -0.5170
      4  O5B      -28.0130  -18.1140  -78.3990 O.3   500  NAD500     -0.3112
      5  C5B      -28.7590  -19.2250  -77.9900 C.3   500  NAD500      0.1813
      6  C4B      -29.2400  -19.9850  -79.2210 C.3   500  NAD500      0.1821
      7  O4B      -29.9030  -21.1560  -78.8020 O.3   500  NAD500     -0.3135
      8  C3B      -30.2340  -19.2000  -80.0710 C.3   500  NAD500      0.2184
      9  O3B      -29.6900  -18.8920  -81.3510 O.3   500  NAD500     -0.2174
     10  C2B      -31.4700  -20.0820  -80.1540 C.3   500  NAD500      0.2570
     11  O2B      -32.0350  -20.1050  -81.4320 O.3   500  NAD500     -0.2130
     12  C1B      -30.8840  -21.4390  -79.7770 C.3   500  NAD500      0.3186
     13  N9A      -31.8160  -22.4130  -79.2300 N.pl3 500  NAD500     -0.1439
     14  C8A      -32.6820  -22.2710  -78.1720 C.3   500  NAD500      0.3377
     15  N7A      -33.3250  -23.4520  -77.9830 N.2   500  NAD500     -0.2095
     16  C5A      -32.8680  -24.3170  -78.9270 C.2   500  NAD500      0.2526
     17  C6A      -33.1940  -25.6360  -79.1930 C.2   500  NAD500      0.4393
     18  N6A      -34.1160  -26.2490  -78.4510 N.pl3 500  NAD500      0.2180
     19  N1A      -32.5620  -26.2920  -80.2240 N.2   500  NAD500      0.0021
     20  C2A      -31.6160  -25.6350  -80.9930 C.3   500  NAD500      0.5254
     21  N3A      -31.2780  -24.3230  -80.7290 N.2   500  NAD500     -0.0055
     22  C4A      -31.9210  -23.6840  -79.7100 C.2   500  NAD500      0.3518
     23  O3       -27.6430  -16.9510  -76.1620 O.3   500  NAD500     -0.2703
     24  PN       -26.1080  -16.7870  -75.6650 P.3   500  NAD500      0.2189
     25  O1N      -25.8340  -15.3660  -75.4290 O.3   500  NAD500     -0.4371
     26  O2N      -25.2630  -17.6040  -76.5420 O.2   500  NAD500     -0.5170
     27  O5D      -26.2600  -17.5090  -74.2430 O.3   500  NAD500     -0.3112
     28  C5D      -26.2010  -18.9370  -74.1290 C.3   500  NAD500      0.1813
     29  C4D      -26.0290  -19.3840  -72.6850 C.3   500  NAD500      0.1799
     30  O4D      -24.7080  -19.0960  -72.2170 O.3   500  NAD500     -0.3327
     31  C3D      -26.9550  -18.6880  -71.6980 C.3   500  NAD500      0.2158
     32  O3D      -27.4160  -19.6370  -70.7410 O.3   500  NAD500     -0.2175
     33  C2D      -26.1150  -17.6020  -71.0350 C.3   500  NAD500      0.2309
     34  O2D      -26.5400  -17.2620  -69.7190 O.3   500  NAD500     -0.2158
     35  C1D      -24.7260  -18.2420  -71.0560 C.3   500  NAD500      0.2263
     36  N1N      -23.5290  -17.4180  -71.2010 N.pl3 500  NAD500     -0.2787
     37  C2N      -23.5250  -16.3840  -72.0980 C.3   500  NAD500      0.1244
     38  C3N      -22.3730  -15.6750  -72.3260 C.2   500  NAD500      0.0544
     39  C7N      -22.4270  -14.4370  -73.1640 C.2   500  NAD500      0.2818
     40  O7N      -21.3700  -13.5430  -72.9920 O.2   500  NAD500     -0.2670
     41  N7N      -23.4500  -14.2120  -74.0160 N.am  500  NAD500     -0.0839
     42  C4N      -21.1910  -16.0080  -71.6270 C.2   500  NAD500      0.0033
     43  C5N      -21.2160  -17.0530  -70.7120 C.2   500  NAD500      0.0157
     44  C6N      -22.3950  -17.7640  -70.5110 C.2   500  NAD500      0.0633
@<TRIPOS>BOND
     1    11    10    1
     2     9     8    1
     3    20    21    1
     4    20    19    1
     5    21    22    2
     6    19    17    2
     7    10     8    1
     8    10    12    1
     9     8     6    1
    10    12    13    1
    11    12     7    1
    12    22    13    1
    13    22    16    1
    14    13    14    1
    15     6     7    1
    16     6     5    1
    17    17    16    1
    18    17    18    1
    19    16    15    2
    20     4     5    1
    21     4     1    1
    22     3     1    2
    23    14    15    1
    24     1     2    1
    25     1    23    1
    26    26    24    2
    27    23    24    1
    28    24    25    1
    29    24    27    1
    30    27    28    1
    31    28    29    1
    32    41    39   am
    33    39    40    2
    34    39    38    1
    35    29    30    1
    36    29    31    1
    37    38    37    1
    38    38    42    2
    39    30    35    1
    40    37    36    1
    41    31    33    1
    42    31    32    1
    43    42    43    1
    44    36    35    1
    45    36    44    1
    46    35    33    1
    47    33    34    1
    48    43    44    2
