@<TRIPOS>MOLECULE
2q3f_GNP_A_1.pdb
 32 34 0 0 0
SMALL
GASTEIGER

@<TRIPOS>ATOM
      1  PG        14.2030   55.9710   31.7040 P.3   401  GNP401      0.4884
      2  O1G       15.3090   56.6890   31.0160 O.3   401  GNP401     -0.1240
      3  O2G       13.5770   54.9120   30.8830 O.2   401  GNP401     -0.2331
      4  O3G       14.5430   55.5450   33.0820 O.3   401  GNP401     -0.1240
      5  N3B       12.9680   57.1520   31.8990 N.3   401  GNP401     -0.0163
      6  PB        13.0850   58.5770   32.8590 P.3   401  GNP401      0.4669
      7  O1B       12.9950   57.9800   34.3330 O.3   401  GNP401     -0.1253
      8  O2B       14.3450   59.2850   32.5290 O.2   401  GNP401     -0.2351
      9  O3A       11.7670   59.3630   32.4360 O.3   401  GNP401     -0.2360
     10  PA        11.7650   60.5310   31.3470 P.3   401  GNP401      0.2220
     11  O1A       12.5670   61.6790   31.8380 O.3   401  GNP401     -0.4370
     12  O2A       12.0810   59.9410   30.0310 O.2   401  GNP401     -0.5170
     13  O5'       10.2660   61.0600   31.4080 O.3   401  GNP401     -0.3111
     14  C5'        9.1550   60.3060   30.9350 C.3   401  GNP401      0.1813
     15  C4'        8.0530   61.2660   30.5440 C.3   401  GNP401      0.1799
     16  O4'        7.3700   61.7190   31.7380 O.3   401  GNP401     -0.3326
     17  C3'        8.6100   62.5380   29.9190 C.3   401  GNP401      0.2158
     18  O3'        8.7100   62.3940   28.5100 O.3   401  GNP401     -0.2175
     19  C2'        7.6120   63.6250   30.2930 C.3   401  GNP401      0.2310
     20  O2'        6.6770   63.8960   29.2750 O.3   401  GNP401     -0.2158
     21  C1'        6.9580   63.0560   31.5580 C.3   401  GNP401      0.2293
     22  N9         7.2240   63.8140   32.7770 N.pl3 401  GNP401     -0.2354
     23  C8         8.4380   64.0920   33.3650 C.3   401  GNP401      0.2246
     24  N7         8.3290   64.8420   34.4280 N.2   401  GNP401     -0.2322
     25  C5         6.9610   65.0670   34.5490 C.2   401  GNP401      0.2182
     26  C6         6.2240   65.8340   35.4990 C.1   401  GNP401      0.2372
     27  O6         6.6470   66.5150   36.4440 O.2   401  GNP401     -0.2069
     28  N1         4.8580   65.7700   35.2520 N.2   401  GNP401     -0.2485
     29  C2         4.2710   65.0710   34.2290 C.1   401  GNP401      0.2531
     30  N2         2.9360   65.1000   34.1760 N.pl3 401  GNP401     -0.0226
     31  N3         4.9400   64.3850   33.3280 N.2   401  GNP401     -0.3074
     32  C4         6.2700   64.4240   33.5480 C.2   401  GNP401      0.2300
@<TRIPOS>BOND
     1    18    17    1
     2    20    19    1
     3    17    19    1
     4    17    15    1
     5    12    10    2
     6    19    21    1
     7    15    14    1
     8    15    16    1
     9     3     1    2
    10    14    13    1
    11     2     1    1
    12    10    13    1
    13    10    11    1
    14    10     9    1
    15    21    16    1
    16    21    22    1
    17     1     5    1
    18     1     4    1
    19     5     6    1
    20     9     6    1
    21     8     6    2
    22    22    23    1
    23    22    32    1
    24     6     7    1
    25    31    32    2
    26    31    29    2
    27    23    24    1
    28    32    25    1
    29    30    29    1
    30    29    28    2
    31    24    25    2
    32    25    26    1
    33    28    26    2
    34    26    27    2
