@<TRIPOS>MOLECULE
2q3h_GDP_A_1.pdb
 28 30 0 0 0
SMALL
GASTEIGER

@<TRIPOS>ATOM
      1  PB         9.8600  -11.0810   12.5210 P.3   3444  GDP3444     0.5373
      2  O1B       10.9940  -10.3050   12.0190 O.3   3444  GDP3444    -0.1143
      3  O2B        8.6390  -10.2590   12.8050 O.3   3444  GDP3444    -0.1143
      4  O3B        9.5050  -12.2370   11.5760 O.2   3444  GDP3444    -0.2221
      5  O3A       10.1790  -11.7730   13.9520 O.3   3444  GDP3444    -0.2261
      6  PA         9.3480  -12.1940   15.1780 P.3   3444  GDP3444     0.2231
      7  O1A        8.1460  -13.0400   14.7080 O.2   3444  GDP3444    -0.5169
      8  O2A        8.8700  -11.0950   16.0820 O.3   3444  GDP3444    -0.4370
      9  O5'       10.3550  -13.1100   16.0470 O.3   3444  GDP3444    -0.3111
     10  C5'       11.0130  -14.2420   15.4970 C.3   3444  GDP3444     0.1813
     11  C4'       11.3090  -15.2450   16.5800 C.3   3444  GDP3444     0.1799
     12  O4'       12.3790  -14.7070   17.3820 O.3   3444  GDP3444    -0.3326
     13  C3'       10.1970  -15.5110   17.5580 C.3   3444  GDP3444     0.2158
     14  O3'       10.3480  -16.8240   18.1010 O.3   3444  GDP3444    -0.2175
     15  C2'       10.4250  -14.5030   18.7120 C.3   3444  GDP3444     0.2310
     16  O2'        9.9440  -14.9040   19.9610 O.3   3444  GDP3444    -0.2158
     17  C1'       11.9250  -14.5490   18.7380 C.3   3444  GDP3444     0.2293
     18  N9        12.5290  -13.2470   19.2130 N.pl3 3444  GDP3444    -0.2354
     19  C8        12.2890  -11.9990   18.7420 C.3   3444  GDP3444     0.2246
     20  N7        13.1120  -11.0470   19.3480 N.2   3444  GDP3444    -0.2322
     21  C5        13.8720  -11.7930   20.1870 C.2   3444  GDP3444     0.2182
     22  C6        14.9590  -11.4550   21.1000 C.1   3444  GDP3444     0.2372
     23  O6        15.3190  -10.2490   21.2250 O.2   3444  GDP3444    -0.2069
     24  N1        15.5360  -12.4390   21.7420 N.2   3444  GDP3444    -0.2485
     25  C2        15.1960  -13.7660   21.6300 C.1   3444  GDP3444     0.2531
     26  N2        15.8710  -14.6860   22.3240 N.pl3 3444  GDP3444    -0.0226
     27  N3        14.2240  -14.1450   20.8090 N.2   3444  GDP3444    -0.3074
     28  C4        13.5390  -13.2150   20.0750 C.2   3444  GDP3444     0.2300
@<TRIPOS>BOND
     1     4     1    2
     2     2     1    1
     3     1     3    1
     4     1     5    1
     5     5     6    1
     6     7     6    2
     7     6     9    1
     8     6     8    1
     9    10     9    1
    10    10    11    1
    11    11    12    1
    12    11    13    1
    13    12    17    1
    14    13    14    1
    15    13    15    1
    16    15    17    1
    17    15    16    1
    18    17    18    1
    19    19    18    1
    20    19    20    1
    21    18    28    1
    22    20    21    2
    23    28    21    1
    24    28    27    2
    25    21    22    1
    26    27    25    2
    27    22    23    2
    28    22    24    2
    29    25    24    2
    30    25    26    1
