@<TRIPOS>MOLECULE
2q3j_H02_A_1.pdb
 43 47 0 0 0
SMALL
GASTEIGER

@<TRIPOS>ATOM
      1  CBA        6.5670    5.2950    9.8110 C.3   700  H02700      0.0057
      2  CAA        5.7210    6.5060   10.2110 C.3   700  H02700      0.0358
      3  C3A        6.3220    7.7920    9.6390 C.2   700  H02700      0.0327
      4  C2A        5.8230    8.5580    8.5980 C.2   700  H02700      0.0141
      5  CMA        4.6070    8.2220    7.7310 C.3   700  H02700      0.0341
      6  C1A        6.6600    9.6510    8.4190 C.2   700  H02700      0.1468
      7  CHA        6.5840   10.6360    7.4370 C.2   700  H02700      0.0981
      8  NA         7.6420    9.5420    9.3150 N.2   700  H02700     -0.3679
      9  C4A        7.4750    8.4440   10.0570 C.1   700  H02700      0.0002
     10  CHB        8.2010    8.2370   11.2240 C.2   700  H02700      0.0816
     11  C1B        9.4930    8.7290   11.3740 C.ar  700  H02700      0.0653
     12  NB         9.6550   10.0520   11.4100 N.ar  700  H02700     -0.3246
     13  CCB        8.5860   10.6360   12.2330 C.3   700  H02700      0.1304
     14  C2B       10.6110    8.1560   11.9630 C.ar  700  H02700     -0.0079
     15  CMB       10.8590    6.6640   12.1950 C.3   700  H02700      0.0323
     16  C3B       11.4600    9.1780   12.3620 C.ar  700  H02700     -0.0083
     17  CAB       12.7950    9.0490   13.0980 C.3   700  H02700      0.0276
     18  CBB       13.9410    9.6800   12.3070 C.3   700  H02700      0.0051
     19  C4B       10.8260   10.3490   11.9770 C.ar  700  H02700      0.0652
     20  CHC       11.0690   11.6610   12.3730 C.2   700  H02700      0.0816
     21  C1C       11.0540   12.6890   11.4380 C.1   700  H02700      0.0002
     22  NC        10.3600   12.5660   10.3080 N.2   700  H02700     -0.3679
     23  C2C       11.6730   13.9300   11.3970 C.2   700  H02700      0.0330
     24  CMC       12.5950   14.5180   12.4680 C.3   700  H02700      0.0412
     25  C3C       11.3310   14.5420   10.2000 C.2   700  H02700      0.0143
     26  CAC       11.8690   15.8720    9.6760 C.3   700  H02700      0.0411
     27  CBC       13.2140   15.6130    8.9950 C.3   700  H02700      0.1188
     28  CGC       13.9270   16.9150    8.6260 C.2   700  H02700      0.3652
     29  O1C       14.6170   17.4510    9.5200 O.co2 700  H02700     -0.2456
     30  O2C       13.7880   17.3270    7.4540 O.co2 700  H02700     -0.2456
     31  C4C       10.5040   13.6440    9.5360 C.2   700  H02700      0.1468
     32  CHD       10.1780   13.5700    8.1870 C.2   700  H02700      0.0981
     33  C1D        8.8950   13.2760    7.7400 C.1   700  H02700      0.0112
     34  ND         8.3440   12.1210    8.1160 N.2   700  H02700     -0.3338
     35  C4D        7.4020   11.7450    7.2520 C.1   700  H02700      0.0112
     36  C3D        7.3390   12.7250    6.2720 C.2   700  H02700      0.0402
     37  CMD        6.3640   12.7410    5.0930 C.3   700  H02700      0.0418
     38  C2D        8.2760   13.7000    6.5710 C.2   700  H02700      0.0404
     39  CAD        8.6310   14.9240    5.7250 C.3   700  H02700      0.0482
     40  CBD        8.0450   16.2070    6.3140 C.3   700  H02700      0.1194
     41  CGD        8.4530   17.4260    5.4830 C.2   700  H02700      0.3652
     42  O1D        8.8380   18.4350    6.1130 O.co2 700  H02700     -0.2456
     43  O2D        8.3750   17.3200    4.2400 O.co2 700  H02700     -0.2456
@<TRIPOS>BOND
     1    43    41   ar
     2    37    36    1
     3    41    42   ar
     4    41    40    1
     5    39    40    1
     6    39    38    1
     7    36    38    2
     8    36    35    1
     9    38    33    1
    10    35     7    2
    11    35    34    2
    12     7     6    1
    13    30    28   ar
    14     5     4    1
    15    33    34    2
    16    33    32    2
    17    32    31    1
    18     6     4    1
    19     6     8    2
    20     4     3    2
    21    28    27    1
    22    28    29   ar
    23    27    26    1
    24     8     9    2
    25    31    25    1
    26    31    22    2
    27     3     9    1
    28     3     2    1
    29    26    25    1
    30     1     2    1
    31     9    10    2
    32    25    23    2
    33    22    21    2
    34    10    11    1
    35    11    12   ar
    36    11    14   ar
    37    23    21    1
    38    23    24    1
    39    12    19   ar
    40    12    13    1
    41    21    20    2
    42    14    15    1
    43    14    16   ar
    44    19    16   ar
    45    19    20    1
    46    18    17    1
    47    16    17    1
