@<TRIPOS>MOLECULE
2q3k_MUW_A_1.pdb
 45 47 0 0 0
SMALL
GASTEIGER

@<TRIPOS>ATOM
      1  O9        19.8340   30.8070   10.4830 O.2   200  MUW200     -0.1528
      2  S7        20.5540   30.5910   11.6970 S.O2  200  MUW200      0.0633
      3  O8        21.0590   31.8390   12.1870 O.2   200  MUW200     -0.1528
      4  C1        21.7830   29.5730   11.4210 C.ar  200  MUW200      0.1222
      5  C2        21.9290   28.8550   10.2280 C.ar  200  MUW200      0.0196
      6  C3        23.0050   27.9760   10.0340 C.ar  200  MUW200     -0.0015
      7  C4        23.9550   27.7810   11.0410 C.ar  200  MUW200     -0.0031
      8  C15       25.1630   26.8390   10.9200 C.3   200  MUW200      0.1356
      9  N45       25.1310   25.9990    9.7340 N.3   200  MUW200     -0.1262
     10  C5        23.8140   28.5010   12.2180 C.ar  200  MUW200     -0.0015
     11  C6        22.7550   29.3820   12.4000 C.ar  200  MUW200      0.0196
     12  N10       19.4740   29.9610   12.7280 N.3   200  MUW200     -0.1543
     13  C11       19.2110   28.5740   12.3150 C.3   200  MUW200      0.0958
     14  C12       17.7390   28.2110   12.4320 C.3   200  MUW200      0.0178
     15  C13       17.5490   26.7860   11.9270 C.3   200  MUW200      0.0015
     16  C14       16.8890   29.1440   11.5800 C.3   200  MUW200      0.0015
     17  C16       19.8460   30.1870   14.1330 C.3   200  MUW200      0.1124
     18  C22       19.9290   28.9250   14.9860 C.3   200  MUW200      0.1996
     19  O23       20.0410   29.2780   16.3910 O.3   200  MUW200     -0.2189
     20  C17       18.9370   31.2020   14.8440 C.3   200  MUW200      0.0205
     21  C18       17.6240   31.5180   14.1650 C.3   200  MUW200      0.0033
     22  C19       17.3000   33.0150   14.1520 C.3   200  MUW200      0.0235
     23  C20       16.8990   33.6000   15.5040 C.3   200  MUW200      0.1152
     24  N21       17.7840   34.7310   15.7710 N.am  200  MUW200     -0.2040
     25  C39       18.0100   35.2130   16.9940 C.2   200  MUW200      0.2620
     26  O40       17.5130   34.8060   18.0370 O.2   200  MUW200     -0.2715
     27  C37       19.0100   36.3510   17.0600 C.3   200  MUW200      0.1841
     28  N38       18.4790   37.3610   17.9520 N.am  200  MUW200     -0.1604
     29  C41       18.1330   38.5480   17.4760 C.2   200  MUW200      0.4217
     30  O42       17.5850   39.5430   18.3800 O.3   200  MUW200     -0.4294
     31  C44       16.6240   40.4870   17.9120 C.3   200  MUW200      0.2574
     32  O43       18.2820   38.8060   16.2900 O.2   200  MUW200     -0.2245
     33  C30       20.2910   35.8130   17.6940 C.3   200  MUW200      0.0735
     34  C24       21.3430   36.8970   17.9320 C.ar  200  MUW200     -0.0163
     35  C25       21.5060   37.9660   17.0480 C.ar  200  MUW200     -0.0039
     36  C26       22.5010   38.9090   17.2630 C.ar  200  MUW200     -0.0003
     37  C27       23.3240   38.7900   18.3770 C.ar  200  MUW200     -0.0000
     38  C28       23.1690   37.7220   19.2570 C.ar  200  MUW200     -0.0003
     39  C29       22.1890   36.7690   19.0320 C.ar  200  MUW200     -0.0039
     40  C31       20.9580   34.7570   16.8170 C.ar  200  MUW200     -0.0163
     41  C32       21.0600   33.4550   17.2840 C.ar  200  MUW200     -0.0039
     42  C33       21.7260   32.4890   16.5410 C.ar  200  MUW200     -0.0003
     43  C34       22.2750   32.8270   15.3150 C.ar  200  MUW200     -0.0000
     44  C35       22.1750   34.1230   14.8380 C.ar  200  MUW200     -0.0003
     45  C36       21.5300   35.0890   15.5930 C.ar  200  MUW200     -0.0039
@<TRIPOS>BOND
     1     9     8    1
     2     6     5   ar
     3     6     7   ar
     4     5     4   ar
     5     1     2    2
     6     8     7    1
     7     7    10   ar
     8     4     2    1
     9     4    11   ar
    10    16    14    1
    11     2     3    2
    12     2    12    1
    13    15    14    1
    14    10    11   ar
    15    13    14    1
    16    13    12    1
    17    12    17    1
    18    17    20    1
    19    17    18    1
    20    22    21    1
    21    22    23    1
    22    21    20    1
    23    44    43   ar
    24    44    45   ar
    25    18    19    1
    26    43    42   ar
    27    23    24    1
    28    45    40   ar
    29    24    25   am
    30    32    29    2
    31    42    41   ar
    32    40    41   ar
    33    40    33    1
    34    25    27    1
    35    25    26    2
    36    35    36   ar
    37    35    34   ar
    38    27    33    1
    39    27    28    1
    40    36    37   ar
    41    29    28   am
    42    29    30    1
    43    33    34    1
    44    31    30    1
    45    34    39   ar
    46    37    38   ar
    47    39    38   ar
