@<TRIPOS>MOLECULE
2q3o_FMN_A_1.pdb
 31 33 0 0 0
SMALL
GASTEIGER

@<TRIPOS>ATOM
      1  N1        20.3490   13.2410   31.0610 N.2   7401  FMN7401    -0.2890
      2  C2        20.7730   13.4520   29.8320 C.1   7401  FMN7401     0.3669
      3  O2        20.6620   12.5370   29.0370 O.2   7401  FMN7401    -0.1744
      4  N3        21.3250   14.6320   29.4340 N.2   7401  FMN7401    -0.2300
      5  C4        21.4760   15.7080   30.3030 C.1   7401  FMN7401     0.2513
      6  O4        21.9590   16.7710   29.9800 O.2   7401  FMN7401    -0.2057
      7  C4A       21.0250   15.5130   31.6620 C.2   7401  FMN7401     0.2700
      8  N5        21.1420   16.4650   32.5480 N.2   7401  FMN7401    -0.3878
      9  C5A       20.7660   16.3130   33.8080 C.2   7401  FMN7401     0.1320
     10  C6        20.9510   17.3900   34.7320 C.2   7401  FMN7401     0.0250
     11  C7        20.5910   17.2480   36.0600 C.2   7401  FMN7401    -0.0238
     12  C7M       20.8220   18.4060   37.0140 C.3   7401  FMN7401     0.0308
     13  C8        20.0180   16.0230   36.5150 C.2   7401  FMN7401    -0.0280
     14  C8M       19.6140   15.8180   37.9590 C.3   7401  FMN7401     0.0304
     15  C9        19.8240   14.9780   35.6300 C.2   7401  FMN7401    -0.0041
     16  C9A       20.1940   15.0720   34.2440 C.3   7401  FMN7401     0.1497
     17  N10       20.0260   13.9660   33.2590 N.pl3 7401  FMN7401    -0.2691
     18  C10       20.4400   14.1830   31.9990 C.2   7401  FMN7401     0.2416
     19  C1'       19.4320   12.6370   33.6050 C.3   7401  FMN7401     0.1294
     20  C2'       20.1300   12.2580   34.7980 C.3   7401  FMN7401     0.2044
     21  O2'       21.4930   12.0060   34.3740 O.3   7401  FMN7401    -0.2185
     22  C3'       19.6220   11.0220   35.5360 C.3   7401  FMN7401     0.2164
     23  O3'       18.2290   11.2450   35.8790 O.3   7401  FMN7401    -0.2175
     24  C4'       20.4370   11.0790   36.7830 C.3   7401  FMN7401     0.2147
     25  O4'       21.7850   10.8660   36.4620 O.3   7401  FMN7401    -0.2176
     26  C5'       20.0900   10.0560   37.8060 C.3   7401  FMN7401     0.1892
     27  O5'       20.9570   10.4530   38.8970 O.3   7401  FMN7401    -0.2674
     28  P         20.6420    9.5270   40.0420 P.3   7401  FMN7401     0.5327
     29  O1P       20.0370    8.2230   39.8780 O.3   7401  FMN7401    -0.1145
     30  O2P       21.4550    9.7430   41.4090 O.3   7401  FMN7401    -0.1145
     31  O3P       21.9970    8.8270   39.5370 O.2   7401  FMN7401    -0.2224
@<TRIPOS>BOND
     1     3     2    2
     2     4     2    2
     3     4     5    2
     4     2     1    2
     5     6     5    2
     6     5     7    1
     7     1    18    2
     8     7    18    1
     9     7     8    2
    10    18    17    1
    11     8     9    2
    12    17    19    1
    13    17    16    1
    14    19    20    1
    15     9    16    1
    16     9    10    1
    17    16    15    1
    18    21    20    1
    19    10    11    2
    20    20    22    1
    21    22    23    1
    22    22    24    1
    23    15    13    2
    24    11    13    1
    25    11    12    1
    26    25    24    1
    27    13    14    1
    28    24    26    1
    29    26    27    1
    30    27    28    1
    31    31    28    2
    32    29    28    1
    33    28    30    1
