@<TRIPOS>MOLECULE
2q3r_FMN_A_1.pdb
 31 33 0 0 0
SMALL
GASTEIGER

@<TRIPOS>ATOM
      1  N1        14.3220   42.8180   60.0740 N.2   373  FMN373     -0.2890
      2  C2        13.9830   41.6310   59.5440 C.1   373  FMN373      0.3669
      3  O2        14.8270   40.7680   59.4760 O.2   373  FMN373     -0.1744
      4  N3        12.7400   41.3440   59.0740 N.2   373  FMN373     -0.2300
      5  C4        11.7230   42.2550   59.1130 C.1   373  FMN373      0.2513
      6  O4        10.6250   41.9950   58.6790 O.2   373  FMN373     -0.2057
      7  C4A       12.0140   43.5780   59.6900 C.2   373  FMN373      0.2700
      8  N5        11.0950   44.5450   59.7640 N.2   373  FMN373     -0.3878
      9  C5A       11.3810   45.7860   60.2690 C.2   373  FMN373      0.1320
     10  C6        10.3840   46.8140   60.3090 C.2   373  FMN373      0.0250
     11  C7        10.6840   48.0720   60.8030 C.2   373  FMN373     -0.0238
     12  C7M        9.6210   49.1470   60.8220 C.3   373  FMN373      0.0308
     13  C8        11.9870   48.3650   61.2900 C.2   373  FMN373     -0.0280
     14  C8M       12.3180   49.7440   61.8360 C.3   373  FMN373      0.0304
     15  C9        12.9740   47.3900   61.2610 C.2   373  FMN373     -0.0041
     16  C9A       12.6970   46.0730   60.7450 C.3   373  FMN373      0.1497
     17  N10       13.7110   45.0650   60.6830 N.pl3 373  FMN373     -0.2691
     18  C10       13.4170   43.8110   60.1720 C.2   373  FMN373      0.2416
     19  C1'       14.9790   45.4800   61.1500 C.3   373  FMN373      0.1294
     20  C2'       15.7400   46.0930   59.9290 C.3   373  FMN373      0.2044
     21  O2'       16.0030   44.9770   58.9820 O.3   373  FMN373     -0.2185
     22  C3'       16.9130   46.8240   60.7280 C.3   373  FMN373      0.2164
     23  O3'       16.2250   47.8840   61.5030 O.3   373  FMN373     -0.2175
     24  C4'       17.9000   47.6830   60.0090 C.3   373  FMN373      0.2147
     25  O4'       18.7940   46.8900   59.1590 O.3   373  FMN373     -0.2176
     26  C5'       18.6210   48.3760   61.1690 C.3   373  FMN373      0.1892
     27  O5'       19.3170   49.4470   60.6480 O.3   373  FMN373     -0.2674
     28  P         19.8030   50.2540   61.9330 P.3   373  FMN373      0.5327
     29  O1P       20.2210   49.6050   63.2080 O.3   373  FMN373     -0.1145
     30  O2P       20.4980   51.6550   61.7080 O.3   373  FMN373     -0.1145
     31  O3P       21.2170   49.7420   61.3990 O.2   373  FMN373     -0.2224
@<TRIPOS>BOND
     1     6     5    2
     2    21    20    1
     3     4     5    2
     4     4     2    2
     5     5     7    1
     6    25    24    1
     7     3     2    2
     8     2     1    2
     9     7     8    2
    10     7    18    1
    11     8     9    2
    12    20    22    1
    13    20    19    1
    14    24    22    1
    15    24    26    1
    16     1    18    2
    17    18    17    1
    18     9    10    1
    19     9    16    1
    20    10    11    2
    21    27    26    1
    22    27    28    1
    23    17    16    1
    24    17    19    1
    25    22    23    1
    26    16    15    1
    27    11    12    1
    28    11    13    1
    29    15    13    2
    30    13    14    1
    31    31    28    2
    32    30    28    1
    33    28    29    1
