@<TRIPOS>MOLECULE
2q3y_1CA_A_1.pdb
 24 27 0 0 0
SMALL
GASTEIGER

@<TRIPOS>ATOM
      1  C1        -9.6690  -30.1950  -21.8510 C.3   247  1CA247      0.0118
      2  C2       -10.1430  -29.3830  -23.0560 C.3   247  1CA247      0.0694
      3  C3       -11.5560  -28.8620  -22.8000 C.2   247  1CA247      0.1725
      4  C4       -11.9560  -28.5570  -21.5040 C.2   247  1CA247      0.0289
      5  C5       -11.1120  -28.7340  -20.4130 C.2   247  1CA247     -0.0420
      6  C6       -11.6230  -28.3320  -19.0280 C.3   247  1CA247      0.0221
      7  C7       -11.2590  -29.3750  -17.9720 C.3   247  1CA247      0.0044
      8  C8        -9.7730  -29.7300  -18.0380 C.3   247  1CA247      0.0006
      9  C9        -9.4640  -30.3540  -19.4020 C.3   247  1CA247      0.0035
     10  C10       -9.7330  -29.3840  -20.5560 C.3   247  1CA247      0.0157
     11  C11       -8.0370  -30.9100  -19.4620 C.3   247  1CA247      0.0003
     12  C12       -7.7780  -31.9250  -18.3450 C.3   247  1CA247      0.0004
     13  C13       -8.0360  -31.2580  -16.9930 C.3   247  1CA247      0.0066
     14  C14       -9.4820  -30.7690  -16.9540 C.3   247  1CA247      0.0004
     15  C15       -9.5810  -30.2630  -15.5150 C.3   247  1CA247      0.0004
     16  C16       -8.8600  -31.3670  -14.7350 C.3   247  1CA247      0.0074
     17  C17       -8.1480  -32.2090  -15.7990 C.3   247  1CA247      0.0603
     18  C18       -7.0520  -30.1160  -16.7310 C.3   247  1CA247      0.0004
     19  C19       -8.6810  -28.2730  -20.5680 C.3   247  1CA247      0.0041
     20  C20       -6.7880  -32.6890  -15.2900 C.2   247  1CA247      0.1834
     21  C21       -6.0800  -33.8220  -16.0380 C.3   247  1CA247      0.2458
     22  O3       -12.3490  -28.7460  -23.7330 O.2   247  1CA247     -0.2914
     23  O20       -6.2890  -32.1780  -14.2890 O.2   247  1CA247     -0.2933
     24  O21       -4.7290  -33.9800  -15.6010 O.3   247  1CA247     -0.2119
@<TRIPOS>BOND
     1    22     3    2
     2     2     3    1
     3     2     1    1
     4     3     4    1
     5     1    10    1
     6     4     5    2
     7    19    10    1
     8    10     5    1
     9    10     9    1
    10     5     6    1
    11    11     9    1
    12    11    12    1
    13     9     8    1
    14     6     7    1
    15    12    13    1
    16     8     7    1
    17     8    14    1
    18    13    14    1
    19    13    18    1
    20    13    17    1
    21    14    15    1
    22    21    24    1
    23    21    20    1
    24    17    20    1
    25    17    16    1
    26    15    16    1
    27    20    23    2
