@<TRIPOS>MOLECULE
2q3z_III_X_1.pdb
 46 48 0 0 0
SMALL
GASTEIGER

@<TRIPOS>ATOM
      1  C         -6.9540   -0.9930   23.3730 C.2     1  ACE1        0.2264
      2  O         -6.1590   -0.7270   24.2760 O.2     1  ACE1       -0.2748
      3  CH3       -8.0540    0.0170   23.0110 C.3     1  ACE1        0.0948
      4  N         -6.8360   -2.1530   22.7090 N.am    2  PRO2       -0.2729
      5  CA        -5.8020   -3.1700   22.9670 C.3     2  PRO2        0.1535
      6  C         -4.5210   -2.8320   22.2120 C.2     2  PRO2        0.2598
      7  O         -4.4110   -1.7950   21.5730 O.2     2  PRO2       -0.2715
      8  CB        -6.3700   -4.4890   22.4070 C.3     2  PRO2        0.0310
      9  CG        -7.5780   -4.1160   21.5370 C.3     2  PRO2        0.0237
     10  CD        -7.6990   -2.5830   21.5960 C.3     2  PRO2        0.0939
     11  N         -3.5660   -3.7430   22.3140 N.am    3  ONL3       -0.1964
     12  CA        -2.2760   -3.6270   21.6510 C.3     3  ONL3        0.1732
     13  C         -2.3730   -4.4540   20.3480 C.2     3  ONL3        0.2616
     14  O         -2.7690   -5.6200   20.3330 O.2     3  ONL3       -0.2715
     15  CB        -1.1650   -4.2170   22.5200 C.3     3  ONL3        0.0388
     16  CG        -0.5280   -3.1790   23.4260 C.3     3  ONL3        0.0668
     17  CD         0.5010   -3.8320   24.3310 C.2     3  ONL3        0.1512
     18  OD         0.3350   -4.9660   24.7740 O.2     3  ONL3       -0.2960
     19  CE         1.7470   -3.0460   24.6900 C.3     3  ONL3        0.0722
     20  N         -1.9820   -3.8010   19.2670 N.am    4  LEU4       -0.1964
     21  CA        -1.9960   -4.3600   17.9250 C.3     4  LEU4        0.1713
     22  C         -0.6270   -4.1680   17.2900 C.2     4  LEU4        0.2458
     23  O          0.0930   -3.2540   17.6730 O.2     4  LEU4       -0.2730
     24  CB        -2.9780   -3.5050   17.0930 C.3     4  LEU4        0.0310
     25  CG        -4.2790   -3.1110   17.8190 C.3     4  LEU4        0.0022
     26  CD1       -4.8790   -1.8360   17.2060 C.3     4  LEU4        0.0001
     27  CD2       -5.3160   -4.2300   17.7960 C.3     4  LEU4        0.0001
     28  N         -0.1980   -4.9400   16.2810 N.am    5  PRO5       -0.2716
     29  CA         1.0980   -4.7510   15.5910 C.3     5  PRO5        0.1536
     30  C          1.0900   -3.3160   15.0200 C.2     5  PRO5        0.2599
     31  O          0.0210   -2.7850   14.7050 O.2     5  PRO5       -0.2715
     32  CB         1.0620   -5.7520   14.4430 C.3     5  PRO5        0.0310
     33  CG        -0.4250   -6.0640   14.2650 C.3     5  PRO5        0.0237
     34  CD        -0.9630   -6.0470   15.6900 C.3     5  PRO5        0.0939
     35  N          2.2580   -2.6820   14.9120 N.am    6  PHE6       -0.1960
     36  CA         2.3080   -1.2990   14.3870 C.3     6  PHE6        0.1787
     37  C          1.7280   -1.3050   12.9590 C.2     6  PHE6        0.2809
     38  O          1.8670   -2.2860   12.2280 O.2     6  PHE6       -0.2698
     39  CB         3.7280   -0.7270   14.4140 C.3     6  PHE6        0.0575
     40  CG         4.5890   -1.3700   13.3270 C.ar    6  PHE6       -0.0200
     41  CD1        5.3880   -2.4570   13.6320 C.ar    6  PHE6       -0.0042
     42  CD2        4.5610   -0.8780   12.0260 C.ar    6  PHE6       -0.0042
     43  CE1        6.1680   -3.0540   12.6430 C.ar    6  PHE6       -0.0003
     44  CE2        5.3320   -1.4700   11.0250 C.ar    6  PHE6       -0.0003
     45  CZ         6.1380   -2.5630   11.3370 C.ar    6  PHE6       -0.0000
     46  N          1.0590   -0.2110   12.6070 N.am    7  NH27       -0.0863
@<TRIPOS>BOND
     1    44    45   ar
     2    44    42   ar
     3    45    43   ar
     4    42    40   ar
     5    38    37    2
     6    46    37   am
     7    43    41   ar
     8    37    36    1
     9    40    41   ar
    10    40    39    1
    11    33    32    1
    12    33    34    1
    13    36    39    1
    14    36    35    1
    15    32    29    1
    16    31    30    2
    17    35    30   am
    18    30    29    1
    19    29    28    1
    20    34    28    1
    21    28    22   am
    22    24    25    1
    23    24    21    1
    24    26    25    1
    25    22    23    2
    26    22    21    1
    27    27    25    1
    28    21    20    1
    29    20    13   am
    30    14    13    2
    31    13    12    1
    32     9    10    1
    33     9     8    1
    34     7     6    2
    35    10     4    1
    36    12    11    1
    37    12    15    1
    38     6    11   am
    39     6     5    1
    40     8     5    1
    41    15    16    1
    42     4     5    1
    43     4     1   am
    44     3     1    1
    45     1     2    2
    46    16    17    1
    47    17    19    1
    48    17    18    2
