@<TRIPOS>MOLECULE
2q46_NAP_A_1.pdb
 48 52 0 0 0
SMALL
GASTEIGER

@<TRIPOS>ATOM
      1  PA         4.9390    4.2560   24.0330 P.3   800  NAP800      0.2189
      2  O1A        5.3300    4.4220   22.6400 O.2   800  NAP800     -0.5170
      3  O2A        3.6430    4.7890   23.5930 O.3   800  NAP800     -0.4371
      4  O5B        5.5610    5.2700   25.0740 O.3   800  NAP800     -0.3112
      5  C5B        5.7470    5.5030   26.4770 C.3   800  NAP800      0.1813
      6  C4B        5.8930    6.8520   25.9350 C.3   800  NAP800      0.1820
      7  O4B        6.7800    6.9250   27.2920 O.3   800  NAP800     -0.3136
      8  C3B        6.0660    8.2850   25.7570 C.3   800  NAP800      0.2157
      9  O3B        4.9410    8.9660   26.3240 O.3   800  NAP800     -0.2175
     10  C2B        7.3470    8.8170   26.2720 C.3   800  NAP800      0.2314
     11  O2B        7.2350   10.2470   26.0910 O.3   800  NAP800     -0.2630
     12  C1B        7.3200    8.3230   27.6180 C.3   800  NAP800      0.3158
     13  N9A        8.7390    8.5690   28.1130 N.pl3 800  NAP800     -0.1439
     14  C8A        9.9710    8.0780   27.6190 C.3   800  NAP800      0.3377
     15  N7A       11.0350    8.5730   28.2920 N.2   800  NAP800     -0.2095
     16  C5A       10.4880    9.4180   29.2500 C.2   800  NAP800      0.2526
     17  C6A       11.1050   10.2670   30.2710 C.2   800  NAP800      0.4393
     18  N6A       12.4550   10.3670   30.4230 N.pl3 800  NAP800      0.2180
     19  N1A       10.2060   10.9900   31.0840 N.2   800  NAP800      0.0021
     20  C2A        8.8610   10.8950   30.9060 C.3   800  NAP800      0.5254
     21  N3A        8.2110   10.1370   29.9650 N.2   800  NAP800     -0.0055
     22  C4A        9.0740    9.4100   29.1560 C.2   800  NAP800      0.3518
     23  O3         4.2720    2.9560   24.7580 O.3   800  NAP800     -0.2703
     24  PN         3.3330    1.8250   24.1670 P.3   800  NAP800      0.2189
     25  O1N        3.9020    1.5050   22.8260 O.2   800  NAP800     -0.5170
     26  O2N        1.8980    2.2110   24.1500 O.3   800  NAP800     -0.4371
     27  O5D        3.6210    0.6480   25.1990 O.3   800  NAP800     -0.3112
     28  C5D        3.2140    0.7560   26.5790 C.3   800  NAP800      0.1813
     29  C4D        4.1530   -0.1060   27.3950 C.3   800  NAP800      0.1799
     30  O4D        4.1220   -1.5610   27.0510 O.3   800  NAP800     -0.3327
     31  C3D        5.7150    0.1890   27.3620 C.3   800  NAP800      0.2158
     32  O3D        6.3780    0.0580   28.5650 O.3   800  NAP800     -0.2175
     33  C2D        6.2100   -0.7760   26.3280 C.3   800  NAP800      0.2309
     34  O2D        7.6160   -1.0110   26.4320 O.3   800  NAP800     -0.2158
     35  C1D        5.3410   -1.9830   26.6170 C.3   800  NAP800      0.2263
     36  N1N        5.1510   -3.0220   25.6150 N.pl3 800  NAP800     -0.2787
     37  C2N        5.1490   -2.6660   24.2830 C.3   800  NAP800      0.1244
     38  C3N        4.9300   -3.6430   23.3240 C.2   800  NAP800      0.0544
     39  C7N        4.8510   -3.3490   21.8350 C.2   800  NAP800      0.2818
     40  O7N        4.3690   -4.2200   21.0660 O.2   800  NAP800     -0.2670
     41  N7N        5.2500   -2.1060   21.4760 N.am  800  NAP800     -0.0839
     42  C4N        4.7120   -5.0090   23.7500 C.2   800  NAP800      0.0033
     43  C5N        4.7310   -5.3390   25.0740 C.2   800  NAP800      0.0157
     44  C6N        4.9450   -4.3690   26.0430 C.2   800  NAP800      0.0633
     45  P2B        7.0040   10.9500   24.5480 P.3   800  NAP800      0.5328
     46  O1X        5.5370   10.8490   24.1730 O.3   800  NAP800     -0.1145
     47  O2X        7.4900   12.3450   24.8610 O.3   800  NAP800     -0.1145
     48  O3X        7.9030   10.2130   23.5710 O.2   800  NAP800     -0.2224
@<TRIPOS>BOND
     1    40    39    2
     2    41    39   am
     3    39    38    1
     4     2     1    2
     5    25    24    2
     6    38    42    2
     7    38    37    1
     8    48    45    2
     9     3     1    1
    10    42    43    1
    11     1    23    1
    12     1     4    1
    13    26    24    1
    14    24    23    1
    15    24    27    1
    16    46    45    1
    17    37    36    1
    18    45    47    1
    19    45    11    1
    20    43    44    2
    21     4     5    1
    22    27    28    1
    23    36    44    1
    24    36    35    1
    25     8     6    1
    26     8    10    1
    27     8     9    1
    28     6     5    1
    29     6     7    1
    30    11    10    1
    31    10    12    1
    32    33    34    1
    33    33    35    1
    34    33    31    1
    35    28    29    1
    36    35    30    1
    37    30    29    1
    38     7    12    1
    39    31    29    1
    40    31    32    1
    41    12    13    1
    42    14    13    1
    43    14    15    1
    44    13    22    1
    45    15    16    2
    46    22    16    1
    47    22    21    2
    48    16    17    1
    49    21    20    1
    50    17    18    1
    51    17    19    2
    52    20    19    1
