@<TRIPOS>MOLECULE
2q4b_NAP_A_1.pdb
 48 53 0 0 0
SMALL
GASTEIGER

@<TRIPOS>ATOM
      1  PA        61.4550   15.7390    4.8530 P.3   400  NAP400      0.4460
      2  O1A       61.6010   16.0960    3.4930 O.3   400  NAP400     -0.1267
      3  O2A       62.7100   16.4240    4.7800 O.3   400  NAP400     -0.1267
      4  O5B       61.8780   14.3350    5.3960 O.3   400  NAP400     -0.2786
      5  C5B       61.7430   13.4600    6.4870 C.3   400  NAP400      0.1848
      6  C4B       62.7880   12.6960    5.7740 C.3   400  NAP400      0.1822
      7  O4B       62.2130   11.4250    6.6600 O.3   400  NAP400     -0.3136
      8  C3B       63.7600   11.8450    5.0940 C.3   400  NAP400      0.2157
      9  O3B       64.8430   11.9410    5.9530 O.3   400  NAP400     -0.2175
     10  C2B       63.3670   10.3500    4.9890 C.3   400  NAP400      0.2314
     11  O2B       64.5510    9.6830    4.6040 O.3   400  NAP400     -0.2630
     12  C1B       62.8920   10.1010    6.3560 C.3   400  NAP400      0.3158
     13  N9A       62.1510    8.7770    6.2030 N.pl3 400  NAP400     -0.1439
     14  C8A       60.9690    8.4120    5.4460 C.3   400  NAP400      0.3377
     15  N7A       60.7180    7.0760    5.5720 N.2   400  NAP400     -0.2095
     16  C5A       61.7120    6.5770    6.3620 C.2   400  NAP400      0.2526
     17  C6A       61.9580    5.2220    6.8020 C.2   400  NAP400      0.4393
     18  N6A       61.1620    4.1930    6.4140 N.pl3 400  NAP400      0.2180
     19  N1A       63.0640    5.0420    7.6260 N.2   400  NAP400      0.0021
     20  C2A       63.8630    6.1310    7.9580 C.3   400  NAP400      0.5254
     21  N3A       63.6870    7.4170    7.5780 N.2   400  NAP400     -0.0055
     22  C4A       62.5950    7.5800    6.7790 C.2   400  NAP400      0.3518
     23  O3        60.8060   16.6120    6.0730 O.3   400  NAP400     -0.2373
     24  PN        60.2510   18.0410    6.1170 P.3   400  NAP400      0.2219
     25  O1N       59.8590   18.2820    4.6960 O.2   400  NAP400     -0.5170
     26  O2N       61.3060   18.9520    6.7050 O.3   400  NAP400     -0.4370
     27  O5D       59.0160   17.9420    7.0420 O.3   400  NAP400     -0.3111
     28  C5D       59.1700   17.7930    8.4950 C.3   400  NAP400      0.1813
     29  C4D       57.9900   17.0820    9.0660 C.3   400  NAP400      0.1799
     30  O4D       56.8260   17.9400    9.2610 O.3   400  NAP400     -0.3327
     31  C3D       57.3970   15.7900    8.3710 C.3   400  NAP400      0.2158
     32  O3D       57.0300   14.7980    9.3190 O.3   400  NAP400     -0.2175
     33  C2D       56.2230   16.3140    7.6500 C.3   400  NAP400      0.2309
     34  O2D       55.2550   15.2430    7.5150 O.3   400  NAP400     -0.2158
     35  C1D       55.7820   17.4680    8.5780 C.3   400  NAP400      0.2263
     36  N1N       54.9950   18.5520    8.0290 N.pl3 400  NAP400     -0.2787
     37  C2N       54.8900   18.7590    6.6590 C.3   400  NAP400      0.1244
     38  C3N       54.0470   19.8360    6.1480 C.2   400  NAP400      0.0544
     39  C7N       53.9140   20.1490    4.6710 C.2   400  NAP400      0.2818
     40  O7N       54.1450   21.3370    4.2950 O.2   400  NAP400     -0.2670
     41  N7N       53.5790   19.0930    3.8760 N.am  400  NAP400     -0.0839
     42  C4N       53.3110   20.6650    7.0910 C.2   400  NAP400      0.0033
     43  C5N       53.4780   20.3890    8.4540 C.2   400  NAP400      0.0157
     44  C6N       54.2950   19.3730    8.9220 C.2   400  NAP400      0.0633
     45  P2B       65.3620   10.0330    3.1730 P.3   400  NAP400      0.5328
     46  O1X       64.3800   10.8000    2.2880 O.2   400  NAP400     -0.2224
     47  O2X       66.6570   10.8180    3.4590 O.3   400  NAP400     -0.1145
     48  O3X       65.7190    8.5800    2.8440 O.3   400  NAP400     -0.1145
@<TRIPOS>BOND
     1    46    45    2
     2    48    45    1
     3    45    47    1
     4    45    11    1
     5     2     3    1
     6     2     1    1
     7    41    39   am
     8    40    39    2
     9    11    10    1
    10    39    38    1
    11    25    24    2
    12     3     1    1
    13     1     4    1
    14     1    23    1
    15    10     8    1
    16    10    12    1
    17     8     6    1
    18     8     9    1
    19     4     5    1
    20    14    15    1
    21    14    13    1
    22    15    16    2
    23     6     5    1
    24     6     7    1
    25    23    24    1
    26    24    26    1
    27    24    27    1
    28    38    37    1
    29    38    42    2
    30    13    12    1
    31    13    22    1
    32    12     7    1
    33    16    22    1
    34    16    17    1
    35    18    17    1
    36    37    36    1
    37    22    21    2
    38    17    19    2
    39    27    28    1
    40    42    43    1
    41    34    33    1
    42    21    20    1
    43    19    20    1
    44    33    31    1
    45    33    35    1
    46    36    35    1
    47    36    44    1
    48    31    29    1
    49    31    32    1
    50    43    44    2
    51    28    29    1
    52    35    30    1
    53    29    30    1
