@<TRIPOS>MOLECULE
2q4h_AMP_A_1.pdb
 22 24 0 0 0
SMALL
GASTEIGER

@<TRIPOS>ATOM
      1  P         31.5430   -4.7680  -27.7070 P.3   601  AMP601      0.3942
      2  O1P       31.4730   -6.2760  -27.7770 O.3   601  AMP601     -0.1425
      3  O2P       30.2510   -4.4660  -26.9990 O.3   601  AMP601     -0.1425
      4  O5'       32.7670   -4.2320  -26.7430 O.3   601  AMP601     -0.2926
      5  C5'       34.1330   -4.2780  -27.1760 C.3   601  AMP601      0.1831
      6  C4'       35.1510   -4.0980  -26.0410 C.3   601  AMP601      0.1822
      7  O4'       36.5080   -3.8120  -26.4310 O.3   601  AMP601     -0.3135
      8  C3'       34.7980   -3.0870  -24.9200 C.3   601  AMP601      0.2184
      9  O3'       34.4990   -3.7630  -23.7310 O.3   601  AMP601     -0.2174
     10  C2'       36.0400   -2.1680  -24.7790 C.3   601  AMP601      0.2570
     11  O2'       36.4410   -1.9140  -23.4250 O.3   601  AMP601     -0.2130
     12  C1'       37.1290   -2.8850  -25.5100 C.3   601  AMP601      0.3186
     13  N9        38.1520   -2.0820  -26.2430 N.pl3 601  AMP601     -0.1439
     14  C8        37.9870   -0.8580  -26.8460 C.3   601  AMP601      0.3377
     15  N7        39.1640   -0.4950  -27.4100 N.2   601  AMP601     -0.2095
     16  C5        40.0740   -1.4750  -27.1800 C.2   601  AMP601      0.2526
     17  C6        41.4440   -1.6000  -27.5500 C.2   601  AMP601      0.4393
     18  N6        42.0410   -0.6610  -28.2620 N.pl3 601  AMP601      0.2180
     19  N1        42.1430   -2.7710  -27.1540 N.2   601  AMP601      0.0021
     20  C2        41.5120   -3.7690  -26.4010 C.3   601  AMP601      0.5254
     21  N3        40.1550   -3.6210  -26.0400 N.2   601  AMP601     -0.0055
     22  C4        39.4620   -2.4780  -26.4300 C.2   601  AMP601      0.3518
@<TRIPOS>BOND
     1    18    17    1
     2     2     1    1
     3     1     3    1
     4     1     4    1
     5    17    16    1
     6    17    19    2
     7    15    16    2
     8    15    14    1
     9    16    22    1
    10     5     4    1
    11     5     6    1
    12    19    20    1
    13    14    13    1
    14     7     6    1
    15     7    12    1
    16    22    13    1
    17    22    21    2
    18    20    21    1
    19    13    12    1
    20     6     8    1
    21    12    10    1
    22     8    10    1
    23     8     9    1
    24    10    11    1
