@<TRIPOS>MOLECULE
2q4x_HMH_A_1.pdb
 10 10 0 0 0
SMALL
GASTEIGER

@<TRIPOS>ATOM
      1  CM2        0.4820   54.1370   49.6450 C.3   1300  HMH1300     0.1291
      2  N1A        1.7280   51.9240   49.8690 N.2   1300  HMH1300    -0.1861
      3  C2A        0.7370   52.7880   50.2960 C.1   1300  HMH1300     0.0663
      4  N3A       -0.0510   52.4610   51.3120 N.2   1300  HMH1300    -0.3368
      5  C4A        0.0690   51.2610   51.9820 C.2   1300  HMH1300     0.2301
      6  N4A       -0.7500   50.9010   53.0440 N.pl3 1300  HMH1300    -0.0924
      7  C5A        1.0250   50.3500   51.6210 C.2   1300  HMH1300     0.0783
      8  C6A        1.9020   50.6920   50.5130 C.2   1300  HMH1300     0.1124
      9  C7A        1.0370   49.0930   52.4630 C.3   1300  HMH1300     0.2141
     10  O1         2.0110   48.2900   52.0470 O.3   1300  HMH1300    -0.2150
@<TRIPOS>BOND
     1     1     3    1
     2     2     3    2
     3     2     8    1
     4     3     4    2
     5     8     7    2
     6     4     5    2
     7     7     5    1
     8     7     9    1
     9     5     6    1
    10    10     9    1
