@<TRIPOS>MOLECULE
2q4y_COA_A_1.pdb
 48 50 0 0 0
SMALL
GASTEIGER

@<TRIPOS>ATOM
      1  N1A       -6.8770    0.8980   -6.2320 N.2   104  COA104      0.0021
      2  C2A       -5.7610    1.4950   -6.7270 C.3   104  COA104      0.5254
      3  N3A       -5.6430    2.8070   -6.7730 N.2   104  COA104     -0.0055
      4  C4A       -6.6680    3.6230   -6.4180 C.2   104  COA104      0.3518
      5  C5A       -7.8490    2.9970   -5.8570 C.2   104  COA104      0.2526
      6  C6A       -7.9270    1.6240   -5.8610 C.2   104  COA104      0.4393
      7  N6A       -9.0380    0.9840   -5.4180 N.pl3 104  COA104      0.2180
      8  N7A       -8.7270    4.0590   -5.5610 N.2   104  COA104     -0.2095
      9  C8A       -8.0850    5.2390   -5.8170 C.3   104  COA104      0.3377
     10  N9A       -6.8190    5.0250   -6.3100 N.pl3 104  COA104     -0.1439
     11  C1B       -5.8020    6.0390   -6.7700 C.3   104  COA104      0.3185
     12  C2B       -6.4050    7.0170   -7.9670 C.3   104  COA104      0.2543
     13  O2B       -5.9100    6.5110   -9.2650 O.3   104  COA104     -0.2131
     14  C3B       -5.8850    8.4800   -7.6400 C.3   104  COA104      0.1928
     15  O3B       -5.1160    8.9860   -8.6670 O.3   104  COA104     -0.2673
     16  P3B       -5.9560   10.0390   -9.3730 P.3   104  COA104      0.5327
     17  O7A       -7.0590   10.7820   -8.7760 O.3   104  COA104     -0.1145
     18  O8A       -5.1470   10.6290  -10.6170 O.2   104  COA104     -0.2224
     19  O9A       -5.0260   11.0990   -8.5420 O.3   104  COA104     -0.1145
     20  C4B       -5.1300    8.2520   -6.2980 C.3   104  COA104      0.1795
     21  O4B       -5.3850    6.8660   -5.7790 O.3   104  COA104     -0.3136
     22  C5B       -5.3280    9.4140   -5.3060 C.3   104  COA104      0.1812
     23  O5B       -4.7930    8.7480   -4.2340 O.3   104  COA104     -0.3112
     24  P1A       -5.2570    9.6250   -2.7290 P.3   104  COA104      0.2189
     25  O1A       -6.6830   10.0640   -2.8290 O.2   104  COA104     -0.5170
     26  O2A       -4.2420   10.7840   -2.4010 O.3   104  COA104     -0.4371
     27  O3A       -5.1470    8.2040   -2.0360 O.3   104  COA104     -0.2703
     28  P2A       -6.0210    8.2970   -0.7050 P.3   104  COA104      0.2188
     29  O4A       -5.3330    8.9430    0.4870 O.3   104  COA104     -0.4371
     30  O5A       -7.3150    8.9280   -1.1110 O.2   104  COA104     -0.5170
     31  O6A       -6.0880    6.7220   -0.5870 O.3   104  COA104     -0.3138
     32  CBP       -6.5340    4.4210   -0.1550 C.3   104  COA104      0.0645
     33  CCP       -6.6990    5.9290    0.3570 C.3   104  COA104      0.1519
     34  CDP       -7.1720    4.3830   -1.4950 C.3   104  COA104      0.0056
     35  CEP       -5.0430    4.0480   -0.1780 C.3   104  COA104      0.0056
     36  CAP       -7.0810    3.3010    0.6000 C.3   104  COA104      0.2312
     37  OAP       -6.3650    3.3600    1.8170 O.3   104  COA104     -0.2131
     38  C9P       -8.7270    3.2990    0.8170 C.2   104  COA104      0.2719
     39  O9P       -9.2480    2.6530    1.5970 O.2   104  COA104     -0.2706
     40  N8P       -9.5110    3.9290    0.0230 N.am  104  COA104     -0.2028
     41  C7P      -10.8830    3.8510    0.0260 C.3   104  COA104      0.1248
     42  C6P      -11.2300    4.7870   -1.1120 C.3   104  COA104      0.1102
     43  C5P      -12.6840    4.8460   -1.4110 C.2   104  COA104      0.2432
     44  O5P      -13.4890    4.1730   -0.7640 O.2   104  COA104     -0.2733
     45  N4P      -13.0580    5.6540   -2.4470 N.am  104  COA104     -0.2044
     46  C3P      -14.4120    5.6950   -2.8000 C.3   104  COA104      0.1276
     47  C2P      -14.5310    6.6380   -3.8980 C.3   104  COA104      0.0920
     48  S1P      -16.3220    6.6020   -4.2500 S.3   104  COA104     -0.0802
@<TRIPOS>BOND
     1    18    16    2
     2    16    17    1
     3    16    15    1
     4    16    19    1
     5    13    12    1
     6    15    14    1
     7    12    14    1
     8    12    11    1
     9    14    20    1
    10     3     2    1
    11     3     4    2
    12    11    10    1
    13    11    21    1
    14     2     1    1
    15     4    10    1
    16     4     5    1
    17    10     9    1
    18    20    21    1
    19    20    22    1
    20     1     6    2
    21     6     5    1
    22     6     7    1
    23     5     8    2
    24     9     8    1
    25    22    23    1
    26    48    47    1
    27    23    24    1
    28    47    46    1
    29    25    24    2
    30    46    45    1
    31    24    26    1
    32    24    27    1
    33    45    43   am
    34    27    28    1
    35    34    32    1
    36    43    42    1
    37    43    44    2
    38    42    41    1
    39    30    28    2
    40    28    31    1
    41    28    29    1
    42    31    33    1
    43    35    32    1
    44    32    33    1
    45    32    36    1
    46    40    41    1
    47    40    38   am
    48    36    38    1
    49    36    37    1
    50    38    39    2
