@<TRIPOS>MOLECULE
2q54_MU1_B_1.pdb
 48 51 0 0 0
SMALL
GASTEIGER

@<TRIPOS>ATOM
      1  O1        21.9950    4.1030   19.0340 O.2   200  MU1200     -0.2733
      2  C3        21.9140    3.3640   19.9990 C.2   200  MU1200      0.2423
      3  C2        21.6800    3.8920   21.3880 C.3   200  MU1200      0.0964
      4  N1        22.0460    2.0390   19.8830 N.am  200  MU1200     -0.1978
      5  C10       22.3640    1.3790   18.6270 C.3   200  MU1200      0.1726
      6  C13       23.7410    0.7170   18.6880 C.3   200  MU1200      0.0290
      7  C14       24.0060   -0.0890   17.4180 C.3   200  MU1200      0.0023
      8  C15       24.8440    1.7510   18.9380 C.3   200  MU1200      0.0023
      9  C11       21.2890    0.3830   18.2760 C.2   200  MU1200      0.2612
     10  O2        21.2460   -0.7000   18.8380 O.2   200  MU1200     -0.2715
     11  N3        20.4190    0.8130   17.3670 N.am  200  MU1200     -0.2053
     12  C12       19.1950    0.1150   16.9830 C.3   200  MU1200      0.1023
     13  C22       17.9180    0.8490   17.4210 C.3   200  MU1200      0.0481
     14  C20       18.0050    1.3720   18.8350 C.ar  200  MU1200     -0.0205
     15  C21       17.7930    0.5270   19.9120 C.ar  200  MU1200     -0.0042
     16  C16       17.8820    1.0220   21.2130 C.ar  200  MU1200     -0.0003
     17  C17       18.1760    2.3660   21.4320 C.ar  200  MU1200     -0.0000
     18  C18       18.3760    3.2100   20.3510 C.ar  200  MU1200     -0.0003
     19  C19       18.2880    2.7120   19.0560 C.ar  200  MU1200     -0.0042
     20  C23       19.0840    0.0230   15.4800 C.3   200  MU1200      0.0567
     21  C24       20.3240   -0.4710   14.7690 C.3   200  MU1200      0.1738
     22  O4        20.1560   -0.1430   13.3740 O.3   200  MU1200     -0.2212
     23  C25       20.5530   -1.9740   14.9720 C.3   200  MU1200      0.1300
     24  C29       21.8940   -2.3610   14.3460 C.3   200  MU1200      0.0506
     25  C4        22.1140   -3.8540   14.4610 C.ar  200  MU1200     -0.0204
     26  C5        21.9940   -4.6770   13.3350 C.ar  200  MU1200     -0.0042
     27  C6        22.1850   -6.0530   13.4490 C.ar  200  MU1200     -0.0003
     28  C7        22.4970   -6.6080   14.6880 C.ar  200  MU1200     -0.0000
     29  C8        22.6100   -5.7840   15.8060 C.ar  200  MU1200     -0.0003
     30  C9        22.4180   -4.4100   15.6990 C.ar  200  MU1200     -0.0042
     31  N4        19.4970   -2.8280   14.4180 N.am  200  MU1200     -0.2012
     32  C26       18.8020   -3.7360   15.1240 C.2   200  MU1200      0.2836
     33  O5        18.8420   -3.8510   16.3450 O.2   200  MU1200     -0.2694
     34  C27       17.9480   -4.7220   14.3540 C.3   200  MU1200      0.2673
     35  C32       18.4220   -6.1510   14.6110 C.3   200  MU1200      0.1547
     36  O28       18.0250   -4.5340   12.9350 O.3   200  MU1200     -0.4267
     37  C30       18.3380   -5.8110   12.3450 C.2   200  MU1200      0.4092
     38  O30       18.3490   -5.9640   11.1580 O.2   200  MU1200     -0.2258
     39  N31       18.5660   -6.7030   13.2790 N.am  200  MU1200     -0.2208
     40  C33       18.9390   -8.0430   13.0270 C.ar  200  MU1200      0.0572
     41  C38       18.4250   -8.7490   11.9420 C.ar  200  MU1200      0.0150
     42  C37       18.8120  -10.0690   11.7190 C.ar  200  MU1200      0.0014
     43  C36       19.7060  -10.7120   12.5770 C.ar  200  MU1200      0.0029
     44  C34       19.8410   -8.6960   13.8800 C.ar  200  MU1200      0.0178
     45  C35       20.2320  -10.0250   13.6680 C.ar  200  MU1200      0.0360
     46  C39       21.2010  -10.6950   14.6150 C.2   200  MU1200      0.1735
     47  O39       21.5190  -10.1410   15.6630 O.2   200  MU1200     -0.2913
     48  C40       21.7700  -12.0480   14.2840 C.3   200  MU1200      0.0773
@<TRIPOS>BOND
     1    38    37    2
     2    42    41   ar
     3    42    43   ar
     4    41    40   ar
     5    37    36    1
     6    37    39   am
     7    43    45   ar
     8    36    34    1
     9    40    39    1
    10    40    44   ar
    11    39    35    1
    12    26    27   ar
    13    26    25   ar
    14    22    21    1
    15    27    28   ar
    16    45    44   ar
    17    45    46    1
    18    48    46    1
    19    24    25    1
    20    24    23    1
    21    34    35    1
    22    34    32    1
    23    31    23    1
    24    31    32   am
    25    25    30   ar
    26    46    47    2
    27    28    29   ar
    28    21    23    1
    29    21    20    1
    30    32    33    2
    31    20    12    1
    32    30    29   ar
    33    12    11    1
    34    12    13    1
    35    11     9   am
    36     7     6    1
    37    13    14    1
    38     9     5    1
    39     9    10    2
    40     5     6    1
    41     5     4    1
    42     6     8    1
    43    14    19   ar
    44    14    15   ar
    45     1     2    2
    46    19    18   ar
    47     4     2   am
    48    15    16   ar
    49     2     3    1
    50    18    17   ar
    51    16    17   ar
