@<TRIPOS>MOLECULE
2q55_MU0_B_1.pdb
 48 52 0 0 0
SMALL
GASTEIGER

@<TRIPOS>ATOM
      1  O5        18.6510   32.5180   13.8040 O.2   200  MU0200     -0.2694
      2  C26       18.3230   32.3600   14.9860 C.2   200  MU0200      0.2836
      3  C27       17.0020   32.9580   15.4550 C.3   200  MU0200      0.2673
      4  O28       16.5830   32.5760   16.7840 O.3   200  MU0200     -0.4267
      5  C30       15.9920   33.7530   17.3750 C.2   200  MU0200      0.4092
      6  O30       15.3650   33.7590   18.4220 O.2   200  MU0200     -0.2258
      7  N31       16.2380   34.8040   16.6120 N.am  200  MU0200     -0.2208
      8  C32       17.0210   34.4920   15.4250 C.3   200  MU0200      0.1547
      9  C33       15.9240   36.1130   17.0290 C.ar  200  MU0200      0.0571
     10  C38       14.6340   36.4350   17.4360 C.ar  200  MU0200      0.0150
     11  C37       14.3410   37.7280   17.8560 C.ar  200  MU0200      0.0013
     12  C36       15.3310   38.6990   17.8820 C.ar  200  MU0200      0.0001
     13  C35       16.6190   38.3750   17.4850 C.ar  200  MU0200      0.0013
     14  C34       16.9130   37.0860   17.0580 C.ar  200  MU0200      0.0150
     15  N4        19.0720   31.6510   15.8420 N.am  200  MU0200     -0.2012
     16  C25       20.2740   30.9420   15.4000 C.3   200  MU0200      0.1300
     17  C29       21.5180   31.4370   16.1380 C.3   200  MU0200      0.0506
     18  C4        21.7520   32.8990   15.8760 C.ar  200  MU0200     -0.0204
     19  C9        22.1980   33.3110   14.6260 C.ar  200  MU0200     -0.0042
     20  C8        22.4140   34.6550   14.3870 C.ar  200  MU0200     -0.0003
     21  C5        21.5200   33.8440   16.8840 C.ar  200  MU0200     -0.0042
     22  C6        21.7370   35.2000   16.6380 C.ar  200  MU0200     -0.0003
     23  C7        22.1830   35.6040   15.3860 C.ar  200  MU0200     -0.0000
     24  C24       20.1340   29.4300   15.6030 C.3   200  MU0200      0.1738
     25  O4        19.9170   29.1300   16.9890 O.3   200  MU0200     -0.2212
     26  C23       18.9610   28.8070   14.8480 C.3   200  MU0200      0.0567
     27  C12       19.1670   28.6470   13.3470 C.3   200  MU0200      0.1023
     28  N3        20.4560   28.0440   13.0440 N.am  200  MU0200     -0.2054
     29  C11       21.3020   28.5020   12.1140 C.2   200  MU0200      0.2600
     30  O2        21.1400   29.5080   11.4360 O.2   200  MU0200     -0.2715
     31  C10       22.5040   27.6150   11.8970 C.3   200  MU0200      0.1614
     32  C13       23.7960   28.4390   11.9200 C.3   200  MU0200      0.0278
     33  C14       23.8640   29.2340   13.2210 C.3   200  MU0200      0.0022
     34  C15       24.9990   27.5290   11.7340 C.3   200  MU0200      0.0022
     35  N1        22.3800   26.8110   10.6580 N.am  200  MU0200     -0.2295
     36  C2        22.3410   27.5590    9.3990 C.3   200  MU0200      0.1053
     37  C39       23.0260   26.6630    8.3790 C.3   200  MU0200      0.0495
     38  C3        22.2320   25.4820   10.7600 C.1   200  MU0200      0.2113
     39  O1        22.1330   24.9370   11.8530 O.2   200  MU0200     -0.2063
     40  N2        22.1630   24.7630    9.6380 N.2   200  MU0200     -0.1900
     41  C1        22.2630   25.3450    8.3120 C.3   200  MU0200      0.1409
     42  C22       18.0310   27.7420   12.8820 C.3   200  MU0200      0.0481
     43  C20       18.0500   27.5000   11.3980 C.ar  200  MU0200     -0.0205
     44  C19       18.6210   26.3450   10.8760 C.ar  200  MU0200     -0.0042
     45  C18       18.6170   26.1360    9.5030 C.ar  200  MU0200     -0.0003
     46  C17       18.0340   27.0700    8.6600 C.ar  200  MU0200     -0.0000
     47  C16       17.4520   28.2100    9.1920 C.ar  200  MU0200     -0.0003
     48  C21       17.4660   28.4270   10.5620 C.ar  200  MU0200     -0.0042
@<TRIPOS>BOND
     1    41    37    1
     2    41    40    1
     3    37    36    1
     4    46    47   ar
     5    46    45   ar
     6    47    48   ar
     7    36    35    1
     8    45    44   ar
     9    40    38    2
    10    48    43   ar
    11    35    38   am
    12    35    31    1
    13    38    39    2
    14    44    43   ar
    15    43    42    1
    16    30    29    2
    17    34    32    1
    18    31    32    1
    19    31    29    1
    20    32    33    1
    21    29    28   am
    22    42    27    1
    23    28    27    1
    24    27    26    1
    25     1     2    2
    26    20    19   ar
    27    20    23   ar
    28    19    18   ar
    29    26    24    1
    30     2     3    1
    31     2    15   am
    32    23    22   ar
    33    16    24    1
    34    16    15    1
    35    16    17    1
    36     8     3    1
    37     8     7    1
    38     3     4    1
    39    24    25    1
    40    18    17    1
    41    18    21   ar
    42     7     9    1
    43     7     5   am
    44    22    21   ar
    45     4     5    1
    46     9    14   ar
    47     9    10   ar
    48    14    13   ar
    49     5     6    2
    50    10    11   ar
    51    13    12   ar
    52    11    12   ar
