@<TRIPOS>MOLECULE
2q58_ZOL_A_1.pdb
 16 16 0 0 0
SMALL
GASTEIGER

@<TRIPOS>ATOM
      1  O17       -0.8300   17.1600   53.0860 O.3     1  ZOL1       -0.3552
      2  P14        0.1800   16.4930   52.2040 P.3     1  ZOL1        0.1531
      3  O16       -0.5200   15.8120   50.9330 O.2     1  ZOL1       -0.4572
      4  O15        1.0740   15.3760   52.9000 O.3     1  ZOL1       -0.3552
      5  C8         1.3910   17.7080   51.5720 C.3     1  ZOL1        0.2364
      6  P9         0.5190   19.0450   50.6880 P.3     1  ZOL1        0.1531
      7  O10        1.7030   20.0280   50.2220 O.3     1  ZOL1       -0.3552
      8  O11       -0.0860   18.3750   49.3730 O.2     1  ZOL1       -0.4572
      9  O12       -0.4720   19.7550   51.5460 O.3     1  ZOL1       -0.3552
     10  O13        2.2780   17.0460   50.6520 O.3     1  ZOL1       -0.2088
     11  C7         2.2300   18.3050   52.7600 C.3     1  ZOL1        0.1520
     12  N15        3.3720   19.1510   52.4090 N.ar    1  ZOL1       -0.3043
     13  C16        4.3110   18.8650   51.5560 C.ar    1  ZOL1        0.1787
     14  N17        5.1330   19.8090   51.5060 N.ar    1  ZOL1       -0.2223
     15  C18        4.7400   20.8590   52.4060 C.ar    1  ZOL1        0.1193
     16  C19        3.5950   20.3570   52.9070 C.ar    1  ZOL1        0.0981
@<TRIPOS>BOND
     1     8     6    2
     2     7     6    1
     3    10     5    1
     4     6     9    1
     5     6     5    1
     6     3     2    2
     7    14    13   ar
     8    14    15   ar
     9    13    12   ar
    10     5     2    1
    11     5    11    1
    12     2     4    1
    13     2     1    1
    14    15    16   ar
    15    12    11    1
    16    12    16   ar
