@<TRIPOS>MOLECULE
2q59_240_A_1.pdb
 38 41 0 0 0
SMALL
GASTEIGER

@<TRIPOS>ATOM
      1  OAD      -17.2410   21.0920  -19.7750 O.co2 5001  2405001    -0.2416
      2  CAY      -18.4460   21.2780  -19.4890 C.2   5001  2405001     0.4040
      3  OAF      -19.3740   21.0320  -20.2960 O.co2 5001  2405001    -0.2416
      4  CBJ      -18.8010   21.7960  -18.1170 C.3   5001  2405001     0.2677
      5  CAC      -18.6830   23.3160  -18.0960 C.3   5001  2405001     0.0598
      6  OAW      -17.9290   21.2430  -17.1120 O.3   5001  2405001    -0.4680
      7  CBF      -18.0000   19.9260  -16.6830 C.ar  5001  2405001     0.1355
      8  CAO      -18.7540   18.9830  -17.3890 C.ar  5001  2405001     0.0366
      9  CAK      -18.8120   17.6600  -16.9550 C.ar  5001  2405001     0.0031
     10  CAJ      -18.1110   17.2660  -15.8140 C.ar  5001  2405001    -0.0001
     11  CAN      -17.3560   18.1950  -15.1060 C.ar  5001  2405001    -0.0009
     12  CBE      -17.2990   19.5190  -15.5410 C.ar  5001  2405001     0.0162
     13  CAU      -16.4810   20.5350  -14.7840 C.3   5001  2405001     0.0569
     14  CBG      -15.5010   19.9910  -13.7590 C.ar  5001  2405001    -0.0041
     15  CBA      -14.1750   19.6020  -14.0010 C.ar  5001  2405001     0.0409
     16  CAB      -13.4870   19.6050  -15.3470 C.3   5001  2405001     0.0501
     17  CBH      -15.7310   19.8390  -12.3790 C.ar  5001  2405001     0.0167
     18  CAT      -16.8670   20.0780  -11.5960 C.ar  5001  2405001     0.0384
     19  CBC      -16.7930   19.8330  -10.2160 C.ar  5001  2405001     0.1469
     20  OAX      -17.8590   19.9850   -9.3690 O.3   5001  2405001    -0.4045
     21  CBL      -18.6660   21.1040   -9.1040 C.3   5001  2405001     0.5753
     22  FAG      -19.1530   20.8950   -7.8970 F     5001  2405001    -0.1328
     23  FAI      -17.9420   22.2090   -9.1950 F     5001  2405001    -0.1328
     24  FAH      -19.6760   21.1180   -9.9420 F     5001  2405001    -0.1328
     25  CAR      -15.6330   19.3280   -9.6350 C.ar  5001  2405001     0.0387
     26  CAS      -14.5160   19.0890  -10.4260 C.ar  5001  2405001     0.0207
     27  CBI      -14.5700   19.3440  -11.7970 C.ar  5001  2405001     0.0664
     28  NBK      -13.6980   19.2100  -12.7990 N.ar  5001  2405001    -0.2785
     29  CAZ      -12.4030   18.8200  -12.4910 C.2   5001  2405001     0.2644
     30  OAE      -12.1400   18.5000  -11.3530 O.2   5001  2405001    -0.2666
     31  CBD      -11.3330   18.3800  -13.4020 C.ar  5001  2405001     0.0567
     32  CAQ       -9.9820   18.6290  -13.5130 C.ar  5001  2405001     0.0079
     33  CAM       -9.2590   17.8560  -14.4310 C.ar  5001  2405001     0.0371
     34  CAP      -11.8700   17.2650  -14.0840 C.ar  5001  2405001     0.0079
     35  CAL      -11.1630   16.4870  -14.9970 C.ar  5001  2405001     0.0371
     36  CBB       -9.8240   16.8010  -15.1650 C.ar  5001  2405001     0.1387
     37  OAV       -9.0520   16.0840  -16.0450 O.3   5001  2405001    -0.4714
     38  CAA       -9.6450   15.3410  -17.1030 C.3   5001  2405001     0.2525
@<TRIPOS>BOND
     1     3     2   ar
     2     1     2   ar
     3     2     4    1
     4     4     5    1
     5     4     6    1
     6     8     9   ar
     7     8     7   ar
     8     6     7    1
     9    38    37    1
    10     9    10   ar
    11     7    12   ar
    12    37    36    1
    13    10    11   ar
    14    12    11   ar
    15    12    13    1
    16    16    15    1
    17    36    35   ar
    18    36    33   ar
    19    35    34   ar
    20    13    14    1
    21    33    32   ar
    22    34    31   ar
    23    15    14   ar
    24    15    28   ar
    25    14    17   ar
    26    32    31   ar
    27    31    29    1
    28    28    29   am
    29    28    27   ar
    30    29    30    2
    31    17    27   ar
    32    17    18   ar
    33    27    26   ar
    34    18    19   ar
    35    26    25   ar
    36    19    25   ar
    37    19    20    1
    38    24    21    1
    39    20    21    1
    40    23    21    1
    41    21    22    1
