@<TRIPOS>MOLECULE
2q5a_III_B_1.pdb
 48 50 0 0 0
SMALL
GASTEIGER

@<TRIPOS>ATOM
      1  N        -33.3260   32.5500   24.0380 N.3   501  PHE501     -0.1210
      2  CA       -34.3810   31.6320   23.6800 C.3   501  PHE501      0.1956
      3  C        -34.0530   30.2520   24.1950 C.2   501  PHE501      0.2613
      4  O        -32.9030   30.0020   24.5300 O.2   501  PHE501     -0.2717
      5  N        -35.0740   29.4010   24.2460 N.am  502  THR502     -0.1940
      6  CA       -34.9310   28.0240   24.7360 C.3   502  THR502      0.1987
      7  CB       -36.3200   27.4210   24.5910 C.3   502  THR502      0.1550
      8  CG2      -36.3980   26.0450   25.2470 C.3   502  THR502      0.0350
      9  OG1      -37.2880   28.2670   25.2060 O.3   502  THR502     -0.2705
     10  P        -38.4840   28.9580   24.3790 P.3   502  THR502      0.5326
     11  O1P      -39.0430   27.8870   23.4700 O.2   502  THR502     -0.2224
     12  O2P      -37.9090   30.1270   23.5890 O.3   502  THR502     -0.1145
     13  O3P      -39.4530   29.4060   25.4430 O.3   502  THR502     -0.1145
     14  C        -33.9110   27.2230   23.9620 C.2   502  THR502      0.2483
     15  O        -33.9060   27.3070   22.6300 O.2   502  THR502     -0.2729
     16  C        -31.3390   27.0200   26.3220 C.2   503  YCP503      0.2598
     17  N        -33.0560   26.3880   24.6340 N.am  503  YCP503     -0.2715
     18  O        -30.5060   26.4750   27.0380 O.2   503  YCP503     -0.2715
     19  CA       -32.6990   26.4170   26.0670 C.3   503  YCP503      0.1535
     20  CB       -32.7880   24.9620   26.5740 C.3   503  YCP503      0.0293
     21  CD       -32.3220   24.1410   24.2290 C.3   503  YCP503      0.0216
     22  CE       -32.2270   25.5850   23.7290 C.3   503  YCP503      0.0939
     23  CG       -31.9390   24.0100   25.7090 C.3   503  YCP503      0.0040
     24  C1       -30.2670   28.5030   22.5150 C.ar  504  ALA504     -0.0042
     25  C2       -29.3300   29.0850   23.3780 C.ar  504  ALA504     -0.0200
     26  C3       -27.9610   28.9510   23.1340 C.ar  504  ALA504     -0.0042
     27  C4       -27.4660   28.2570   22.0280 C.ar  504  ALA504     -0.0003
     28  C4A      -28.3510   27.6540   21.1490 C.ar  504  ALA504     -0.0000
     29  C5       -27.8900   26.9440   20.0380 C.ar  504  ALA504     -0.0000
     30  C6       -28.8270   26.3520   19.1890 C.ar  504  ALA504     -0.0000
     31  C7       -30.2030   26.4730   19.4140 C.ar  504  ALA504     -0.0000
     32  C8       -30.7040   27.1740   20.5170 C.ar  504  ALA504     -0.0000
     33  C8A      -29.8160   27.7810   21.4020 C.ar  504  ALA504     -0.0003
     34  C9       -29.7850   29.8550   24.6080 C.3   504  ALA504      0.0574
     35  CA       -29.8220   28.8910   25.8060 C.3   504  ALA504      0.1771
     36  C        -29.7270   29.6380   27.1130 C.2   504  ALA504      0.2620
     37  N        -31.0880   28.1800   25.6870 N.am  504  ALA504     -0.1960
     38  O        -30.7480   30.0260   27.6580 O.2   504  ALA504     -0.2715
     39  N        -28.5040   29.8150   27.6120 N.am  505  GLN505     -0.1963
     40  CA       -28.2780   30.5350   28.8650 C.3   505  GLN505      0.1749
     41  C        -28.5970   31.9960   28.6560 C.2   505  GLN505      0.2806
     42  O        -29.3510   32.5740   29.4220 O.2   505  GLN505     -0.2698
     43  CB       -26.8030   30.3050   29.2060 C.3   505  GLN505      0.0408
     44  CG       -26.3490   31.0360   30.4710 C.3   505  GLN505      0.0908
     45  CD       -25.7820   32.4050   30.1260 C.2   505  GLN505      0.2608
     46  OE1      -24.6830   32.5250   29.5900 O.2   505  GLN505     -0.2717
     47  NE2      -26.5320   33.4600   30.4430 N.am  505  GLN505     -0.0878
     48  N        -28.0350   32.5960   27.6080 N.am  506  NH2506     -0.0863
@<TRIPOS>BOND
     1    30    31   ar
     2    30    29   ar
     3    31    32   ar
     4    29    28   ar
     5    32    33   ar
     6    28    33   ar
     7    28    27   ar
     8    33    24   ar
     9    27    26   ar
    10    24    25   ar
    11    15    14    2
    12    26    25   ar
    13    25    34    1
    14    11    10    2
    15    12    10    1
    16     2     1    1
    17     2     3    1
    18    22    21    1
    19    22    17    1
    20    14    17   am
    21    14     6    1
    22     3     5   am
    23     3     4    2
    24    21    23    1
    25     5     6    1
    26    10     9    1
    27    10    13    1
    28     7     6    1
    29     7     9    1
    30     7     8    1
    31    34    35    1
    32    17    19    1
    33    37    35    1
    34    37    16   am
    35    23    20    1
    36    35    36    1
    37    19    16    1
    38    19    20    1
    39    16    18    2
    40    36    39   am
    41    36    38    2
    42    48    41   am
    43    39    40    1
    44    41    40    1
    45    41    42    2
    46    40    43    1
    47    43    44    1
    48    46    45    2
    49    45    47   am
    50    45    44    1
