@<TRIPOS>MOLECULE
2q5f_DTA_A_1.pdb
 38 43 0 0 0
SMALL
GASTEIGER

@<TRIPOS>ATOM
      1  N62       18.5170    3.0110    6.7820 N.pl3 273  DTA273      0.2180
      2  C62       18.7070    4.1760    7.4250 C.2   273  DTA273      0.4393
      3  N12       19.9180    4.4720    7.9150 N.2   273  DTA273      0.0021
      4  C22       20.1350    5.6080    8.5600 C.3   273  DTA273      0.5254
      5  N32       19.1940    6.5090    8.7740 N.2   273  DTA273     -0.0055
      6  C42       17.9550    6.2870    8.3220 C.2   273  DTA273      0.3518
      7  C52       17.6770    5.1120    7.6250 C.2   273  DTA273      0.2526
      8  N72       16.3870    5.1630    7.2950 N.2   273  DTA273     -0.2095
      9  C82       15.8890    6.3260    7.7500 C.3   273  DTA273      0.3377
     10  N92       16.8440    7.0170    8.3840 N.pl3 273  DTA273     -0.1439
     11  C1'       16.7160    8.3600    9.0370 C.3   273  DTA273      0.3185
     12  O4'       15.4540    8.4350    9.7610 O.3   273  DTA273     -0.3152
     13  C2'       16.6490    9.4730    7.9650 C.3   273  DTA273      0.2569
     14  O2'       17.8260   10.3000    8.0060 O.3   273  DTA273     -0.2130
     15  C3'       15.3810   10.2870    8.3580 C.3   273  DTA273      0.2168
     16  O3'       15.5870   11.7120    8.2880 O.3   273  DTA273     -0.2175
     17  C4'       15.1300    9.8450    9.8120 C.3   273  DTA273      0.1639
     18  C5'       13.6680   10.0710   10.1870 C.3   273  DTA273      0.1010
     19  S5'       13.2510    9.6460   11.9230 S.3   273  DTA273     -0.0794
     20  S5R       14.9730    9.7980   13.0270 S.3   273  DTA273     -0.0794
     21  C5R       15.4230    8.0700   13.4830 C.3   273  DTA273      0.1010
     22  C4R       16.9350    7.7930   13.6950 C.3   273  DTA273      0.1639
     23  O4R       17.6830    8.7540   12.9040 O.3   273  DTA273     -0.3152
     24  C3R       17.3930    7.9960   15.1550 C.3   273  DTA273      0.2168
     25  O3R       18.3860    7.0090   15.4890 O.3   273  DTA273     -0.2175
     26  C2R       17.9880    9.4050   15.1250 C.3   273  DTA273      0.2569
     27  O2R       18.9420    9.6570   16.1810 O.3   273  DTA273     -0.2130
     28  C1R       18.6790    9.3510   13.7790 C.3   273  DTA273      0.3185
     29  N91       18.9900   10.6730   13.1680 N.pl3 273  DTA273     -0.1439
     30  C81       18.1310   11.6280   12.8080 C.3   273  DTA273      0.3377
     31  N71       18.8070   12.6560   12.3060 N.2   273  DTA273     -0.2095
     32  C51       20.1040   12.3460   12.3280 C.2   273  DTA273      0.2526
     33  C41       20.2170   11.0790   12.8750 C.2   273  DTA273      0.3518
     34  N31       21.4260   10.5100   13.0490 N.2   273  DTA273     -0.0055
     35  C21       22.5120   11.1570   12.6610 C.3   273  DTA273      0.5254
     36  N11       22.4410   12.3630   12.1180 N.2   273  DTA273      0.0021
     37  C61       21.2710   12.9950   11.9380 C.2   273  DTA273      0.4393
     38  N61       21.2420   14.2090   11.3910 N.pl3 273  DTA273      0.2180
@<TRIPOS>BOND
     1     1     2    1
     2     8     7    2
     3     8     9    1
     4     2     7    1
     5     2     3    2
     6     7     6    1
     7     9    10    1
     8     3     4    1
     9    13    14    1
    10    13    15    1
    11    13    11    1
    12    16    15    1
    13     6    10    1
    14     6     5    2
    15    15    17    1
    16    10    11    1
    17     4     5    1
    18    11    12    1
    19    12    17    1
    20    17    18    1
    21    18    19    1
    22    38    37    1
    23    19    20    1
    24    37    36    2
    25    37    32    1
    26    36    35    1
    27    31    32    2
    28    31    30    1
    29    32    33    1
    30    35    34    1
    31    30    29    1
    32    33    34    2
    33    33    29    1
    34    23    22    1
    35    23    28    1
    36    20    21    1
    37    29    28    1
    38    21    22    1
    39    22    24    1
    40    28    26    1
    41    26    24    1
    42    26    27    1
    43    24    25    1
