@<TRIPOS>MOLECULE
2q5g_1FA_A_1.pdb
 42 46 0 0 0
SMALL
GASTEIGER

@<TRIPOS>ATOM
      1  F25      -11.0060   -6.0790   43.0630 F     501  1FA501     -0.1659
      2  C24      -11.9530   -6.4730   42.2450 C.3   501  1FA501      0.4186
      3  F27      -13.1200   -5.9020   42.5260 F     501  1FA501     -0.1659
      4  F26      -12.0480   -7.7740   42.4750 F     501  1FA501     -0.1659
      5  C21      -11.4990   -6.0500   40.8560 C.ar  501  1FA501      0.0715
      6  C22      -10.7620   -6.9070   40.0400 C.ar  501  1FA501      0.0045
      7  C23      -10.3420   -6.4990   38.7800 C.ar  501  1FA501      0.0082
      8  C20      -11.7850   -4.7620   40.3960 C.ar  501  1FA501      0.0045
      9  C19      -11.3560   -4.3440   39.1320 C.ar  501  1FA501      0.0082
     10  C18      -10.6300   -5.2150   38.3120 C.ar  501  1FA501      0.0420
     11  C17      -10.2270   -4.8450   37.1400 C.1   501  1FA501     -0.0576
     12  C16       -9.9240   -4.4640   36.0500 C.1   501  1FA501     -0.0319
     13  C3        -9.5940   -3.8930   34.9270 C.2   501  1FA501      0.1561
     14  C4        -9.7090   -4.6070   33.7290 C.3   501  1FA501      0.1007
     15  N2        -9.1730   -2.5870   34.8980 N.2   501  1FA501     -0.3894
     16  C1        -8.8510   -1.9780   33.7170 C.2   501  1FA501      0.1734
     17  C7        -8.4530   -0.7530   33.6740 C.1   501  1FA501     -0.0311
     18  C8        -8.0740    0.3700   33.6340 C.1   501  1FA501     -0.0660
     19  C9        -7.6730    1.6080   33.6650 C.3   501  1FA501      0.1503
     20  N10       -7.0300    2.1230   32.4440 N.3   501  1FA501     -0.2572
     21  C11       -5.5920    1.9860   32.2570 C.3   501  1FA501      0.1054
     22  C12       -5.0740    3.4240   32.1570 C.3   501  1FA501      0.1595
     23  O13       -5.8590    4.2370   31.2520 O.3   501  1FA501     -0.3508
     24  C14       -7.2770    4.2530   31.5060 C.3   501  1FA501      0.1595
     25  C15       -7.8250    2.8290   31.4440 C.3   501  1FA501      0.1054
     26  C6        -8.9420   -2.6700   32.5130 C.2   501  1FA501      0.0433
     27  C5        -9.3700   -3.9860   32.5130 C.2   501  1FA501      0.0182
     28  S28       -9.4970   -4.7990   31.0270 S.3   501  1FA501     -0.0911
     29  C29      -10.5990   -6.0570   31.2710 C.ar  501  1FA501      0.0251
     30  C30      -11.9680   -5.9160   31.0070 C.ar  501  1FA501      0.0092
     31  C31      -12.8750   -6.9600   31.2460 C.ar  501  1FA501      0.0371
     32  C34      -10.1010   -7.3410   31.8210 C.ar  501  1FA501     -0.0172
     33  C35       -8.6990   -7.7210   32.2030 C.3   501  1FA501      0.0270
     34  C36       -8.8890   -9.2410   32.3130 C.3   501  1FA501      0.0095
     35  C37      -10.3460   -9.6210   32.6280 C.3   501  1FA501      0.0295
     36  C33      -11.0420   -8.4170   32.0670 C.ar  501  1FA501      0.0083
     37  C32      -12.4790   -8.2180   31.7560 C.ar  501  1FA501      0.1351
     38  O38      -13.3820   -9.2450   32.0090 O.3   501  1FA501     -0.4641
     39  C39      -14.0510   -9.9960   30.9990 C.3   501  1FA501      0.3186
     40  C40      -14.9210   -9.0440   30.2280 C.2   501  1FA501      0.4084
     41  O42      -14.5640   -8.6390   29.0860 O.co2 501  1FA501     -0.2415
     42  O41      -15.9590   -8.6830   30.8160 O.co2 501  1FA501     -0.2415
@<TRIPOS>BOND
     1    41    40   ar
     2    40    42   ar
     3    40    39    1
     4    39    38    1
     5    30    31   ar
     6    30    29   ar
     7    28    29    1
     8    28    27    1
     9    31    37   ar
    10    23    24    1
    11    23    22    1
    12    29    32   ar
    13    25    24    1
    14    25    20    1
    15    37    38    1
    16    37    36   ar
    17    32    36   ar
    18    32    33    1
    19    36    35    1
    20    22    21    1
    21    33    34    1
    22    21    20    1
    23    34    35    1
    24    20    19    1
    25    26    27    2
    26    26    16    1
    27    27    14    1
    28    18    19    1
    29    18    17    3
    30    17    16    1
    31    16    15    2
    32    14    13    1
    33    15    13    2
    34    13    12    1
    35    12    11    3
    36    11    10    1
    37    10     7   ar
    38    10     9   ar
    39     7     6   ar
    40     9     8   ar
    41     6     5   ar
    42     8     5   ar
    43     5     2    1
    44     2     4    1
    45     2     3    1
    46     2     1    1
