@<TRIPOS>MOLECULE
2q5j_TPW_A_1.pdb
 26 27 0 0 0
SMALL
GASTEIGER

@<TRIPOS>ATOM
      1  C2A      -22.0720   10.9860  -19.4890 C.3   1002  TPW1002     0.1291
      2  C35      -19.4910    7.2490  -15.7730 C.3   1002  TPW1002     0.0585
      3  C2       -20.1740    4.8750  -15.8360 C.ar  1002  TPW1002     0.0309
      4  S1       -21.3070    3.8700  -14.9940 S.2   1002  TPW1002    -0.0913
      5  C5       -22.0360    5.1030  -13.9120 C.ar  1002  TPW1002     0.0056
      6  C4       -21.3220    6.2190  -14.2560 C.ar  1002  TPW1002    -0.0229
      7  C4A      -21.5720    7.5490  -13.5470 C.3   1002  TPW1002     0.0309
      8  C5A      -23.1240    4.9000  -12.8770 C.3   1002  TPW1002     0.0651
      9  C5B      -24.4990    4.8110  -13.5570 C.3   1002  TPW1002     0.1543
     10  O5G      -25.5400    4.7090  -12.5430 O.3   1002  TPW1002    -0.3134
     11  P1       -26.8900    4.1630  -13.2700 P.3   1002  TPW1002     0.2230
     12  O11      -26.8590    2.5630  -13.5990 O.3   1002  TPW1002    -0.2261
     13  O12      -27.1300    4.8780  -14.5510 O.2   1002  TPW1002    -0.5169
     14  O13      -28.1140    4.4310  -12.2890 O.3   1002  TPW1002    -0.4370
     15  P2       -26.2200    1.6960  -12.3960 P.3   1002  TPW1002     0.5373
     16  O21      -24.7410    1.9690  -12.2310 O.3   1002  TPW1002    -0.1143
     17  O22      -26.9380    2.0160  -11.0760 O.3   1002  TPW1002    -0.1143
     18  O23      -26.4000    0.1420  -12.7860 O.2   1002  TPW1002    -0.2221
     19  N1'      -20.9800   10.4110  -17.3520 N.2   1002  TPW1002    -0.1862
     20  C2'      -21.4090    9.9900  -18.5600 C.1   1002  TPW1002     0.0663
     21  N3'      -21.2500    8.6950  -18.9530 N.2   1002  TPW1002    -0.3369
     22  C4'      -20.6460    7.7720  -18.1280 C.2   1002  TPW1002     0.2279
     23  N4'      -20.4500    6.4990  -18.5760 N.pl3 1002  TPW1002    -0.0925
     24  C5'      -20.2050    8.1910  -16.7980 C.2   1002  TPW1002     0.0499
     25  C6'      -20.3980    9.5590  -16.4660 C.2   1002  TPW1002     0.1102
     26  C3       -20.3670    6.0730  -15.2820 C.ar  1002  TPW1002    -0.0149
@<TRIPOS>BOND
     1     1    20    1
     2    21    20    2
     3    21    22    2
     4    23    22    1
     5    20    19    2
     6    22    24    1
     7    19    25    1
     8    24    25    2
     9    24     2    1
    10     3    26   ar
    11     3     4   ar
    12     2    26    1
    13    26     6   ar
    14     4     5   ar
    15    13    11    2
    16     6     5   ar
    17     6     7    1
    18     5     8    1
    19    12    11    1
    20    12    15    1
    21     9     8    1
    22     9    10    1
    23    11    10    1
    24    11    14    1
    25    18    15    2
    26    15    16    1
    27    15    17    1
