@<TRIPOS>MOLECULE
2q5k_AB1_A_1.pdb
 46 49 0 0 0
SMALL
GASTEIGER

@<TRIPOS>ATOM
      1  C1        22.7850   24.6920    7.6740 C.3   201  AB1201      0.1409
      2  C2        22.8720   26.9600    8.6950 C.3   201  AB1201      0.1053
      3  N1        22.8430   26.2470    9.9800 N.am  201  AB1201     -0.2295
      4  C3        22.6460   24.9220   10.1120 C.1   201  AB1201      0.2113
      5  N2        22.5750   24.1700    9.0120 N.2   201  AB1201     -0.1900
      6  C4        22.2230   32.6130   15.1280 C.ar  201  AB1201     -0.0204
      7  C5        22.0280   33.4870   16.1990 C.ar  201  AB1201     -0.0042
      8  C6        22.2160   34.8690   16.0550 C.ar  201  AB1201     -0.0003
      9  C7        22.6080   35.3800   14.8310 C.ar  201  AB1201     -0.0000
     10  C8        22.8160   34.5020   13.7580 C.ar  201  AB1201     -0.0003
     11  C9        22.6240   33.1250   13.8940 C.ar  201  AB1201     -0.0042
     12  O1        22.5470   24.3900   11.2140 O.2   201  AB1201     -0.2063
     13  C10       22.9900   27.1020   11.1820 C.3   201  AB1201      0.1614
     14  C11       21.7670   27.9750   11.3490 C.2   201  AB1201      0.2600
     15  N3        20.8990   27.5420   12.2660 N.am  201  AB1201     -0.2054
     16  C12       19.6460   28.2150   12.5740 C.3   201  AB1201      0.1023
     17  C13       24.3250   27.8640   11.1850 C.3   201  AB1201      0.0278
     18  C14       24.4610   28.7190   12.4490 C.3   201  AB1201      0.0022
     19  C15       25.5050   26.8940   11.0710 C.3   201  AB1201      0.0022
     20  O2        21.5840   28.9760   10.6680 O.2   201  AB1201     -0.2715
     21  C16       17.8410   27.5710    8.3780 C.ar  201  AB1201     -0.0003
     22  C17       18.4630   26.4140    7.9150 C.ar  201  AB1201     -0.0000
     23  C18       19.0920   25.5610    8.8140 C.ar  201  AB1201     -0.0003
     24  C19       19.0850   25.8600   10.1690 C.ar  201  AB1201     -0.0042
     25  C20       18.4880   27.0370   10.6270 C.ar  201  AB1201     -0.0205
     26  C21       17.8540   27.8790    9.7300 C.ar  201  AB1201     -0.0042
     27  C22       18.4610   27.3660   12.0980 C.3   201  AB1201      0.0481
     28  C23       19.4440   28.4370   14.0760 C.3   201  AB1201      0.0567
     29  C24       20.6100   29.1040   14.8020 C.3   201  AB1201      0.1738
     30  C25       20.7920   30.6000   14.5020 C.3   201  AB1201      0.1300
     31  N4        19.5940   31.3660   14.8060 N.am  201  AB1201     -0.2011
     32  C26       18.7790   31.8830   13.8680 C.2   201  AB1201      0.2859
     33  C27       17.5640   32.6660   14.3130 C.3   201  AB1201      0.2911
     34  O3        17.3860   32.6890   15.7200 O.3   201  AB1201     -0.4662
     35  C28       16.6480   33.6960   16.2900 C.ar  201  AB1201      0.1312
     36  O4        20.4030   28.9020   16.2120 O.3   201  AB1201     -0.2212
     37  C29       21.9980   31.1230   15.3060 C.3   201  AB1201      0.0506
     38  O5        18.9350   31.7700   12.6620 O.2   201  AB1201     -0.2693
     39  C30       15.2580   33.6350   16.2760 C.ar  201  AB1201      0.0118
     40  C31       14.5200   34.6650   16.8560 C.ar  201  AB1201     -0.0013
     41  C32       15.1560   35.7480   17.4580 C.ar  201  AB1201     -0.0004
     42  C33       16.5400   35.8040   17.4710 C.ar  201  AB1201     -0.0013
     43  C34       17.2900   34.7730   16.8980 C.ar  201  AB1201      0.0118
     44  C35       18.7990   34.8370   16.9370 C.3   201  AB1201      0.0342
     45  C36       14.5440   32.4870   15.6100 C.3   201  AB1201      0.0342
     46  C37       23.5400   26.0140    7.7090 C.3   201  AB1201      0.0495
@<TRIPOS>BOND
     1     1    46    1
     2     1     5    1
     3    46     2    1
     4    22    21   ar
     5    22    23   ar
     6    21    26   ar
     7     2     3    1
     8    23    24   ar
     9     5     4    2
    10    26    25   ar
    11     3     4   am
    12     3    13    1
    13     4    12    2
    14    24    25   ar
    15    25    27    1
    16    20    14    2
    17    19    17    1
    18    13    17    1
    19    13    14    1
    20    17    18    1
    21    14    15   am
    22    27    16    1
    23    15    16    1
    24    16    28    1
    25    38    32    2
    26    10    11   ar
    27    10     9   ar
    28    32    33    1
    29    32    31   am
    30    11     6   ar
    31    28    29    1
    32    33    34    1
    33    30    29    1
    34    30    31    1
    35    30    37    1
    36    29    36    1
    37     9     8   ar
    38     6    37    1
    39     6     7   ar
    40    45    39    1
    41    34    35    1
    42     8     7   ar
    43    39    35   ar
    44    39    40   ar
    45    35    43   ar
    46    40    41   ar
    47    43    44    1
    48    43    42   ar
    49    41    42   ar
