@<TRIPOS>MOLECULE
2q5l_S1T_A_1.pdb
 29 30 0 0 0
SMALL
GASTEIGER

@<TRIPOS>ATOM
      1  N1'      -20.7080  -10.2340   17.3260 N.2   2002  S1T2002    -0.1862
      2  C2'      -21.1550   -9.8000   18.5180 C.1   2002  S1T2002     0.0663
      3  CM2      -21.8300  -10.7760   19.4490 C.3   2002  S1T2002     0.1291
      4  N3'      -21.0090   -8.5110   18.8910 N.2   2002  S1T2002    -0.3369
      5  C4'      -20.3960   -7.5790   18.0490 C.2   2002  S1T2002     0.2279
      6  N4'      -20.2620   -6.2800   18.4590 N.pl3 2002  S1T2002    -0.0925
      7  C5'      -19.9160   -8.0190   16.7480 C.2   2002  S1T2002     0.0499
      8  C6'      -20.0950   -9.3890   16.4400 C.2   2002  S1T2002     0.1102
      9  C7'      -19.1950   -7.0990   15.7010 C.3   2002  S1T2002     0.0583
     10  C3       -20.0750   -5.9160   15.1640 C.ar  2002  S1T2002    -0.0170
     11  C2       -19.8590   -4.5850   15.5260 C.ar  2002  S1T2002     0.0330
     12  S1       -21.0430   -3.7070   14.7220 S.2   2002  S1T2002    -0.0937
     13  C5       -21.8360   -5.0170   13.8400 C.ar  2002  S1T2002     0.0053
     14  C4       -21.1000   -6.1380   14.2250 C.ar  2002  S1T2002    -0.0232
     15  CM4      -21.4260   -7.5400   13.6390 C.3   2002  S1T2002     0.0309
     16  C6       -22.9630   -4.8700   12.8960 C.3   2002  S1T2002     0.0651
     17  C7       -24.3030   -4.6990   13.6330 C.3   2002  S1T2002     0.1543
     18  O7       -25.2940   -4.7340   12.6220 O.3   2002  S1T2002    -0.3134
     19  PA       -26.6790   -4.0940   13.1410 P.3   2002  S1T2002     0.2230
     20  O1A      -27.2190   -4.8080   14.3330 O.3   2002  S1T2002    -0.4370
     21  O2A      -27.6900   -4.2600   11.9410 O.2   2002  S1T2002    -0.5169
     22  O3A      -26.5830   -2.5120   13.5060 O.3   2002  S1T2002    -0.2261
     23  PB       -25.8040   -1.5540   12.4150 P.3   2002  S1T2002     0.5373
     24  O1B      -26.3470   -1.8150   10.9920 O.2   2002  S1T2002    -0.2221
     25  O2B      -26.1030   -0.0730   12.8580 O.3   2002  S1T2002    -0.1143
     26  O3B      -24.2720   -1.7600   12.4460 O.3   2002  S1T2002    -0.1143
     27  CP1      -18.7920   -3.9010   16.4090 C.3   2002  S1T2002     0.1799
     28  CP2      -17.3630   -4.2430   15.9670 C.3   2002  S1T2002     0.0410
     29  OP1      -19.0270   -4.0790   17.7840 O.3   2002  S1T2002    -0.2178
@<TRIPOS>BOND
     1    24    23    2
     2    21    19    2
     3    23    26    1
     4    23    25    1
     5    23    22    1
     6    18    19    1
     7    18    17    1
     8    16    17    1
     9    16    13    1
    10    19    22    1
    11    19    20    1
    12    15    14    1
    13    13    14   ar
    14    13    12   ar
    15    14    10   ar
    16    12    11   ar
    17    10    11   ar
    18    10     9    1
    19    11    27    1
    20     9     7    1
    21    28    27    1
    22    27    29    1
    23     8     7    2
    24     8     1    1
    25     7     5    1
    26     1     2    2
    27     5     6    1
    28     5     4    2
    29     2     4    2
    30     2     3    1
