@<TRIPOS>MOLECULE
2q5l_R1T_A_1.pdb
 29 30 0 0 0
SMALL
GASTEIGER

@<TRIPOS>ATOM
      1  N1'      -20.8480  -10.3870   17.2970 N.2   2004  R1T2004    -0.1862
      2  C2'      -21.3100   -9.9700   18.4880 C.1   2004  R1T2004     0.0663
      3  CM2      -22.0180  -10.9490   19.3850 C.3   2004  R1T2004     0.1291
      4  N3'      -21.1460   -8.6960   18.8910 N.2   2004  R1T2004    -0.3369
      5  C4'      -20.4980   -7.7650   18.0870 C.2   2004  R1T2004     0.2279
      6  N4'      -20.3510   -6.4880   18.5350 N.pl3 2004  R1T2004    -0.0925
      7  C5'      -19.9910   -8.1880   16.7820 C.2   2004  R1T2004     0.0499
      8  C6'      -20.1940   -9.5410   16.4430 C.2   2004  R1T2004     0.1102
      9  C7'      -19.2050   -7.2730   15.7760 C.3   2004  R1T2004     0.0583
     10  C3       -19.9930   -6.0280   15.2530 C.ar  2004  R1T2004    -0.0170
     11  C2       -19.6980   -4.7750   15.6900 C.ar  2004  R1T2004     0.0330
     12  S1       -20.7350   -3.7320   14.8160 S.2   2004  R1T2004    -0.0937
     13  C5       -21.6160   -4.9350   13.8690 C.ar  2004  R1T2004     0.0053
     14  C4       -20.9910   -6.1360   14.2580 C.ar  2004  R1T2004    -0.0232
     15  CM4      -21.3960   -7.4870   13.6200 C.3   2004  R1T2004     0.0309
     16  C6       -22.7020   -4.6540   12.8760 C.3   2004  R1T2004     0.0651
     17  C7       -24.0740   -4.5540   13.5750 C.3   2004  R1T2004     0.1543
     18  O7       -25.0420   -4.4790   12.5400 O.3   2004  R1T2004    -0.3134
     19  PA       -26.4800   -4.0300   13.1220 P.3   2004  R1T2004     0.2230
     20  O1A      -26.9080   -4.8840   14.2740 O.3   2004  R1T2004    -0.4370
     21  O2A      -27.5060   -4.2420   11.9370 O.2   2004  R1T2004    -0.5169
     22  O3A      -26.5460   -2.4770   13.5960 O.3   2004  R1T2004    -0.2261
     23  PB       -25.9170   -1.3480   12.5410 P.3   2004  R1T2004     0.5373
     24  O1B      -26.4210   -1.6220   11.1020 O.2   2004  R1T2004    -0.2221
     25  O2B      -26.4390    0.0470   13.0630 O.3   2004  R1T2004    -0.1143
     26  O3B      -24.3770   -1.3260   12.5730 O.3   2004  R1T2004    -0.1143
     27  CP1      -18.6010   -4.3070   16.6760 C.3   2004  R1T2004     0.1799
     28  CP2      -18.2240   -2.8280   16.3830 C.3   2004  R1T2004     0.0410
     29  OP1      -19.0230   -4.4750   18.0100 O.3   2004  R1T2004    -0.2178
@<TRIPOS>BOND
     1    24    23    2
     2    21    19    2
     3    18    19    1
     4    18    17    1
     5    23    26    1
     6    23    25    1
     7    23    22    1
     8    16    17    1
     9    16    13    1
    10    19    22    1
    11    19    20    1
    12    15    14    1
    13    13    14   ar
    14    13    12   ar
    15    14    10   ar
    16    12    11   ar
    17    10    11   ar
    18    10     9    1
    19    11    27    1
    20     9     7    1
    21    28    27    1
    22     8     7    2
    23     8     1    1
    24    27    29    1
    25     7     5    1
    26     1     2    2
    27     5     6    1
    28     5     4    2
    29     2     4    2
    30     2     3    1
