@<TRIPOS>MOLECULE
2q5o_PPY_A_1.pdb
 12 12 0 0 0
SMALL
GASTEIGER

@<TRIPOS>ATOM
      1  C1       -32.8340   14.3060   25.7450 C.2   5001  PPY5001     0.4222
      2  O1       -32.3420   13.1070   25.3820 O.co2 5001  PPY5001    -0.2373
      3  O2       -34.0120   14.4260   26.0180 O.co2 5001  PPY5001    -0.2373
      4  C2       -31.9100   15.4720   25.8390 C.2   5001  PPY5001     0.2564
      5  O3       -30.7250   15.3190   25.6160 O.2   5001  PPY5001    -0.2839
      6  C3       -32.4300   16.8310   26.2350 C.3   5001  PPY5001     0.1025
      7  C1'      -32.3900   17.8220   25.1230 C.ar  5001  PPY5001    -0.0142
      8  C2'      -33.5330   18.0080   24.3070 C.ar  5001  PPY5001    -0.0038
      9  C3'      -33.4890   18.9440   23.2490 C.ar  5001  PPY5001    -0.0003
     10  C4'      -32.3050   19.6850   23.0130 C.ar  5001  PPY5001    -0.0000
     11  C5'      -31.1700   19.4940   23.8330 C.ar  5001  PPY5001    -0.0003
     12  C6'      -31.2090   18.5660   24.8860 C.ar  5001  PPY5001    -0.0038
@<TRIPOS>BOND
     1    10     9   ar
     2    10    11   ar
     3     9     8   ar
     4    11    12   ar
     5     8     7   ar
     6    12     7   ar
     7     7     6    1
     8     2     1   ar
     9     5     4    2
    10     1     4    1
    11     1     3   ar
    12     4     6    1
