@<TRIPOS>MOLECULE
2q5o_TPW_A_1.pdb
 26 27 0 0 0
SMALL
GASTEIGER

@<TRIPOS>ATOM
      1  C2A      -14.6610   -2.9720   29.0960 C.3   2002  TPW2002     0.1291
      2  C35       -9.4090   -5.4180   29.9040 C.3   2002  TPW2002     0.0585
      3  C2        -9.3590   -7.5780   31.1200 C.ar  2002  TPW2002     0.0309
      4  S1        -9.1580   -8.1400   32.7430 S.2   2002  TPW2002    -0.0913
      5  C5        -8.9940   -6.5780   33.5830 C.ar  2002  TPW2002     0.0056
      6  C4        -9.1000   -5.6830   32.5100 C.ar  2002  TPW2002    -0.0229
      7  C4A       -9.0160   -4.1720   32.7290 C.3   2002  TPW2002     0.0309
      8  C5A       -8.7470   -6.3670   35.0550 C.3   2002  TPW2002     0.0651
      9  C5B      -10.0160   -6.5870   35.8800 C.3   2002  TPW2002     0.1543
     10  O5G       -9.7250   -6.2720   37.2580 O.3   2002  TPW2002    -0.3134
     11  P1       -10.9090   -6.8150   38.1920 P.3   2002  TPW2002     0.2230
     12  O11      -10.8560   -8.4520   38.4600 O.3   2002  TPW2002    -0.2261
     13  O12      -12.2380   -6.4890   37.5910 O.2   2002  TPW2002    -0.5169
     14  O13      -10.7850   -6.0560   39.6080 O.3   2002  TPW2002    -0.4370
     15  P2        -9.3370   -9.0470   38.6250 P.3   2002  TPW2002     0.5373
     16  O21       -8.5630   -8.9920   37.3000 O.2   2002  TPW2002    -0.2221
     17  O22       -8.5660   -8.2620   39.7110 O.3   2002  TPW2002    -0.1143
     18  O23       -9.4610  -10.5710   39.0510 O.3   2002  TPW2002    -0.1143
     19  N1'      -12.2340   -2.8710   29.4620 N.2   2002  TPW2002    -0.1862
     20  C2'      -13.3220   -3.6360   29.2920 C.1   2002  TPW2002     0.0663
     21  N3'      -13.2390   -4.9840   29.2870 N.2   2002  TPW2002    -0.3369
     22  C4'      -12.0420   -5.6220   29.4460 C.2   2002  TPW2002     0.2279
     23  N4'      -11.9940   -7.0020   29.3920 N.pl3 2002  TPW2002    -0.0925
     24  C5'      -10.8360   -4.8160   29.6670 C.2   2002  TPW2002     0.0499
     25  C6'      -11.0040   -3.4140   29.6520 C.2   2002  TPW2002     0.1102
     26  C3        -9.2940   -6.2620   31.2250 C.ar  2002  TPW2002    -0.0149
@<TRIPOS>BOND
     1     1    20    1
     2    21    20    2
     3    21    22    2
     4    20    19    2
     5    23    22    1
     6    22    24    1
     7    19    25    1
     8    25    24    2
     9    24     2    1
    10     2    26    1
    11     3    26   ar
    12     3     4   ar
    13    26     6   ar
    14     6     7    1
    15     6     5   ar
    16     4     5   ar
    17     5     8    1
    18     8     9    1
    19     9    10    1
    20    10    11    1
    21    16    15    2
    22    13    11    2
    23    11    12    1
    24    11    14    1
    25    12    15    1
    26    15    18    1
    27    15    17    1
