@<TRIPOS>MOLECULE
2q5p_241_A_1.pdb
 38 41 0 0 0
SMALL
GASTEIGER

@<TRIPOS>ATOM
      1  CAA       -3.7760   56.8650   74.4910 C.3   5001  2415001     0.2525
      2  OAV       -2.6130   56.2080   73.9950 O.3   5001  2415001    -0.4714
      3  CBC       -2.0210   56.9200   72.9950 C.ar  5001  2415001     0.1387
      4  CAM       -0.7610   56.5640   72.4990 C.ar  5001  2415001     0.0371
      5  CAO       -0.1810   57.3040   71.4670 C.ar  5001  2415001     0.0079
      6  CAN       -2.6920   58.0080   72.4390 C.ar  5001  2415001     0.0371
      7  CAP       -2.1050   58.7420   71.4140 C.ar  5001  2415001     0.0079
      8  CBF       -0.8520   58.4030   70.9210 C.ar  5001  2415001     0.0567
      9  CAZ       -0.2870   59.2910   69.7910 C.2   5001  2415001     0.2644
     10  OAE       -1.0780   59.8330   69.0220 O.2   5001  2415001    -0.2666
     11  NBK        1.0440   59.5190   69.6560 N.ar  5001  2415001    -0.2785
     12  CBB        1.7180   59.6520   68.5010 C.ar  5001  2415001     0.0409
     13  CAB        1.1310   59.5640   67.0870 C.3   5001  2415001     0.0501
     14  CBI        1.8980   59.6630   70.6820 C.ar  5001  2415001     0.0664
     15  CAR        1.7190   59.6300   72.0690 C.ar  5001  2415001     0.0207
     16  CAQ        2.7960   59.8040   72.9260 C.ar  5001  2415001     0.0387
     17  CBE        4.0680   60.0150   72.4060 C.ar  5001  2415001     0.1469
     18  OAX        5.1180   60.1980   73.2580 O.3   5001  2415001    -0.4045
     19  CBL        5.8530   58.9990   73.6270 C.3   5001  2415001     0.5753
     20  FAI        5.0830   58.1050   74.2560 F     5001  2415001    -0.1328
     21  FAG        6.3390   58.4650   72.5150 F     5001  2415001    -0.1328
     22  FAH        6.8590   59.3310   74.4540 F     5001  2415001    -0.1328
     23  CAT        4.2540   60.0620   71.0220 C.ar  5001  2415001     0.0384
     24  CBH        3.1740   59.8860   70.1570 C.ar  5001  2415001     0.0167
     25  CBG        3.0620   59.8920   68.7670 C.ar  5001  2415001    -0.0042
     26  CAU        4.2040   60.0690   67.7360 C.3   5001  2415001     0.0539
     27  CBA        4.5070   61.5130   67.2760 C.ar  5001  2415001    -0.0147
     28  CAS        3.6480   62.6020   67.4840 C.ar  5001  2415001     0.0330
     29  CAK        5.7150   61.7090   66.5980 C.ar  5001  2415001    -0.0037
     30  CAJ        6.0730   62.9730   66.1370 C.ar  5001  2415001     0.0028
     31  CAL        5.2170   64.0550   66.3520 C.ar  5001  2415001     0.0369
     32  CBD        3.9970   63.8770   67.0080 C.ar  5001  2415001     0.1389
     33  OAW        3.2010   64.9770   67.2130 O.3   5001  2415001    -0.4677
     34  CBJ        2.1010   65.3790   66.3100 C.3   5001  2415001     0.2677
     35  CAC        2.5390   65.6400   64.8500 C.3   5001  2415001     0.0598
     36  CAY        0.8690   64.4440   66.4360 C.2   5001  2415001     0.4040
     37  OAD       -0.2160   64.9530   66.7980 O.co2 5001  2415001    -0.2416
     38  OAF        1.0070   63.2300   66.1930 O.co2 5001  2415001    -0.2416
@<TRIPOS>BOND
     1    35    34    1
     2    30    31   ar
     3    30    29   ar
     4    38    36   ar
     5    34    36    1
     6    34    33    1
     7    31    32   ar
     8    36    37   ar
     9    29    27   ar
    10    32    33    1
    11    32    28   ar
    12    13    12    1
    13    27    28   ar
    14    27    26    1
    15    26    25    1
    16    12    25   ar
    17    12    11   ar
    18    25    24   ar
    19    10     9    2
    20    11     9   am
    21    11    14   ar
    22     9     8    1
    23    24    14   ar
    24    24    23   ar
    25    14    15   ar
    26     8     7   ar
    27     8     5   ar
    28    23    17   ar
    29     7     6   ar
    30     5     4   ar
    31    15    16   ar
    32    17    16   ar
    33    17    18    1
    34     6     3   ar
    35     4     3   ar
    36    21    19    1
    37     3     2    1
    38    18    19    1
    39    19    20    1
    40    19    22    1
    41     2     1    1
