@<TRIPOS>MOLECULE
2q5q_TPW_A_1.pdb
 26 27 0 0 0
SMALL
GASTEIGER

@<TRIPOS>ATOM
      1  C2A       22.5130   69.4530   29.0710 C.3   2002  TPW2002     0.1291
      2  C35       27.8370   67.1020   29.6150 C.3   2002  TPW2002     0.0585
      3  C2        27.8680   64.9200   30.8540 C.ar  2002  TPW2002     0.0309
      4  S1        28.0900   64.3810   32.4910 S.2   2002  TPW2002    -0.0913
      5  C5        28.2810   65.9450   33.2810 C.ar  2002  TPW2002     0.0056
      6  C4        28.1730   66.8360   32.1990 C.ar  2002  TPW2002    -0.0229
      7  C4A       28.2660   68.3570   32.3990 C.3   2002  TPW2002     0.0309
      8  C5A       28.5070   66.1670   34.7220 C.3   2002  TPW2002     0.0651
      9  C5B       27.2680   65.8230   35.5190 C.3   2002  TPW2002     0.1543
     10  O5G       27.5440   66.2050   36.8570 O.3   2002  TPW2002    -0.3134
     11  P1        26.4560   65.6420   37.8590 P.3   2002  TPW2002     0.2230
     12  O11       26.5120   64.0080   38.0970 O.3   2002  TPW2002    -0.2261
     13  O12       25.0330   65.9890   37.4310 O.2   2002  TPW2002    -0.5169
     14  O13       26.7150   66.3440   39.2120 O.3   2002  TPW2002    -0.4370
     15  P2        28.0350   63.3890   38.2700 P.3   2002  TPW2002     0.5373
     16  O21       28.8030   63.3820   36.9890 O.2   2002  TPW2002    -0.2221
     17  O22       28.7930   64.2220   39.3410 O.3   2002  TPW2002    -0.1143
     18  O23       27.8310   61.8910   38.7430 O.3   2002  TPW2002    -0.1143
     19  N1'       24.9620   69.6390   29.3230 N.2   2002  TPW2002    -0.1862
     20  C2'       23.8840   68.8400   29.1870 C.1   2002  TPW2002     0.0663
     21  N3'       24.0100   67.5060   29.1500 N.2   2002  TPW2002    -0.3369
     22  C4'       25.2170   66.8930   29.2460 C.2   2002  TPW2002     0.2279
     23  N4'       25.2840   65.5070   29.1710 N.pl3 2002  TPW2002    -0.0925
     24  C5'       26.4080   67.7060   29.4350 C.2   2002  TPW2002     0.0499
     25  C6'       26.2250   69.1090   29.4560 C.2   2002  TPW2002     0.1102
     26  C3        27.9590   66.2540   30.9410 C.ar  2002  TPW2002    -0.0149
@<TRIPOS>BOND
     1     1    20    1
     2    21    20    2
     3    21    22    2
     4    23    22    1
     5    20    19    2
     6    22    24    1
     7    19    25    1
     8    24    25    2
     9    24     2    1
    10     2    26    1
    11     3    26   ar
    12     3     4   ar
    13    26     6   ar
    14     6     7    1
    15     6     5   ar
    16     4     5   ar
    17     5     8    1
    18     8     9    1
    19     9    10    1
    20    10    11    1
    21    16    15    2
    22    13    11    2
    23    11    12    1
    24    11    14    1
    25    12    15    1
    26    15    18    1
    27    15    17    1
