@<TRIPOS>MOLECULE
2q5q_KPV_A_1.pdb
 14 14 0 0 0
SMALL
GASTEIGER

@<TRIPOS>ATOM
      1  C1         4.5010   91.9570   24.1120 C.ar  5001  KPV5001    -0.0222
      2  C2         3.1040   91.6900   24.0500 C.ar  5001  KPV5001    -0.0043
      3  C3         2.3760   91.9810   22.8760 C.ar  5001  KPV5001    -0.0003
      4  C4         3.0390   92.5410   21.7570 C.ar  5001  KPV5001    -0.0000
      5  C5         4.4250   92.8050   21.8140 C.ar  5001  KPV5001    -0.0003
      6  C6         5.1590   92.5130   22.9910 C.ar  5001  KPV5001    -0.0043
      7  C7         5.2820   91.6500   25.3750 C.3   5001  KPV5001     0.0268
      8  C8         5.9430   90.2720   25.4010 C.3   5001  KPV5001     0.0130
      9  C9         4.9780   89.2640   26.0340 C.3   5001  KPV5001     0.0766
     10  C10        5.5220   87.8650   25.8660 C.2   5001  KPV5001     0.2520
     11  C11        4.5840   86.7200   25.7640 C.2   5001  KPV5001     0.4219
     12  O1         5.0280   85.5600   25.2610 O.co2 5001  KPV5001    -0.2373
     13  O2         3.4340   86.8200   26.1670 O.co2 5001  KPV5001    -0.2373
     14  O3         6.7150   87.6470   25.8590 O.2   5001  KPV5001    -0.2843
@<TRIPOS>BOND
     1     4     5   ar
     2     4     3   ar
     3     5     6   ar
     4     3     2   ar
     5     6     1   ar
     6     2     1   ar
     7     1     7    1
     8    12    11   ar
     9     7     8    1
    10     8     9    1
    11    11    10    1
    12    11    13   ar
    13    14    10    2
    14    10     9    1
