@<TRIPOS>MOLECULE
2q5s_NZA_A_1.pdb
 28 31 0 0 0
SMALL
GASTEIGER

@<TRIPOS>ATOM
      1  CAM       16.0130   18.0620   11.6120 C.ar  7001  NZA7001    -0.0015
      2  CAJ       15.7300   17.8690   12.9670 C.ar  7001  NZA7001     0.0111
      3  CAT       14.5520   17.2100   13.3150 C.ar  7001  NZA7001     0.0577
      4 CLAC       14.1500   16.9550   14.9740 Cl    7001  NZA7001    -0.0822
      5  CAK       13.6770   16.7540   12.3320 C.ar  7001  NZA7001     0.0111
      6  CAN       13.9730   16.9440   10.9820 C.ar  7001  NZA7001    -0.0015
      7  CAV       15.1450   17.6000   10.6070 C.ar  7001  NZA7001     0.0004
      8  CAQ       15.4670   17.8070    9.1000 C.3   7001  NZA7001     0.1329
      9  NBB       16.5670   18.7830    9.0460 N.ar  7001  NZA7001    -0.3174
     10  CAY       16.4070   20.1010    8.9660 C.ar  7001  NZA7001     0.1470
     11  CAS       15.0650   20.8400    8.8420 C.2   7001  NZA7001     0.4038
     12  OAB       14.0920   20.1880    8.4210 O.co2 7001  NZA7001    -0.2389
     13  OAA       14.9920   22.0500    9.1480 O.co2 7001  NZA7001    -0.2389
     14  CBA       17.8620   18.4620    9.1340 C.ar  7001  NZA7001     0.0609
     15  CAO       18.5100   17.2330    9.2490 C.ar  7001  NZA7001     0.0181
     16  CAL       19.9020   17.1910    9.3140 C.ar  7001  NZA7001     0.0129
     17  CAU       20.6280   18.3770    9.2700 C.ar  7001  NZA7001     0.0578
     18 CLAD       22.3440   18.2840    9.3630 Cl    7001  NZA7001    -0.0822
     19  CAP       19.9910   19.6140    9.1590 C.ar  7001  NZA7001     0.0134
     20  CAZ       18.5990   19.6490    9.0940 C.ar  7001  NZA7001     0.0243
     21  CAX       17.6660   20.6700    8.9670 C.ar  7001  NZA7001     0.0532
     22  SAR       17.9700   22.3890    8.9000 S.3   7001  NZA7001    -0.0852
     23  CAW       18.8520   22.7090    7.4230 C.ar  7001  NZA7001     0.0295
     24  CAH       18.9450   21.7780    6.3890 C.ar  7001  NZA7001     0.0065
     25  CAF       19.6610   22.1000    5.2310 C.ar  7001  NZA7001     0.0005
     26  CAE       20.2750   23.3460    5.1020 C.ar  7001  NZA7001     0.0000
     27  CAG       20.1740   24.2780    6.1340 C.ar  7001  NZA7001     0.0005
     28  CAI       19.4600   23.9590    7.2900 C.ar  7001  NZA7001     0.0065
@<TRIPOS>BOND
     1    26    25   ar
     2    26    27   ar
     3    25    24   ar
     4    27    28   ar
     5    24    23   ar
     6    28    23   ar
     7    23    22    1
     8    12    11   ar
     9    11    10    1
    10    11    13   ar
    11    22    21    1
    12    10    21   ar
    13    10     9   ar
    14    21    20   ar
    15     9     8    1
    16     9    14   ar
    17    20    14   ar
    18    20    19   ar
    19     8     7    1
    20    14    15   ar
    21    19    17   ar
    22    15    16   ar
    23    17    16   ar
    24    17    18    1
    25     7     6   ar
    26     7     1   ar
    27     6     5   ar
    28     1     2   ar
    29     5     3   ar
    30     2     3   ar
    31     3     4    1
