@<TRIPOS>MOLECULE
2q5y_III_B_1.pdb
 24 24 0 0 0
SMALL
GASTEIGER

@<TRIPOS>ATOM
      1  N         67.1100  102.4890   69.1730 N.3   866  TYR866     -0.1227
      2  CA        68.1890  103.3490   68.6240 C.3   866  TYR866      0.1736
      3  C         68.8800  102.6790   67.4430 C.2   866  TYR866      0.2596
      4  O         70.0360  102.2670   67.5390 O.2   866  TYR866     -0.2718
      5  CB        69.2190  103.6720   69.7140 C.3   866  TYR866      0.0548
      6  CG        68.6530  104.4610   70.8760 C.ar  866  TYR866     -0.0200
      7  CD1       68.0160  103.8260   71.9310 C.ar  866  TYR866     -0.0009
      8  CD2       68.7370  105.8480   70.9000 C.ar  866  TYR866     -0.0009
      9  CE1       67.4810  104.5470   72.9820 C.ar  866  TYR866      0.0417
     10  CE2       68.2060  106.5770   71.9470 C.ar  866  TYR866      0.0417
     11  CZ        67.5800  105.9230   72.9840 C.ar  866  TYR866      0.1957
     12  OH        67.0480  106.6460   74.0280 O.3   866  TYR866     -0.2866
     13  N         68.1560  102.5780   66.3330 N.am  867  GLY867     -0.1942
     14  CA        68.6850  101.9530   65.1380 C.3   867  GLY867      0.2014
     15  C         67.5570  101.6210   64.1790 C.2   867  GLY867      0.2638
     16  O         66.5570  101.0390   64.5860 O.2   867  GLY867     -0.2714
     17  N         67.7340  101.9810   62.9080 N.am  868  LEU868     -0.1977
     18  CA        66.7490  101.7700   61.8390 C.3   868  LEU868      0.1596
     19  C         65.5880  100.8070   62.1050 C.2   868  LEU868      0.2287
     20  O         65.4150   99.8700   61.2960 O.2   868  LEU868     -0.2864
     21  CB        67.4700  101.3420   60.5560 C.3   868  LEU868      0.0297
     22  CG        68.7630  102.0750   60.1800 C.3   868  LEU868      0.0022
     23  CD1       69.0270  101.8860   58.6950 C.3   868  LEU868      0.0001
     24  CD2       68.6600  103.5560   60.4970 C.3   868  LEU868      0.0001
@<TRIPOS>BOND
     1    23    22    1
     2    22    24    1
     3    22    21    1
     4    21    18    1
     5    20    19    2
     6    18    19    1
     7    18    17    1
     8    17    15   am
     9    15    16    2
    10    15    14    1
    11    14    13    1
    12    13     3   am
    13     3     4    2
    14     3     2    1
    15     2     1    1
    16     2     5    1
    17     5     6    1
    18     6     8   ar
    19     6     7   ar
    20     8    10   ar
    21     7     9   ar
    22    10    11   ar
    23     9    11   ar
    24    11    12    1
