@<TRIPOS>MOLECULE
2q61_SF1_A_1.pdb
 27 30 0 0 0
SMALL
GASTEIGER

@<TRIPOS>ATOM
      1  CAJ       15.8820   18.0960   11.8630 C.ar  7001  SF17001    -0.0024
      2  CAF       15.6650   17.8520   13.2190 C.ar  7001  SF17001    -0.0003
      3  CAD       14.5430   17.1180   13.6090 C.ar  7001  SF17001    -0.0000
      4  CAG       13.6530   16.6430   12.6420 C.ar  7001  SF17001    -0.0003
      5  CAK       13.8840   16.8880   11.2810 C.ar  7001  SF17001    -0.0024
      6  CAU       15.0110   17.6170   10.8640 C.ar  7001  SF17001     0.0004
      7  CAQ       15.2640   17.8900    9.3450 C.3   7001  SF17001     0.1329
      8  NBA       16.3780   18.8610    9.2470 N.ar  7001  SF17001    -0.3174
      9  CAX       16.2380   20.1680    9.1460 C.ar  7001  SF17001     0.1470
     10  CAS       14.9220   20.9040    9.0510 C.2   7001  SF17001     0.4038
     11  OAB       14.9060   22.1370    9.1720 O.co2 7001  SF17001    -0.2389
     12  OAA       13.9130   20.2270    8.8180 O.co2 7001  SF17001    -0.2389
     13  CAZ       17.6830   18.5470    9.2900 C.ar  7001  SF17001     0.0609
     14  CAO       18.3220   17.3190    9.3980 C.ar  7001  SF17001     0.0181
     15  CAN       19.7090   17.2610    9.4200 C.ar  7001  SF17001     0.0129
     16  CAT       20.4370   18.4400    9.3340 C.ar  7001  SF17001     0.0578
     17 CLAC       22.1470   18.2930    9.3710 Cl    7001  SF17001    -0.0822
     18  CAP       19.8210   19.6910    9.2290 C.ar  7001  SF17001     0.0134
     19  CAY       18.4280   19.7280    9.2050 C.ar  7001  SF17001     0.0243
     20  CAW       17.4880   20.7450    9.1020 C.ar  7001  SF17001     0.0532
     21  SAR       17.7470   22.4790    8.9900 S.3   7001  SF17001    -0.0852
     22  CAV       18.6720   22.7880    7.4970 C.ar  7001  SF17001     0.0295
     23  CAL       18.8240   21.8270    6.4960 C.ar  7001  SF17001     0.0065
     24  CAH       19.5630   22.1270    5.3410 C.ar  7001  SF17001     0.0005
     25  CAE       20.1540   23.3830    5.1800 C.ar  7001  SF17001     0.0000
     26  CAI       20.0020   24.3470    6.1810 C.ar  7001  SF17001     0.0005
     27  CAM       19.2620   24.0510    7.3290 C.ar  7001  SF17001     0.0065
@<TRIPOS>BOND
     1    25    24   ar
     2    25    26   ar
     3    24    23   ar
     4    26    27   ar
     5    23    22   ar
     6    27    22   ar
     7    22    21    1
     8    12    10   ar
     9    21    20    1
    10    10     9    1
    11    10    11   ar
    12    20     9   ar
    13    20    19   ar
    14     9     8   ar
    15    19    18   ar
    16    19    13   ar
    17    18    16   ar
    18     8    13   ar
    19     8     7    1
    20    13    14   ar
    21    16    17    1
    22    16    15   ar
    23     7     6    1
    24    14    15   ar
    25     6     5   ar
    26     6     1   ar
    27     5     4   ar
    28     1     2   ar
    29     4     3   ar
    30     2     3   ar
