@<TRIPOS>MOLECULE
2q63_1UN_A_1.pdb
 40 43 0 0 0
SMALL
GASTEIGER

@<TRIPOS>ATOM
      1  C1       -12.8660   58.3170    4.2060 C.3   1001  1UN1001     0.0161
      2  C2       -13.3990   58.6880    5.5930 C.3   1001  1UN1001     0.0032
      3  C3       -14.4810   59.7720    5.5230 C.3   1001  1UN1001     0.0001
      4  C4       -15.5600   59.4760    4.4800 C.3   1001  1UN1001     0.0000
      5  C5       -14.9460   59.1400    3.1200 C.3   1001  1UN1001     0.0000
      6  C6       -13.9890   57.9580    3.2260 C.3   1001  1UN1001     0.0014
      7  N7       -12.3270   56.0250    5.0420 N.3   1001  1UN1001    -0.2643
      8  C8       -12.7860   56.3980    6.4060 C.3   1001  1UN1001     0.1365
      9  C9       -13.9010   57.4470    6.3280 C.3   1001  1UN1001     0.0254
     10  C10      -11.8300   57.2000    4.2950 C.3   1001  1UN1001     0.0725
     11  C11      -13.3230   55.2150    7.1530 C.2   1001  1UN1001     0.2558
     12  N12      -13.0440   55.1770    8.4670 N.am  1001  1UN1001    -0.2077
     13  C13      -13.4630   54.1340    9.3960 C.3   1001  1UN1001     0.0788
     14  C14      -13.0260   52.7460    8.9140 C.3   1001  1UN1001     0.0217
     15  C15      -14.9790   54.1650    9.5730 C.3   1001  1UN1001     0.0217
     16  C16      -12.7880   54.4300   10.7260 C.3   1001  1UN1001     0.0217
     17  O17      -13.9770   54.3800    6.5530 O.2   1001  1UN1001    -0.2719
     18  C18      -11.2530   55.0150    5.0970 C.3   1001  1UN1001     0.1075
     19  C19      -11.1990   54.2300    3.7870 C.3   1001  1UN1001     0.1885
     20  C20      -12.3030   53.1870    3.6650 C.3   1001  1UN1001     0.1383
     21  O21       -9.9090   53.6160    3.6190 O.3   1001  1UN1001    -0.2198
     22  N22      -12.2390   52.6530    2.3170 N.am  1001  1UN1001    -0.1999
     23  C23      -12.2340   52.0740    4.7110 C.3   1001  1UN1001     0.0864
     24  C24      -13.2350   52.8230    1.4580 C.2   1001  1UN1001     0.2646
     25  O25      -14.2830   53.3570    1.7680 O.2   1001  1UN1001    -0.2684
     26  C29      -13.0530   52.3440    0.0530 C.ar  1001  1UN1001     0.0542
     27  C30      -12.9560   50.9850   -0.2320 C.ar  1001  1UN1001     0.0045
     28  C31      -12.7760   50.5380   -1.5400 C.ar  1001  1UN1001     0.0034
     29  C32      -12.6940   51.4290   -2.6120 C.ar  1001  1UN1001     0.0417
     30  C33      -12.7780   52.8050   -2.4100 C.ar  1001  1UN1001     0.1919
     31  C34      -12.9650   53.3310   -1.0450 C.ar  1001  1UN1001     0.0215
     32  O38      -12.6950   53.6650   -3.4600 O.3   1001  1UN1001    -0.2869
     33  C39      -13.0670   54.8180   -0.7720 C.3   1001  1UN1001     0.0345
     34  S74      -13.5890   50.9510    4.5790 S.3   1001  1UN1001    -0.1118
     35  C77      -13.5240   49.7510    3.3790 C.ar  1001  1UN1001     0.0253
     36  C78      -14.7030   49.3020    2.7780 C.ar  1001  1UN1001     0.0061
     37  C79      -14.6670   48.3170    1.7880 C.ar  1001  1UN1001     0.0005
     38  C80      -13.4410   47.7750    1.3980 C.ar  1001  1UN1001     0.0000
     39  C81      -12.2640   48.2260    1.9940 C.ar  1001  1UN1001     0.0005
     40  C82      -12.3010   49.2110    2.9850 C.ar  1001  1UN1001     0.0061
@<TRIPOS>BOND
     1    32    30    1
     2    29    30   ar
     3    29    28   ar
     4    30    31   ar
     5    28    27   ar
     6    31    33    1
     7    31    26   ar
     8    27    26   ar
     9    26    24    1
    10    38    37   ar
    11    38    39   ar
    12    24    25    2
    13    24    22   am
    14    37    36   ar
    15    39    40   ar
    16    22    20    1
    17    36    35   ar
    18    40    35   ar
    19     5     6    1
    20     5     4    1
    21     6     1    1
    22    35    34    1
    23    21    19    1
    24    20    19    1
    25    20    23    1
    26    19    18    1
    27     1    10    1
    28     1     2    1
    29    10     7    1
    30     4     3    1
    31    34    23    1
    32     7    18    1
    33     7     8    1
    34     3     2    1
    35     2     9    1
    36     9     8    1
    37     8    11    1
    38    17    11    2
    39    11    12   am
    40    12    13    1
    41    14    13    1
    42    13    15    1
    43    13    16    1
