@<TRIPOS>MOLECULE
2q64_1UN_B_1.pdb
 40 43 0 0 0
SMALL
GASTEIGER

@<TRIPOS>ATOM
      1  C1       -12.7120   13.4140   27.5270 C.3   1001  1UN1001     0.0161
      2  C2       -12.7400   12.8180   28.9430 C.3   1001  1UN1001     0.0032
      3  C3       -13.0090   11.3070   28.9180 C.3   1001  1UN1001     0.0001
      4  C4       -12.0400   10.5670   27.9870 C.3   1001  1UN1001     0.0000
      5  C5       -12.0550   11.1500   26.5740 C.3   1001  1UN1001     0.0000
      6  C6       -11.7760   12.6500   26.5790 C.3   1001  1UN1001     0.0014
      7  N7       -11.0040   15.0710   28.2510 N.3   1001  1UN1001    -0.2643
      8  C8       -10.9760   14.5520   29.6470 C.3   1001  1UN1001     0.1365
      9  C9       -11.4550   13.0990   29.7340 C.3   1001  1UN1001     0.0254
     10  C10      -12.3170   14.8880   27.5840 C.3   1001  1UN1001     0.0725
     11  C11       -9.5900   14.6000   30.2480 C.2   1001  1UN1001     0.2558
     12  N12       -9.5670   14.8170   31.5700 N.am  1001  1UN1001    -0.2077
     13  C13       -8.3910   15.0440   32.3940 C.3   1001  1UN1001     0.0788
     14  C14       -7.5570   16.2100   31.8690 C.3   1001  1UN1001     0.0217
     15  C15       -7.5780   13.7570   32.4420 C.3   1001  1UN1001     0.0217
     16  C16       -8.8650   15.3860   33.8010 C.3   1001  1UN1001     0.0217
     17  O17       -8.5910   14.4380   29.5530 O.2   1001  1UN1001    -0.2719
     18  C18      -10.6600   16.4990   28.2410 C.3   1001  1UN1001     0.1075
     19  C19      -10.0340   16.8720   26.9020 C.3   1001  1UN1001     0.1885
     20  C20       -8.5710   16.4600   26.7810 C.3   1001  1UN1001     0.1383
     21  O21      -10.1750   18.2810   26.6860 O.3   1001  1UN1001    -0.2198
     22  N22       -8.1670   16.6610   25.4000 N.am  1001  1UN1001    -0.1999
     23  C23       -7.6560   17.2320   27.7320 C.3   1001  1UN1001     0.0864
     24  C24       -7.7750   15.6870   24.5700 C.2   1001  1UN1001     0.2646
     25  O25       -7.6990   14.5080   24.8930 O.2   1001  1UN1001    -0.2684
     26  C29       -7.4340   16.0920   23.1610 C.ar  1001  1UN1001     0.0542
     27  C30       -6.3780   16.9780   22.9050 C.ar  1001  1UN1001     0.0045
     28  C31       -6.0570   17.3780   21.6070 C.ar  1001  1UN1001     0.0034
     29  C32       -6.7770   16.9130   20.5050 C.ar  1001  1UN1001     0.0417
     30  C33       -7.8510   16.0310   20.6580 C.ar  1001  1UN1001     0.1919
     31  C34       -8.2340   15.5740   22.0150 C.ar  1001  1UN1001     0.0215
     32  O38       -8.5520   15.5740   19.5860 O.3   1001  1UN1001    -0.2869
     33  C39       -9.3970   14.6230   22.2020 C.3   1001  1UN1001     0.0345
     34  S74       -6.0890   16.4370   27.8790 S.3   1001  1UN1001    -0.1118
     35  C77       -5.0620   17.1580   26.7250 C.ar  1001  1UN1001     0.0253
     36  C78       -3.8850   16.5060   26.3400 C.ar  1001  1UN1001     0.0061
     37  C79       -3.0400   17.0920   25.3930 C.ar  1001  1UN1001     0.0005
     38  C80       -3.3630   18.3260   24.8290 C.ar  1001  1UN1001     0.0000
     39  C81       -4.5340   18.9830   25.2090 C.ar  1001  1UN1001     0.0005
     40  C82       -5.3800   18.4000   26.1540 C.ar  1001  1UN1001     0.0061
@<TRIPOS>BOND
     1    32    30    1
     2    29    30   ar
     3    29    28   ar
     4    30    31   ar
     5    28    27   ar
     6    31    33    1
     7    31    26   ar
     8    27    26   ar
     9    26    24    1
    10    24    25    2
    11    24    22   am
    12    38    39   ar
    13    38    37   ar
    14    39    40   ar
    15    37    36   ar
    16    22    20    1
    17    40    35   ar
    18    36    35   ar
    19     5     6    1
    20     5     4    1
    21     6     1    1
    22    21    19    1
    23    35    34    1
    24    20    19    1
    25    20    23    1
    26    19    18    1
    27     1    10    1
    28     1     2    1
    29    10     7    1
    30    23    34    1
    31     4     3    1
    32    18     7    1
    33     7     8    1
    34     3     2    1
    35     2     9    1
    36    17    11    2
    37     8     9    1
    38     8    11    1
    39    11    12   am
    40    12    13    1
    41    14    13    1
    42    13    15    1
    43    13    16    1
