@<TRIPOS>MOLECULE
2q66_ATP_A_1.pdb
 31 33 0 0 0
SMALL
GASTEIGER

@<TRIPOS>ATOM
      1  PG        25.9610   37.7450   32.9390 P.3   605  ATP605      0.5373
      2  O1G       26.1560   38.7800   34.0310 O.3   605  ATP605     -0.1143
      3  O2G       25.0290   36.6400   33.3830 O.3   605  ATP605     -0.1143
      4  O3G       25.6510   38.3270   31.5930 O.2   605  ATP605     -0.2221
      5  PB        28.7770   37.2560   33.5340 P.3   605  ATP605      0.2277
      6  O1B       28.9430   38.7630   33.7550 O.3   605  ATP605     -0.4368
      7  O2B       29.8610   36.4880   32.8450 O.2   605  ATP605     -0.5168
      8  O3B       27.4010   37.0320   32.7280 O.3   605  ATP605     -0.2258
      9  PA        28.3760   37.0150   36.4200 P.3   605  ATP605      0.2189
     10  O1A       27.9070   38.4760   36.4270 O.2   605  ATP605     -0.5170
     11  O2A       27.5770   35.9830   37.1990 O.3   605  ATP605     -0.4371
     12  O3A       28.4980   36.4630   34.9020 O.3   605  ATP605     -0.2700
     13  O5'       29.8890   36.9360   36.9750 O.3   605  ATP605     -0.3112
     14  C5'       30.8700   37.8380   36.4560 C.3   605  ATP605      0.1813
     15  C4'       32.2200   37.1710   36.3530 C.3   605  ATP605      0.1821
     16  O4'       32.5940   36.5930   37.6070 O.3   605  ATP605     -0.3135
     17  C3'       32.2740   36.0110   35.3780 C.3   605  ATP605      0.2184
     18  O3'       32.2950   36.3970   34.0040 O.3   605  ATP605     -0.2174
     19  C2'       33.5000   35.2550   35.8630 C.3   605  ATP605      0.2570
     20  O2'       34.7350   35.8230   35.3980 O.3   605  ATP605     -0.2130
     21  C1'       33.3770   35.4110   37.3660 C.3   605  ATP605      0.3186
     22  N9        32.6170   34.2400   37.8550 N.pl3 605  ATP605     -0.1439
     23  C8        31.3250   34.2250   38.2370 C.3   605  ATP605      0.3377
     24  N7        30.9390   32.9800   38.6300 N.2   605  ATP605     -0.2095
     25  C5        32.0060   32.1880   38.4860 C.2   605  ATP605      0.2526
     26  C6        32.2750   30.7550   38.7100 C.2   605  ATP605      0.4393
     27  N6        31.2810   29.9790   39.1800 N.pl3 605  ATP605      0.2180
     28  N1        33.5200   30.3030   38.4390 N.2   605  ATP605      0.0021
     29  C2        34.4960   31.1110   37.9630 C.3   605  ATP605      0.5254
     30  N3        34.3150   32.4380   37.7310 N.2   605  ATP605     -0.0055
     31  C4        33.1100   33.0090   37.9680 C.2   605  ATP605      0.3518
@<TRIPOS>BOND
     1     4     1    2
     2     8     1    1
     3     8     5    1
     4     7     5    2
     5     1     3    1
     6     1     2    1
     7     5     6    1
     8     5    12    1
     9    18    17    1
    10    12     9    1
    11    17    19    1
    12    17    15    1
    13    20    19    1
    14    19    21    1
    15    15    14    1
    16    15    16    1
    17     9    10    2
    18     9    13    1
    19     9    11    1
    20    14    13    1
    21    21    16    1
    22    21    22    1
    23    30    29    1
    24    30    31    2
    25    22    31    1
    26    22    23    1
    27    29    28    1
    28    31    25    1
    29    23    24    1
    30    28    26    2
    31    25    24    2
    32    25    26    1
    33    26    27    1
