@<TRIPOS>MOLECULE
2q6b_HR2_A_1.pdb
 38 41 0 0 0
SMALL
GASTEIGER

@<TRIPOS>ATOM
      1  N1        32.5800   -7.5890   -2.8380 N.ar  3001  HR23001    -0.3292
      2  C4        34.2530   -8.9710   -3.4720 C.ar  3001  HR23001    -0.0008
      3  C5        34.7390   -7.8300   -2.8750 C.ar  3001  HR23001     0.0092
      4  C6        34.9740  -10.1610   -4.0570 C.3   3001  HR23001     0.0298
      5  C7        38.8840   -6.9570   -2.2590 C.ar  3001  HR23001     0.1401
      6  C8        37.0010   -7.2270   -3.7460 C.ar  3001  HR23001     0.0023
      7  C10       31.2110   -7.0300   -2.6180 C.3   3001  HR23001     0.0854
      8  C13       31.9970   -9.8290   -3.9990 C.2   3001  HR23001     0.2683
      9  C15       38.3490   -6.9410   -3.5420 C.ar  3001  HR23001     0.0296
     10  C17       31.7070  -11.5610   -5.5210 C.ar  3001  HR23001     0.0541
     11  C20       33.4080   -5.7760   -0.3590 C.3   3001  HR23001     0.0392
     12  C21       33.5340   -4.4570    0.3940 C.3   3001  HR23001     0.1549
     13  C22       33.5860   -4.7220    1.8950 C.3   3001  HR23001     0.0663
     14  C24       34.9420   -5.5240    3.8210 C.3   3001  HR23001     0.1469
     15  C28       30.3850  -11.5130   -5.9670 C.ar  3001  HR23001     0.0149
     16  F1        40.1880   -6.6770   -2.0840 F     3001  HR23001    -0.2042
     17  C9        36.1840   -7.5320   -2.6630 C.ar  3001  HR23001     0.0010
     18  C14       36.7160   -7.5440   -1.3730 C.ar  3001  HR23001     0.0023
     19  C18       38.0680   -7.2590   -1.1700 C.ar  3001  HR23001     0.0296
     20  C3        33.7280   -6.9740   -2.4850 C.ar  3001  HR23001     0.0368
     21  C19       33.8780   -5.6350   -1.7980 C.3   3001  HR23001     0.0464
     22  O33       32.4080   -3.6450    0.1130 O.3   3001  HR23001    -0.2230
     23  C23       34.9240   -5.3130    2.3140 C.3   3001  HR23001     0.1658
     24  O34       35.9690   -4.4380    1.9380 O.3   3001  HR23001    -0.2225
     25  C25       36.1180   -6.4010    4.1710 C.2   3001  HR23001     0.3674
     26  O27       36.1270   -7.6820    3.8050 O.co2 3001  HR23001    -0.2456
     27  O26       37.0650   -5.9340    4.7780 O.co2 3001  HR23001    -0.2456
     28  C12       30.4680   -6.9740   -3.9470 C.3   3001  HR23001     0.0245
     29  C11       30.4610   -7.8300   -1.5540 C.3   3001  HR23001     0.0245
     30  C2        34.7620  -10.2030   -5.5750 C.3   3001  HR23001     0.0266
     31  C16       33.3480   -9.8740   -6.0740 C.3   3001  HR23001     0.0989
     32  N15       32.3570  -10.4190   -5.1470 N.am  3001  HR23001    -0.2540
     33  O14       31.1440  -10.3010   -3.2640 O.2   3001  HR23001    -0.2680
     34  C1        32.8810   -8.7700   -3.4280 C.ar  3001  HR23001     0.1102
     35  C29       29.7200  -12.6790   -6.3440 C.ar  3001  HR23001     0.0013
     36  C30       30.3790  -13.9030   -6.2840 C.ar  3001  HR23001     0.0001
     37  C31       31.7010  -13.9550   -5.8460 C.ar  3001  HR23001     0.0013
     38  C32       32.3680  -12.7890   -5.4680 C.ar  3001  HR23001     0.0149
@<TRIPOS>BOND
     1    35    36   ar
     2    35    15   ar
     3    36    37   ar
     4    31    30    1
     5    31    32    1
     6    15    10   ar
     7    37    38   ar
     8    30     4    1
     9    10    38   ar
    10    10    32    1
    11    32     8   am
    12     4     2    1
    13     8    34    1
    14     8    33    2
    15    28     7    1
    16     6     9   ar
    17     6    17   ar
    18     9     5   ar
    19     2    34   ar
    20     2     3   ar
    21    34     1   ar
    22     3    17    1
    23     3    20   ar
    24     1     7    1
    25     1    20   ar
    26    17    18   ar
    27     7    29    1
    28    20    21    1
    29     5    16    1
    30     5    19   ar
    31    21    11    1
    32    18    19   ar
    33    11    12    1
    34    22    12    1
    35    12    13    1
    36    13    23    1
    37    24    23    1
    38    23    14    1
    39    26    25   ar
    40    14    25    1
    41    25    27   ar
