@<TRIPOS>MOLECULE
2q6c_HR1_A_1.pdb
 41 45 0 0 0
SMALL
GASTEIGER

@<TRIPOS>ATOM
      1  N1        79.7130    8.9850   -5.2000 N.ar  3002  HR13002    -0.3288
      2  C4        79.5340   13.2960  -10.6860 C.ar  3002  HR13002     0.0015
      3  C5        77.5400    8.1920   -5.1730 C.ar  3002  HR13002     0.0133
      4  C6        81.1730    9.1830   -4.9250 C.3   3002  HR13002     0.0854
      5  C7        79.4540    7.0350   -3.5860 C.3   3002  HR13002     0.0464
      6  C8        78.5130    5.9250   -3.1560 C.3   3002  HR13002     0.0392
      7  C10       78.7160    5.7560   -0.6390 C.3   3002  HR13002     0.0663
      8  C13       81.9890    7.9470   -5.3030 C.3   3002  HR13002     0.0245
      9  C15       74.6740    5.7530   -5.5160 C.ar  3002  HR13002     0.0296
     10  C17       78.8420   13.7820   -8.0260 C.ar  3002  HR13002     0.0176
     11  C20       78.7700   12.4880   -8.5360 C.ar  3002  HR13002     0.0669
     12  C21       75.5430    7.7160   -3.7440 C.ar  3002  HR13002     0.0023
     13  C22       74.3650   10.2070   -7.8810 C.ar  3002  HR13002     0.0001
     14  C24       74.3720    7.0120   -3.4830 C.ar  3002  HR13002     0.0296
     15  C26       79.1190   12.2470   -9.8660 C.ar  3002  HR13002     0.0176
     16  C28       74.8030   11.2640   -8.6680 C.ar  3002  HR13002     0.0015
     17  O1        80.4480   11.2690   -6.9570 O.2   3002  HR13002    -0.2650
     18  C3        79.2820   10.8270   -6.9270 C.ar  3002  HR13002     0.2805
     19  C2        79.0060    9.7510   -6.0780 C.ar  3002  HR13002     0.1169
     20  C14       81.3780    9.6200   -3.4720 C.3   3002  HR13002     0.0245
     21  C1        77.6130    9.3090   -6.1120 C.ar  3002  HR13002     0.0230
     22  C31       76.5990    9.9580   -6.9870 C.ar  3002  HR13002     0.0178
     23  C25       75.2620    9.5550   -7.0410 C.ar  3002  HR13002     0.0015
     24  C16       77.0490   11.0150   -7.7730 C.ar  3002  HR13002     0.0669
     25  C19       76.1330   11.6660   -8.6140 C.ar  3002  HR13002     0.0176
     26  N2        78.3470   11.4100   -7.7200 N.ar  3002  HR13002    -0.2734
     27  C23       79.6050   14.5900  -10.1730 C.ar  3002  HR13002     0.0001
     28  C29       79.2600   14.8300   -8.8450 C.ar  3002  HR13002     0.0015
     29  C27       76.2920    7.4290   -4.8840 C.ar  3002  HR13002     0.0013
     30  C30       73.9360    6.0330   -4.3680 C.ar  3002  HR13002     0.1401
     31  C18       75.8510    6.4530   -5.7750 C.ar  3002  HR13002     0.0023
     32  F1        72.8020    5.3620   -4.1050 F     3002  HR13002    -0.2042
     33  C12       78.9200    8.0280   -4.6070 C.ar  3002  HR13002     0.0372
     34  C9        79.1000    5.1320   -1.9790 C.3   3002  HR13002     0.1549
     35  O4        80.5170    5.0790   -2.0420 O.3   3002  HR13002    -0.2230
     36  C11       77.2110    5.7430   -0.3990 C.3   3002  HR13002     0.1658
     37  O3        76.6950    4.4590   -0.7040 O.3   3002  HR13002    -0.2225
     38  C35       76.9110    6.0850    1.0540 C.3   3002  HR13002     0.1469
     39  C36       75.4670    6.5050    1.1730 C.2   3002  HR13002     0.3674
     40  O7        74.6760    5.7580    1.7860 O.co2 3002  HR13002    -0.2456
     41  O6        75.1180    7.5870    0.6460 O.co2 3002  HR13002    -0.2456
@<TRIPOS>BOND
     1     2    27   ar
     2     2    15   ar
     3    27    28   ar
     4    15    11   ar
     5    28    10   ar
     6    16    25   ar
     7    16    13   ar
     8    25    24   ar
     9    11    10   ar
    10    11    26    1
    11    13    23   ar
    12    24    26   ar
    13    24    22   ar
    14    26    18   ar
    15    23    22   ar
    16    22    21   ar
    17    17    18    2
    18    18    19   ar
    19    21    19   ar
    20    21     3   ar
    21    19     1   ar
    22    31     9   ar
    23    31    29   ar
    24     9    30   ar
    25     8     4    1
    26     1     4    1
    27     1    33   ar
    28     3    29    1
    29     3    33   ar
    30     4    20    1
    31    29    12   ar
    32    33     5    1
    33    30    32    1
    34    30    14   ar
    35    12    14   ar
    36     5     6    1
    37     6    34    1
    38    35    34    1
    39    34     7    1
    40    37    36    1
    41     7    36    1
    42    36    38    1
    43    41    39   ar
    44    38    39    1
    45    39    40   ar
