@<TRIPOS>MOLECULE
2q6f_3IH_A_1.pdb
 49 51 0 0 0
SMALL
GASTEIGER

@<TRIPOS>ATOM
      1  N1        -9.7330  -28.1350   -6.4120 N.ar  1145  3IH1145    -0.0726
      2  C1        -8.9980  -29.2750   -6.6790 C.ar  1145  3IH1145     0.1774
      3  C2        -8.7720  -29.4100   -8.0650 C.ar  1145  3IH1145     0.0627
      4  C3        -9.3720  -28.3000   -8.6490 C.ar  1145  3IH1145     0.1550
      5  O1        -9.9470  -27.5090   -7.7010 O.2   1145  3IH1145    -0.3576
      6  C4        -8.5470  -30.2430   -5.6240 C.2   1145  3IH1145     0.2862
      7  O2        -8.4310  -31.4410   -5.9140 O.2   1145  3IH1145    -0.2666
      8  N2        -8.3590  -29.7210   -4.4000 N.am  1145  3IH1145    -0.1926
      9  C5        -7.9450  -30.4790   -3.2220 C.3   1145  3IH1145     0.1732
     10  C6        -7.3940  -29.4870   -2.2250 C.3   1145  3IH1145     0.0334
     11  C7        -9.0990  -31.2310   -2.6430 C.2   1145  3IH1145     0.2616
     12  O3       -10.2040  -30.7350   -2.7480 O.2   1145  3IH1145    -0.2715
     13  N3        -8.8530  -32.4360   -2.0850 N.am  1145  3IH1145    -0.1963
     14  C8        -9.8390  -33.2890   -1.4550 C.3   1145  3IH1145     0.1727
     15  C9        -9.9190  -34.6120   -2.2060 C.3   1145  3IH1145     0.0290
     16  C10      -10.8120  -35.6740   -1.5490 C.3   1145  3IH1145     0.0023
     17  C11      -10.3290  -34.3810   -3.6930 C.3   1145  3IH1145     0.0023
     18  C12       -9.4070  -33.5240   -0.0460 C.2   1145  3IH1145     0.2616
     19  O4        -8.2610  -33.9090    0.2330 O.2   1145  3IH1145    -0.2715
     20  N4       -10.3580  -33.2530    0.8410 N.am  1145  3IH1145    -0.1963
     21  C13      -10.1340  -33.4650    2.2600 C.3   1145  3IH1145     0.1728
     22  C14      -11.3220  -32.7210    2.8440 C.3   1145  3IH1145     0.0311
     23  C15      -11.0030  -31.4520    3.6000 C.3   1145  3IH1145     0.0022
     24  C16       -9.7780  -30.6470    3.1840 C.3   1145  3IH1145     0.0001
     25  C17      -12.2490  -30.5750    3.7170 C.3   1145  3IH1145     0.0001
     26  C19       -9.3790  -37.0010    3.3840 C.3   1145  3IH1145     0.0970
     27  C20       -9.6570  -37.2550    4.9030 C.3   1145  3IH1145     0.0333
     28  C21      -11.0680  -36.7330    5.2610 C.3   1145  3IH1145     0.1113
     29  C22      -12.1710  -37.6560    4.7550 C.2   1145  3IH1145     0.3174
     30  O6       -11.9440  -38.7990    4.4260 O.2   1145  3IH1145    -0.2501
     31  O7       -13.5360  -37.1840    4.7230 O.3   1145  3IH1145    -0.4435
     32  C23      -14.6220  -38.0430    4.3180 C.3   1145  3IH1145     0.2350
     33  C24      -14.7120  -38.1970    2.8170 C.ar  1145  3IH1145     0.0213
     34  C25       -8.0950  -37.6390    2.9330 C.3   1145  3IH1145     0.0383
     35  C26       -8.0460  -37.5950    1.4020 C.3   1145  3IH1145     0.1100
     36  C27       -9.1770  -38.4040    0.7210 C.3   1145  3IH1145     0.0438
     37  C28       -8.5310  -39.1580   -0.4630 C.3   1145  3IH1145     0.1387
     38  N6        -7.1250  -39.0150   -0.1220 N.2   1145  3IH1145    -0.2063
     39  C29       -6.7770  -38.2010    0.8580 C.1   1145  3IH1145     0.1250
     40  O8        -5.6230  -38.0140    1.2250 O.2   1145  3IH1145    -0.2271
     41  C30      -13.6440  -37.8330    1.9790 C.ar  1145  3IH1145    -0.0007
     42  C31      -13.7180  -37.9810    0.5800 C.ar  1145  3IH1145    -0.0002
     43  C32      -14.9270  -38.5030    0.0520 C.ar  1145  3IH1145    -0.0000
     44  C33      -15.9850  -38.8750    0.9060 C.ar  1145  3IH1145    -0.0002
     45  C34      -15.8990  -38.7100    2.2920 C.ar  1145  3IH1145    -0.0007
     46  C35       -9.3820  -28.0040  -10.1330 C.3   1145  3IH1145     0.0754
     47  C18      -10.2400  -34.9470    2.5040 C.2   1145  3IH1145     0.2612
     48  O5       -11.2130  -35.5790    2.0690 O.2   1145  3IH1145    -0.2715
     49  N5        -9.2490  -35.5560    3.1500 N.am  1145  3IH1145    -0.2057
@<TRIPOS>BOND
     1    46     4    1
     2     4     3   ar
     3     4     5   ar
     4     3     2   ar
     5     5     1   ar
     6     2     1   ar
     7     2     6    1
     8     7     6    2
     9     6     8   am
    10     8     9    1
    11    17    15    1
    12     9    11    1
    13     9    10    1
    14    12    11    2
    15    11    13   am
    16    15    16    1
    17    15    14    1
    18    13    14    1
    19    14    18    1
    20    37    38    1
    21    37    36    1
    22    38    39    2
    23    18    19    2
    24    18    20   am
    25    43    42   ar
    26    43    44   ar
    27    42    41   ar
    28    36    35    1
    29    20    21    1
    30    39    40    2
    31    39    35    1
    32    44    45   ar
    33    35    34    1
    34    41    33   ar
    35    48    47    2
    36    21    47    1
    37    21    22    1
    38    45    33   ar
    39    47    49   am
    40    33    32    1
    41    22    23    1
    42    34    26    1
    43    49    26    1
    44    24    23    1
    45    26    27    1
    46    23    25    1
    47    32    31    1
    48    30    29    2
    49    31    29    1
    50    29    28    1
    51    27    28    1
