@<TRIPOS>MOLECULE
2q6h_CXX_A_1.pdb
 22 24 0 0 0
SMALL
GASTEIGER

@<TRIPOS>ATOM
      1  C1        25.2970   21.0300   23.3410 C.ar  801  CXX801      0.0262
      2  C2        24.1120   20.3550   23.0060 C.ar  801  CXX801      0.0589
      3  C3        24.0040   19.6070   21.8180 C.ar  801  CXX801      0.0115
      4  C4        25.1290   19.5640   20.9850 C.ar  801  CXX801      0.0021
      5  C5        27.4750   20.1140   20.3100 C.2   801  CXX801      0.0013
      6  C6        27.8980   21.4090   19.6050 C.2   801  CXX801      0.0013
      7  C8        29.1030   24.9910   20.4600 C.ar  801  CXX801      0.0001
      8  C9        28.9940   25.0610   21.8380 C.ar  801  CXX801      0.0013
      9  C10       28.5290   23.9690   22.5690 C.ar  801  CXX801      0.0148
     10  C11       28.1500   22.7460   21.9340 C.ar  801  CXX801      0.0515
     11  C13       26.3440   20.2270   21.2810 C.ar  801  CXX801      0.0137
     12  C14       26.4340   20.9720   22.4790 C.ar  801  CXX801      0.0524
     13  C17       28.6160   18.6680   24.1680 C.3   801  CXX801      0.0739
     14  C18       29.6310   16.5730   24.8290 C.3   801  CXX801      0.0897
     15  C7        28.7430   23.8080   19.7900 C.ar  801  CXX801      0.0012
     16  C12       28.2590   22.6420   20.4530 C.ar  801  CXX801      0.0136
     17  C15       28.6660   21.1440   23.8040 C.3   801  CXX801      0.0970
     18  C16       28.2410   20.0300   24.7420 C.3   801  CXX801      0.0391
     19  C19       27.2990   16.9560   25.3420 C.3   801  CXX801      0.0897
     20  N1        27.6720   21.6540   22.7910 N.pl3 801  CXX801     -0.2868
     21  N2        28.6310   17.6000   25.1900 N.3   801  CXX801     -0.2703
     22 CL2        22.7570   20.4610   24.0940 Cl    801  CXX801     -0.0822
@<TRIPOS>BOND
     1     6     5    2
     2     6    16    1
     3    15    16   ar
     4    15     7   ar
     5     5    11    1
     6    16    10   ar
     7     7     8   ar
     8     4    11   ar
     9     4     3   ar
    10    11    12   ar
    11     3     2   ar
    12     8     9   ar
    13    10     9   ar
    14    10    20    1
    15    12    20    1
    16    12     1   ar
    17    20    17    1
    18     2     1   ar
    19     2    22    1
    20    17    18    1
    21    13    18    1
    22    13    21    1
    23    14    21    1
    24    21    19    1
