@<TRIPOS>MOLECULE
2q6i_5CD_A_1.pdb
 19 21 0 0 0
SMALL
GASTEIGER

@<TRIPOS>ATOM
      1  N9        70.3590  -19.8790   -5.8620 N.pl3 500  5CD500     -0.1439
      2  C8        70.5950  -21.1850   -6.0710 C.3   500  5CD500      0.3377
      3  N7        71.1670  -21.3580   -7.2840 N.2   500  5CD500     -0.2095
      4  C5        71.2830  -20.1340   -7.8470 C.2   500  5CD500      0.2526
      5  C4        70.7790  -19.2110   -6.9460 C.2   500  5CD500      0.3518
      6  N3        70.7810  -17.8960   -7.2660 N.2   500  5CD500     -0.0055
      7  C2        71.2570  -17.4700   -8.4380 C.3   500  5CD500      0.5254
      8  N1        71.7470  -18.3430   -9.3250 N.2   500  5CD500      0.0021
      9  C6        71.7680  -19.6760   -9.0670 C.2   500  5CD500      0.4393
     10  N6        72.2740  -20.5390   -9.9880 N.pl3 500  5CD500      0.2180
     11  O2'       67.4430  -18.5460   -4.8390 O.3   500  5CD500     -0.2130
     12  C2'       68.2790  -19.6560   -4.5010 C.3   500  5CD500      0.2569
     13  C3'       68.1230  -20.0560   -3.0370 C.3   500  5CD500      0.2172
     14  O3'       66.9890  -19.4440   -2.4310 O.3   500  5CD500     -0.2175
     15  C4'       69.4010  -19.5420   -2.3970 C.3   500  5CD500      0.1685
     16  C5'       69.8190  -20.2610   -1.1210 C.3   500  5CD500      0.1271
     17 CL         70.5890  -19.0930    0.0180 Cl    500  5CD500     -0.1110
     18  O4'       70.3690  -19.7080   -3.4350 O.3   500  5CD500     -0.3148
     19  C1'       69.7470  -19.2670   -4.6490 C.3   500  5CD500      0.3186
@<TRIPOS>BOND
     1    10     9    1
     2     8     9    2
     3     8     7    1
     4     9     4    1
     5     7     6    1
     6     4     3    2
     7     4     5    1
     8     3     2    1
     9     6     5    2
    10     5     1    1
    11     2     1    1
    12     1    19    1
    13    11    12    1
    14    19    12    1
    15    19    18    1
    16    12    13    1
    17    18    15    1
    18    13    14    1
    19    13    15    1
    20    15    16    1
    21    16    17    1
