@<TRIPOS>MOLECULE
2q6j_A48_A_1.pdb
 32 34 0 0 0
SMALL
GASTEIGER

@<TRIPOS>ATOM
      1  CAD       25.3020   -3.4480   10.5080 C.3   700  A48700      0.0000
      2  CAE       25.5100   -4.9760   10.5450 C.ar  700  A48700      0.0000
      3  CAA       26.0570   -5.5110   11.7230 C.ar  700  A48700      0.0000
      4  CAB       26.2660   -6.8710   11.8490 C.ar  700  A48700      0.0000
      5  CAC       26.8550   -7.4990   13.0940 C.3   700  A48700      0.0000
      6  CAF       25.9380   -7.6980   10.8110 C.ar  700  A48700      0.0000
      7  CAI       25.3940   -7.1810    9.6430 C.ar  700  A48700      0.0000
      8  CAJ       25.0900   -8.1960    8.5470 C.3   700  A48700      0.0000
      9  CAH       25.1420   -5.8120    9.4660 C.ar  700  A48700      0.0000
     10  B         24.6070   -5.3580    8.2220 B     700  A48700      0.0000
     11  N         23.4790   -6.0450    7.7320 N.pl3 700  A48700      0.0000
     12  CAW       23.0090   -7.1270    8.7310 C.3   700  A48700      0.0000
     13  CBD       22.2810   -8.4170    8.4110 C.3   700  A48700      0.0000
     14  FBF       22.6800   -8.9620    7.2640 F     700  A48700      0.0000
     15  FBE       22.5710   -9.1470    9.4790 F     700  A48700      0.0000
     16  FBC       20.9750   -8.2690    8.4180 F     700  A48700      0.0000
     17  CAP       22.9090   -5.6210    6.5240 C.ar  700  A48700      0.0000
     18  CAQ       23.7410   -5.2100    5.4740 C.ar  700  A48700      0.0000
     19  CAR       23.2410   -4.7360    4.2530 C.ar  700  A48700      0.0000
     20  CAZ       21.8670   -4.6560    4.0510 C.ar  700  A48700      0.0000
     21  OBA       21.3750   -4.1900    2.8590 O.3   700  A48700      0.0000
     22  CAY       21.0160   -5.0540    5.0900 C.ar  700  A48700      0.0000
     23  CAX       21.5310   -5.5280    6.3180 C.ar  700  A48700      0.0000
     24  CAM       25.2700   -4.2410    7.6450 C.ar  700  A48700      0.0000
     25  CAL       26.6480   -4.2440    7.3630 C.ar  700  A48700      0.0000
     26  CAG       27.4890   -5.5140    7.5390 C.3   700  A48700      0.0000
     27  CAK       27.2860   -3.0980    6.8780 C.ar  700  A48700      0.0000
     28  CAT       26.5760   -1.9160    6.6990 C.ar  700  A48700      0.0000
     29  CAS       27.2680   -0.6730    6.1680 C.3   700  A48700      0.0000
     30  CAU       25.2290   -1.8760    6.9930 C.ar  700  A48700      0.0000
     31  CAV       24.5880   -3.0150    7.4740 C.ar  700  A48700      0.0000
     32  CBB       23.0980   -2.8610    7.7910 C.3   700  A48700      0.0000
@<TRIPOS>BOND
     1    21    20    1
     2    20    19   ar
     3    20    22   ar
     4    19    18   ar
     5    22    23   ar
     6    18    17   ar
     7    29    28    1
     8    23    17   ar
     9    17    11    1
    10    28    27   ar
    11    28    30   ar
    12    27    25   ar
    13    30    31   ar
    14    14    13    1
    15    25    26    1
    16    25    24   ar
    17    31    24   ar
    18    31    32    1
    19    24    10    1
    20    11    10    1
    21    11    12    1
    22    10     9    1
    23    13    16    1
    24    13    12    1
    25    13    15    1
    26     8     7    1
    27     9     7   ar
    28     9     2   ar
    29     7     6   ar
    30     1     2    1
    31     2     3   ar
    32     6     4   ar
    33     3     4   ar
    34     4     5    1
