@<TRIPOS>MOLECULE
2q6k_ADN_A_1.pdb
 19 21 0 0 0
SMALL
GASTEIGER

@<TRIPOS>ATOM
      1  O5'       71.0070  -19.5520   -0.3930 O.3   699  ADN699     -0.2176
      2  C5'       69.9110  -20.2430   -1.0190 C.3   699  ADN699      0.2143
      3  C4'       69.5350  -19.5120   -2.3000 C.3   699  ADN699      0.1851
      4  O4'       70.4790  -19.7620   -3.3380 O.3   699  ADN699     -0.3134
      5  C3'       68.2190  -19.9540   -2.9100 C.3   699  ADN699      0.2186
      6  O3'       67.1290  -19.2740   -2.2800 O.3   699  ADN699     -0.2174
      7  C2'       68.3840  -19.6290   -4.3940 C.3   699  ADN699      0.2570
      8  O2'       67.5610  -18.5320   -4.8190 O.3   699  ADN699     -0.2130
      9  C1'       69.8640  -19.2730   -4.5230 C.3   699  ADN699      0.3186
     10  N9        70.4290  -19.8940   -5.7410 N.pl3 699  ADN699     -0.1439
     11  C8        70.5900  -21.2040   -5.9960 C.3   699  ADN699      0.3377
     12  N7        71.1170  -21.3570   -7.2360 N.2   699  ADN699     -0.2095
     13  C5        71.2880  -20.1170   -7.7470 C.2   699  ADN699      0.2526
     14  C6        71.7710  -19.6310   -8.9560 C.2   699  ADN699      0.4393
     15  N6        72.2060  -20.4840   -9.9150 N.pl3 699  ADN699      0.2180
     16  N1        71.8030  -18.2920   -9.1610 N.2   699  ADN699      0.0021
     17  C2        71.3770  -17.4250   -8.2280 C.3   699  ADN699      0.5254
     18  N3        70.9020  -17.8700   -7.0570 N.2   699  ADN699     -0.0055
     19  C4        70.8490  -19.2040   -6.8030 C.2   699  ADN699      0.3518
@<TRIPOS>BOND
     1    15    14    1
     2    16    14    2
     3    16    17    1
     4    14    13    1
     5    17    18    1
     6    13    12    2
     7    13    19    1
     8    12    11    1
     9    18    19    2
    10    19    10    1
    11    11    10    1
    12    10     9    1
    13     8     7    1
    14     9     7    1
    15     9     4    1
    16     7     5    1
    17     4     3    1
    18     5     3    1
    19     5     6    1
    20     3     2    1
    21     2     1    1
