@<TRIPOS>MOLECULE
2q6l_5CD_A_1.pdb
 19 21 0 0 0
SMALL
GASTEIGER

@<TRIPOS>ATOM
      1  N9        70.3880  -19.8580   -5.7290 N.pl3 500  5CD500     -0.1439
      2  C8        70.5390  -21.0970   -6.0320 C.3   500  5CD500      0.3377
      3  N7        71.0900  -21.1410   -7.1920 N.2   500  5CD500     -0.2095
      4  C5        71.2570  -19.9300   -7.6480 C.2   500  5CD500      0.2526
      5  C4        70.8330  -19.1210   -6.7010 C.2   500  5CD500      0.3518
      6  N3        70.9080  -17.8460   -6.8940 N.2   500  5CD500     -0.0055
      7  C2        71.3750  -17.3560   -7.9650 C.3   500  5CD500      0.5254
      8  N1        71.7980  -18.1070   -8.8930 N.2   500  5CD500      0.0021
      9  C6        71.7650  -19.4020   -8.7850 C.2   500  5CD500      0.4393
     10  N6        72.2360  -20.1920   -9.7450 N.pl3 500  5CD500      0.2180
     11  O2'       67.4560  -18.9990   -4.3970 O.3   500  5CD500     -0.2130
     12  C2'       68.4730  -19.9340   -4.1660 C.3   500  5CD500      0.2569
     13  C3'       68.5160  -20.2700   -2.7170 C.3   500  5CD500      0.2172
     14  O3'       67.4620  -19.5490   -2.1650 O.3   500  5CD500     -0.2175
     15  C4'       69.7910  -19.6900   -2.2480 C.3   500  5CD500      0.1685
     16  C5'       70.5090  -20.3940   -1.1370 C.3   500  5CD500      0.1271
     17 CL         71.0930  -19.3250    0.0630 Cl    500  5CD500     -0.1110
     18  O4'       70.5280  -19.7920   -3.4180 O.3   500  5CD500     -0.3148
     19  C1'       69.8010  -19.3700   -4.4970 C.3   500  5CD500      0.3186
@<TRIPOS>BOND
     1    10     9    1
     2     8     9    2
     3     8     7    1
     4     9     4    1
     5     7     6    1
     6     4     3    2
     7     4     5    1
     8     3     2    1
     9     6     5    2
    10     5     1    1
    11     2     1    1
    12     1    19    1
    13    19    12    1
    14    19    18    1
    15    11    12    1
    16    12    13    1
    17    18    15    1
    18    13    15    1
    19    13    14    1
    20    15    16    1
    21    16    17    1
