@<TRIPOS>MOLECULE
2q6n_HEM_A_1.pdb
 43 50 0 0 0
SMALL
GASTEIGER

@<TRIPOS>ATOM
      1 FE         87.8660  -36.0300   37.4120 Fe    500  HEM500      0.0000
      2  CHA       89.9660  -36.7490   39.9570 C.2   500  HEM500      0.0000
      3  CHB       90.1630  -36.9270   35.2330 C.2   500  HEM500      0.0000
      4  CHC       85.6750  -35.5820   34.9860 C.2   500  HEM500      0.0000
      5  CHD       85.7040  -34.8020   39.6110 C.2   500  HEM500      0.0000
      6  NA        89.6920  -36.9510   37.5410 N.ar  500  HEM500      0.0000
      7  C1A       90.4400  -37.0950   38.6840 C.ar  500  HEM500      0.0000
      8  C2A       91.7460  -37.4830   38.3540 C.ar  500  HEM500      0.0000
      9  C3A       91.7710  -37.5720   36.9760 C.ar  500  HEM500      0.0000
     10  C4A       90.4880  -37.2350   36.5350 C.ar  500  HEM500      0.0000
     11  CMA       92.9910  -37.9740   36.0560 C.3   500  HEM500      0.0000
     12  CAA       92.8880  -37.7490   39.3430 C.3   500  HEM500      0.0000
     13  CBA       92.9810  -39.1590   39.8170 C.3   500  HEM500      0.0000
     14  CGA       94.1230  -39.4150   40.7680 C.2   500  HEM500      0.0000
     15  O1A       94.1120  -38.9390   41.8990 O.co2 500  HEM500      0.0000
     16  O2A       95.0670  -40.0980   40.4140 O.co2 500  HEM500      0.0000
     17  NB        87.9140  -36.2520   35.3650 N.2   500  HEM500      0.0000
     18  C1B       88.9400  -36.6590   34.6430 C.2   500  HEM500      0.0000
     19  C2B       88.5890  -36.7810   33.2730 C.2   500  HEM500      0.0000
     20  C3B       87.2280  -36.4020   33.2240 C.2   500  HEM500      0.0000
     21  C4B       86.8890  -36.0890   34.5600 C.2   500  HEM500      0.0000
     22  CMB       89.5130  -37.2250   32.1640 C.3   500  HEM500      0.0000
     23  CAB       86.3470  -36.3320   32.1190 C.3   500  HEM500      0.0000
     24  CBB       86.5610  -35.8190   30.7510 C.3   500  HEM500      0.0000
     25  NC        85.9580  -35.2740   37.3030 N.ar  500  HEM500      0.0000
     26  C1C       85.1750  -35.3690   36.2470 C.ar  500  HEM500      0.0000
     27  C2C       83.8770  -35.0010   36.5290 C.ar  500  HEM500      0.0000
     28  C3C       83.8650  -34.6470   37.8920 C.ar  500  HEM500      0.0000
     29  C4C       85.2020  -34.8400   38.3220 C.ar  500  HEM500      0.0000
     30  CMC       82.6770  -34.9830   35.5280 C.3   500  HEM500      0.0000
     31  CAC       82.8680  -34.2050   38.7210 C.3   500  HEM500      0.0000
     32  CBC       81.7580  -34.9040   39.2570 C.3   500  HEM500      0.0000
     33  ND        87.7910  -35.8580   39.4580 N.2   500  HEM500      0.0000
     34  C1D       86.7690  -35.4390   40.1410 C.2   500  HEM500      0.0000
     35  C2D       87.0610  -35.4740   41.5090 C.2   500  HEM500      0.0000
     36  C3D       88.3400  -35.9410   41.6440 C.2   500  HEM500      0.0000
     37  C4D       88.7670  -36.1730   40.3210 C.2   500  HEM500      0.0000
     38  CMD       86.1250  -35.0680   42.6670 C.3   500  HEM500      0.0000
     39  CAD       89.1270  -36.1610   42.9730 C.3   500  HEM500      0.0000
     40  CBD       88.8960  -37.6010   43.5280 C.3   500  HEM500      0.0000
     41  CGD       89.5810  -38.0040   44.8480 C.2   500  HEM500      0.0000
     42  O1D       89.3510  -39.0760   45.3570 O.co2 500  HEM500      0.0000
     43  O2D       90.3680  -37.2150   45.3950 O.co2 500  HEM500      0.0000
@<TRIPOS>BOND
     1    24    23    1
     2    23    20    1
     3    22    19    1
     4    20    19    2
     5    20    21    1
     6    19    18    1
     7    21     4    2
     8    21    17    1
     9    18     3    1
    10    18    17    2
    11     4    26    1
    12     3    10    2
    13    17     1    1
    14    30    27    1
    15    11     9    1
    16    26    27   ar
    17    26    25   ar
    18    27    28   ar
    19    10     9   ar
    20    10     6   ar
    21     9     8   ar
    22    25     1    1
    23    25    29   ar
    24     1     6    1
    25     1    33    1
    26     6     7   ar
    27    28    29   ar
    28    28    31    1
    29    29     5    1
    30     8     7   ar
    31     8    12    1
    32     7     2    2
    33    31    32    1
    34    12    13    1
    35    33    34    1
    36    33    37    2
    37     5    34    2
    38    13    14    1
    39     2    37    1
    40    34    35    1
    41    37    36    1
    42    16    14   ar
    43    14    15   ar
    44    35    36    2
    45    35    38    1
    46    36    39    1
    47    39    40    1
    48    40    41    1
    49    41    42   ar
    50    41    43   ar
