@<TRIPOS>MOLECULE
2q6n_1CI_A_1.pdb
 12 13 0 0 0
SMALL
GASTEIGER

@<TRIPOS>ATOM
      1  C11       90.5010  -30.2980   38.7620 C.ar  501  1CI501      0.0184
      2  C10       91.3890  -29.4300   39.3890 C.ar  501  1CI501      0.0129
      3  C9        92.6540  -29.8770   39.7530 C.ar  501  1CI501      0.0578
      4 CL         93.7700  -28.7920   40.5070 Cl    501  1CI501     -0.0822
      5  C8        93.0280  -31.1910   39.4960 C.ar  501  1CI501      0.0129
      6  C7        92.1390  -32.0590   38.8710 C.ar  501  1CI501      0.0184
      7  C6        90.8760  -31.6110   38.5010 C.ar  501  1CI501      0.0656
      8  N1        90.0410  -32.4240   37.8590 N.ar  501  1CI501     -0.2864
      9  C5        89.3600  -32.1250   36.7570 C.ar  501  1CI501      0.1022
     10  C4        88.6460  -33.1920   36.4100 C.ar  501  1CI501      0.1196
     11  N3        88.8840  -34.1520   37.2980 N.ar  501  1CI501     -0.2220
     12  C2        89.7480  -33.6780   38.1920 C.ar  501  1CI501      0.1828
@<TRIPOS>BOND
     1    10     9   ar
     2    10    11   ar
     3     9     8   ar
     4    11    12   ar
     5     8    12   ar
     6     8     7    1
     7     7     1   ar
     8     7     6   ar
     9     1     2   ar
    10     6     5   ar
    11     2     3   ar
    12     5     3   ar
    13     3     4    1
