@<TRIPOS>MOLECULE
2q6o_SAM_A_1.pdb
 27 29 0 0 0
SMALL
GASTEIGER

@<TRIPOS>ATOM
      1  N        -14.3830   69.4510    3.3730 N.3   500  SAM500     -0.1208
      2  CA       -15.2190   70.5640    2.8420 C.3   500  SAM500      0.1952
      3  C        -16.5120   70.0670    2.2490 C.2   500  SAM500      0.3819
      4  O        -17.5140   70.7720    2.1980 O.co2 500  SAM500     -0.2441
      5  OXT      -16.6270   68.9500    1.7940 O.co2 500  SAM500     -0.2441
      6  CB       -14.4920   71.4020    1.7970 C.3   500  SAM500      0.0414
      7  CG       -13.7760   72.6570    2.3540 C.3   500  SAM500      0.0503
      8  SD       -14.6080   73.7980    3.2610 S.3   500  SAM500     -0.1761
      9  CE       -16.2160   73.4520    3.6360 C.3   500  SAM500      0.0590
     10  C5'      -14.6060   75.2280    2.3110 C.3   500  SAM500      0.0806
     11  C4'      -13.9540   76.4770    2.9820 C.3   500  SAM500      0.1622
     12  O4'      -14.7640   76.7580    4.1150 O.3   500  SAM500     -0.3153
     13  C3'      -12.5420   76.3250    3.5500 C.3   500  SAM500      0.2168
     14  O3'      -11.5900   77.0740    2.7660 O.3   500  SAM500     -0.2175
     15  C2'      -12.5620   76.8560    4.9890 C.3   500  SAM500      0.2569
     16  O2'      -11.5760   77.9320    5.1510 O.3   500  SAM500     -0.2130
     17  C1'      -14.0080   77.3180    5.1710 C.3   500  SAM500      0.3185
     18  N9       -14.6200   76.7140    6.3660 N.pl3 500  SAM500     -0.1439
     19  C8       -14.7810   75.4020    6.6140 C.3   500  SAM500      0.3377
     20  N7       -15.3420   75.1960    7.8250 N.2   500  SAM500     -0.2095
     21  C5       -15.5910   76.4180    8.3540 C.2   500  SAM500      0.2526
     22  C6       -16.1640   76.9900    9.6090 C.2   500  SAM500      0.4393
     23  N6       -16.6680   76.2250   10.6320 N.pl3 500  SAM500      0.2180
     24  N1       -16.1660   78.3610    9.6920 N.2   500  SAM500      0.0021
     25  C2       -15.6890   79.1500    8.7380 C.3   500  SAM500      0.5254
     26  N3       -15.1670   78.7250    7.5880 N.2   500  SAM500     -0.0055
     27  C4       -15.1090   77.4030    7.3500 C.2   500  SAM500      0.3518
@<TRIPOS>BOND
     1     5     3   ar
     2     6     7    1
     3     6     2    1
     4     4     3   ar
     5     3     2    1
     6    10    11    1
     7    10     8    1
     8     7     8    1
     9    14    13    1
    10     2     1    1
    11    11    13    1
    12    11    12    1
    13     8     9    1
    14    13    15    1
    15    12    17    1
    16    15    16    1
    17    15    17    1
    18    17    18    1
    19    18    19    1
    20    18    27    1
    21    19    20    1
    22    27    26    2
    23    27    21    1
    24    26    25    1
    25    20    21    2
    26    21    22    1
    27    25    24    1
    28    22    24    2
    29    22    23    1
