@<TRIPOS>MOLECULE
2q6r_SF2_A_1.pdb
 29 32 0 0 0
SMALL
GASTEIGER

@<TRIPOS>ATOM
      1  CAA      -12.7490   14.3290  -13.1760 C.3   5001  SF25001     0.2525
      2  OAR      -12.5380   15.7700  -13.1460 O.3   5001  SF25001    -0.4714
      3  CAW      -13.6280   16.4650  -12.7000 C.ar  5001  SF25001     0.1385
      4  CAO      -13.7780   16.7500  -11.3320 C.ar  5001  SF25001     0.0345
      5  CAJ      -14.5780   16.9100  -13.6220 C.ar  5001  SF25001     0.0369
      6  CAH      -15.6870   17.6240  -13.1780 C.ar  5001  SF25001     0.0029
      7  CAI      -15.8300   17.8940  -11.8180 C.ar  5001  SF25001    -0.0022
      8  CAV      -14.8900   17.4670  -10.8710 C.ar  5001  SF25001     0.0034
      9  CAQ      -15.1010   17.7950   -9.3570 C.3   5001  SF25001     0.1330
     10  NBC      -16.2230   18.7570   -9.2720 N.ar  5001  SF25001    -0.3174
     11  CAZ      -16.1290   20.0950   -9.2030 C.ar  5001  SF25001     0.1470
     12  CAT      -14.8460   20.9370   -9.1060 C.2   5001  SF25001     0.4038
     13  OAB      -13.7610   20.3460   -8.9030 O.co2 5001  SF25001    -0.2389
     14  OAC      -14.9490   22.1820   -9.1900 O.co2 5001  SF25001    -0.2389
     15  CBB      -17.5110   18.3870   -9.3190 C.ar  5001  SF25001     0.0609
     16  CAN      -18.1450   17.1440   -9.4080 C.ar  5001  SF25001     0.0181
     17  CAM      -19.5370   17.0740   -9.4320 C.ar  5001  SF25001     0.0129
     18  CAU      -20.2990   18.2360   -9.3700 C.ar  5001  SF25001     0.0578
     19 CLAD      -22.0230   18.1530   -9.3980 Cl    5001  SF25001    -0.0822
     20  CAP      -19.6720   19.4700   -9.2810 C.ar  5001  SF25001     0.0134
     21  CBA      -18.2860   19.5450   -9.2610 C.ar  5001  SF25001     0.0243
     22  CAY      -17.4170   20.6120   -9.1480 C.ar  5001  SF25001     0.0532
     23  SAS      -17.9100   22.3130   -9.1190 S.3   5001  SF25001    -0.0852
     24  CAX      -18.1870   23.0530   -7.5650 C.ar  5001  SF25001     0.0295
     25  CAK      -19.0770   22.5520   -6.6160 C.ar  5001  SF25001     0.0065
     26  CAF      -19.2530   23.2440   -5.4160 C.ar  5001  SF25001     0.0005
     27  CAE      -18.5690   24.4330   -5.1700 C.ar  5001  SF25001     0.0000
     28  CAG      -17.6970   24.9420   -6.1320 C.ar  5001  SF25001     0.0005
     29  CAL      -17.5210   24.2550   -7.3300 C.ar  5001  SF25001     0.0065
@<TRIPOS>BOND
     1     5     6   ar
     2     5     3   ar
     3     6     7   ar
     4     1     2    1
     5     2     3    1
     6     3     4   ar
     7     7     8   ar
     8     4     8   ar
     9     8     9    1
    10    17    16   ar
    11    17    18   ar
    12    16    15   ar
    13    19    18    1
    14    18    20   ar
    15     9    10    1
    16    15    10   ar
    17    15    21   ar
    18    20    21   ar
    19    10    11   ar
    20    21    22   ar
    21    11    22   ar
    22    11    12    1
    23    14    12   ar
    24    22    23    1
    25    23    24    1
    26    12    13   ar
    27    24    29   ar
    28    24    25   ar
    29    29    28   ar
    30    25    26   ar
    31    28    27   ar
    32    26    27   ar
