@<TRIPOS>MOLECULE
2q6s_PLB_B_1.pdb
 27 29 0 0 0
SMALL
GASTEIGER

@<TRIPOS>ATOM
      1 CL20       33.5840   28.7160   36.4410 Cl    5001  PLB5001    -0.0822
      2  C16       34.5070   29.6500   37.5840 C.ar  5001  PLB5001     0.0585
      3  C15       34.3420   29.3540   38.9450 C.ar  5001  PLB5001     0.0229
      4  C14       35.0360   30.0760   39.9260 C.ar  5001  PLB5001     0.0629
      5 CL19       34.8340   29.6880   41.6230 Cl    5001  PLB5001    -0.0821
      6  C17       35.3670   30.6850   37.1710 C.ar  5001  PLB5001     0.0116
      7  C18       36.0670   31.4110   38.1450 C.ar  5001  PLB5001     0.0063
      8  C13       35.8890   31.1110   39.5170 C.ar  5001  PLB5001     0.0660
      9  C11       36.6820   31.9230   40.5460 C.2   5001  PLB5001     0.2698
     10  O12       36.4360   33.1200   40.7290 O.2   5001  PLB5001    -0.2680
     11  N10       37.5870   31.1930   41.2090 N.am  5001  PLB5001    -0.1752
     12  C2        38.5190   31.6070   42.0760 C.ar  5001  PLB5001     0.0802
     13  C3        38.8170   32.9670   42.1400 C.ar  5001  PLB5001     0.0200
     14  C4        39.8310   33.4340   42.9540 C.ar  5001  PLB5001     0.0400
     15  C5        40.5810   32.5480   43.7140 C.ar  5001  PLB5001     0.1597
     16  C6        40.3400   31.1740   43.6250 C.ar  5001  PLB5001     0.0465
     17  C1        39.3090   30.6970   42.7920 C.ar  5001  PLB5001     0.0981
     18  C7        39.0170   29.1800   42.7390 C.2   5001  PLB5001     0.3891
     19  O9        38.0070   28.7490   42.0970 O.co2 5001  PLB5001    -0.2405
     20  O8        39.8100   28.4570   43.3980 O.co2 5001  PLB5001    -0.2405
     21  O21       41.5750   33.1340   44.4290 O.3   5001  PLB5001    -0.3917
     22  C22       42.0870   32.9150   45.6640 C.1   5001  PLB5001     0.1964
     23  N27       41.3200   32.5820   46.7190 N.2   5001  PLB5001    -0.1847
     24  C26       41.8900   32.4100   47.9050 C.3   5001  PLB5001     0.1670
     25  C25       43.2670   32.5920   48.0560 C.2   5001  PLB5001     0.0224
     26  C24       44.0310   32.9550   46.9470 C.2   5001  PLB5001     0.1099
     27  N23       43.4200   33.1160   45.7880 N.2   5001  PLB5001    -0.1623
@<TRIPOS>BOND
     1     1     2    1
     2     6     2   ar
     3     6     7   ar
     4     2     3   ar
     5     7     8   ar
     6     3     4   ar
     7     8     4   ar
     8     8     9    1
     9     4     5    1
    10     9    10    2
    11     9    11   am
    12    11    12    1
    13    12    13   ar
    14    12    17   ar
    15    19    18   ar
    16    13    14   ar
    17    18    17    1
    18    18    20   ar
    19    17    16   ar
    20    14    15   ar
    21    16    15   ar
    22    15    21    1
    23    21    22    1
    24    22    27    2
    25    22    23    2
    26    27    26    1
    27    23    24    1
    28    26    25    2
    29    24    25    1
