@<TRIPOS>MOLECULE
2q6v_UDP_A_1.pdb
 25 26 0 0 0
SMALL
GASTEIGER

@<TRIPOS>ATOM
      1  N1        18.6840   70.6350   -6.5880 N.am  1081  UDP1081    -0.1996
      2  C2        17.7010   70.6770   -7.5710 C.1   1081  UDP1081     0.2802
      3  N3        18.0690   70.6190   -8.9000 N.2   1081  UDP1081    -0.2497
      4  C4        19.4050   70.5160   -9.2200 C.1   1081  UDP1081     0.1941
      5  C5        20.3920   70.4830   -8.2100 C.3   1081  UDP1081     0.1579
      6  C6        20.0150   70.7940   -6.9220 C.3   1081  UDP1081     0.1249
      7  O2        16.5100   70.7680   -7.2710 O.2   1081  UDP1081    -0.1922
      8  O4        19.7100   70.4580  -10.3920 O.2   1081  UDP1081    -0.2133
      9  C1'       18.2570   70.7120   -5.1850 C.3   1081  UDP1081     0.2361
     10  C2'       18.4780   69.4290   -4.3950 C.3   1081  UDP1081     0.2316
     11  O2'       17.2550   68.7480   -4.4160 O.3   1081  UDP1081    -0.2157
     12  C3'       18.5900   69.9300   -2.9910 C.3   1081  UDP1081     0.2158
     13  C4'       19.0380   71.3790   -3.1370 C.3   1081  UDP1081     0.1799
     14  O4'       18.9860   71.6920   -4.5090 O.3   1081  UDP1081    -0.3322
     15  O3'       17.1870   70.0750   -2.6380 O.3   1081  UDP1081    -0.2175
     16  C5'       20.3660   71.7380   -2.5130 C.3   1081  UDP1081     0.1813
     17  O5'       21.3850   71.1040   -3.1990 O.3   1081  UDP1081    -0.3111
     18  PA        22.8540   71.3340   -2.6400 P.3   1081  UDP1081     0.2231
     19  O1A       23.3530   72.6930   -2.8770 O.3   1081  UDP1081    -0.4370
     20  O2A       23.8240   70.3610   -3.2000 O.2   1081  UDP1081    -0.5169
     21  O3A       22.7310   71.1670   -1.0580 O.3   1081  UDP1081    -0.2261
     22  PB        22.4510   69.8160   -0.2340 P.3   1081  UDP1081     0.5373
     23  O1B       22.3640   70.4840    1.0380 O.3   1081  UDP1081    -0.1143
     24  O2B       23.5400   68.8280   -0.3090 O.3   1081  UDP1081    -0.1143
     25  O3B       21.3400   68.9960   -0.7250 O.2   1081  UDP1081    -0.2221
@<TRIPOS>BOND
     1     8     4    2
     2     4     3    2
     3     4     5    1
     4     3     2    2
     5     5     6    1
     6     2     7    2
     7     2     1   am
     8     6     1    1
     9     1     9    1
    10     9    14    1
    11     9    10    1
    12    14    13    1
    13    11    10    1
    14    10    12    1
    15    20    18    2
    16    17    18    1
    17    17    16    1
    18    13    12    1
    19    13    16    1
    20    12    15    1
    21    19    18    1
    22    18    21    1
    23    21    22    1
    24    25    22    2
    25    24    22    1
    26    22    23    1
