@<TRIPOS>MOLECULE
2q70_DC8_A_1.pdb
 23 26 0 0 0
SMALL
GASTEIGER

@<TRIPOS>ATOM
      1  C4        12.2810   50.2890   59.1620 C.ar   50  DC850       0.1350
      2  C6        10.5620   51.6960   59.9340 C.3    50  DC850       0.1885
      3  C8        11.4110   52.1380   61.1760 C.3    50  DC850       0.0542
      4  C10       11.2730   51.1800   62.3790 C.3    50  DC850       0.0708
      5  C15       12.9320   52.1570   60.8180 C.3    50  DC850       0.0348
      6  C17       13.2840   51.0830   59.7740 C.ar   50  DC850       0.0150
      7  C20        8.3050   50.5220   60.0900 C.ar   50  DC850       0.0025
      8  C21        6.9350   50.5270   60.3570 C.ar   50  DC850       0.0418
      9  C22        6.3100   51.7130   60.7780 C.ar   50  DC850       0.1957
     10  C24        7.0620   52.9010   60.9240 C.ar   50  DC850       0.0418
     11  C1        14.9850   49.9060   58.4410 C.ar   50  DC850       0.1956
     12  C2        13.9750   49.1260   57.8400 C.ar   50  DC850       0.0451
     13  C3        12.6390   49.3120   58.1980 C.ar   50  DC850       0.0399
     14  O5        10.9470   50.3950   59.4550 O.3    50  DC850      -0.4751
     15  C11       12.5430   51.4310   63.1950 C.3    50  DC850       0.2644
     16  F12       12.3120   52.4470   64.1220 F      50  DC850      -0.2043
     17  F13       12.9280   50.2730   63.8650 F      50  DC850      -0.2043
     18  C14       13.6470   51.8440   62.1880 C.3    50  DC850       0.0711
     19  C18       14.6420   50.8900   59.4060 C.ar   50  DC850       0.0407
     20  C19        9.0630   51.7050   60.2350 C.ar   50  DC850       0.0174
     21  O23        4.9970   51.7140   61.0400 O.3    50  DC850      -0.2866
     22  C25        8.4330   52.8970   60.6540 C.ar   50  DC850       0.0025
     23  O26       16.2800   49.7080   58.0850 O.3    50  DC850      -0.2866
@<TRIPOS>BOND
     1    12    13   ar
     2    12    11   ar
     3    23    11    1
     4    13     1   ar
     5    11    19   ar
     6     1    14    1
     7     1     6   ar
     8    19     6   ar
     9    14     2    1
    10     6     5    1
    11     2    20    1
    12     2     3    1
    13     7    20   ar
    14     7     8   ar
    15    20    22   ar
    16     8     9   ar
    17    22    10   ar
    18     9    10   ar
    19     9    21    1
    20     5     3    1
    21     5    18    1
    22     3     4    1
    23    18    15    1
    24     4    15    1
    25    15    17    1
    26    15    16    1
