@<TRIPOS>MOLECULE
2q71_CP3_A_1.pdb
 48 52 0 0 0
SMALL
GASTEIGER

@<TRIPOS>ATOM
      1  O2R       16.6580   77.8790   61.4860 O.co2 867  CP3867     -0.2456
      2  C63       16.1530   76.8410   61.0140 C.2   867  CP3867      0.3652
      3  O1R       15.3860   76.8420   60.0370 O.co2 867  CP3867     -0.2456
      4  C62       16.4680   75.5040   61.6350 C.3   867  CP3867      0.1188
      5  C61       15.9650   75.4370   63.0680 C.3   867  CP3867      0.0411
      6  C18       14.4500   75.3770   63.1240 C.2   867  CP3867      0.0143
      7  C19       13.7170   74.2790   62.9090 C.2   867  CP3867      0.1469
      8  N24       12.3720   74.5730   63.0720 N.2   867  CP3867     -0.3673
      9  C20       14.3530   72.9660   62.5720 C.2   867  CP3867      0.0981
     10  C1        13.5290   72.0180   61.7390 C.1   867  CP3867      0.0112
     11  C17       13.5590   76.4260   63.4340 C.2   867  CP3867      0.0336
     12  C86       13.9930   77.8420   63.7330 C.3   867  CP3867      0.0412
     13  C16       12.2850   75.9210   63.3850 C.1   867  CP3867      0.0084
     14  C15       10.9850   76.6500   63.6610 C.2   867  CP3867      0.1301
     15  C14        9.9430   76.3570   62.6030 C.1   867  CP3867      0.0183
     16  N23        9.2130   75.1890   62.4600 N.2   867  CP3867     -0.3327
     17  C13        9.5670   77.2110   61.6170 C.2   867  CP3867      0.0410
     18  C51       10.1190   78.6080   61.3740 C.3   867  CP3867      0.0482
     19  C52        9.4510   79.6210   62.2920 C.3   867  CP3867      0.1194
     20  C53       10.1050   80.9820   62.1790 C.2   867  CP3867      0.3652
     21  O2M       10.3900   81.4470   61.0410 O.co2 867  CP3867     -0.2456
     22  O1M       10.3320   81.5890   63.2510 O.co2 867  CP3867     -0.2456
     23  C12        8.5690   76.5700   60.8440 C.2   867  CP3867      0.0408
     24  C81        7.8840   77.1850   59.6390 C.3   867  CP3867      0.0418
     25  C11        8.3530   75.3220   61.3800 C.1   867  CP3867      0.0183
     26  C10        7.3920   74.2490   60.8770 C.2   867  CP3867      0.1301
     27  C6         8.1550   73.1610   60.1170 C.1   867  CP3867      0.0084
     28  N22        9.0620   72.3080   60.7050 N.2   867  CP3867     -0.3673
     29  C7         8.1270   72.8440   58.7850 C.2   867  CP3867      0.0336
     30  C7A        7.3010   73.5190   57.7180 C.3   867  CP3867      0.0412
     31  C8         9.0360   71.7860   58.5470 C.2   867  CP3867      0.0143
     32  C41        9.3330   71.1420   57.1970 C.3   867  CP3867      0.0411
     33  C42       10.4240   71.8950   56.3930 C.3   867  CP3867      0.1188
     34  C43        9.9060   73.0660   55.5450 C.2   867  CP3867      0.3652
     35  O28       10.2170   74.2310   55.8860 O.co2 867  CP3867     -0.2456
     36  O18        9.1730   72.8640   54.5320 O.co2 867  CP3867     -0.2456
     37  C9         9.6010   71.4720   59.7570 C.2   867  CP3867      0.1469
     38  C5        10.6190   70.3890   60.0790 C.2   867  CP3867      0.0981
     39  C4        11.9340   70.8920   60.6590 C.1   867  CP3867      0.0112
     40  N21       12.1650   71.9820   61.4710 N.2   867  CP3867     -0.3338
     41  C3        13.1230   70.2730   60.4700 C.2   867  CP3867      0.0404
     42  C2        14.1370   70.9850   61.1510 C.2   867  CP3867      0.0402
     43  C2A       15.6330   70.7220   61.2560 C.3   867  CP3867      0.0418
     44  C31       13.2010   68.9830   59.6940 C.3   867  CP3867      0.0482
     45  C32       14.5160   68.4380   59.1990 C.3   867  CP3867      0.1194
     46  C33       14.0090   68.1690   57.8130 C.2   867  CP3867      0.3652
     47  O13       14.7790   68.0070   56.8580 O.co2 867  CP3867     -0.2456
     48  O23       12.7540   68.1490   57.7060 O.co2 867  CP3867     -0.2456
@<TRIPOS>BOND
     1    36    34   ar
     2    34    35   ar
     3    34    33    1
     4    33    32    1
     5    47    46   ar
     6    32    31    1
     7    48    46   ar
     8    30    29    1
     9    46    45    1
    10    31    29    2
    11    31    37    1
    12    29    27    1
    13    45    44    1
    14    24    23    1
    15    44    41    1
    16    37    38    1
    17    37    28    2
    18     3     2   ar
    19    38    39    2
    20    27    28    2
    21    27    26    2
    22    41    39    1
    23    41    42    2
    24    39    40    2
    25    23    25    2
    26    23    17    1
    27    26    25    1
    28     2     1   ar
    29     2     4    1
    30    21    20   ar
    31    42    43    1
    32    42    10    1
    33    18    17    1
    34    18    19    1
    35    25    16    2
    36    40    10    2
    37    17    15    2
    38     4     5    1
    39    10     9    2
    40    20    19    1
    41    20    22   ar
    42    16    15    2
    43     9     7    1
    44    15    14    1
    45     7     8    2
    46     7     6    1
    47     5     6    1
    48     8    13    2
    49     6    11    2
    50    13    11    1
    51    13    14    2
    52    11    12    1
