@<TRIPOS>MOLECULE
2q72_IXX_A_1.pdb
 21 23 0 0 0
SMALL
GASTEIGER

@<TRIPOS>ATOM
      1  C11       28.0570   22.6820   22.0300 C.ar  801  IXX801      0.0515
      2  C10       28.4390   23.8920   22.6870 C.ar  801  IXX801      0.0148
      3  C9        28.9100   25.0100   21.9700 C.ar  801  IXX801      0.0013
      4  C8        29.0100   24.9490   20.5780 C.ar  801  IXX801      0.0001
      5  C7        28.6500   23.7870   19.8950 C.ar  801  IXX801      0.0012
      6  C2        23.9350   20.3950   22.9450 C.ar  801  IXX801      0.0013
      7  C6        27.8050   21.3990   19.6590 C.2   801  IXX801      0.0013
      8  C5        27.3790   20.1170   20.3540 C.2   801  IXX801      0.0013
      9  N1        27.5730   21.5670   22.8480 N.pl3 801  IXX801     -0.2868
     10  C3        23.8880   19.7000   21.7310 C.ar  801  IXX801      0.0001
     11  N2        28.6990   17.6650   25.1850 N.3   801  IXX801     -0.2703
     12  C4        25.0120   19.6310   20.9280 C.ar  801  IXX801      0.0012
     13  C1        25.1470   21.0270   23.3410 C.ar  801  IXX801      0.0148
     14  C12       28.1710   22.6260   20.5470 C.ar  801  IXX801      0.0136
     15  C13       26.2310   20.2430   21.2890 C.ar  801  IXX801      0.0136
     16  C14       26.3100   20.9490   22.5070 C.ar  801  IXX801      0.0515
     17  C15       28.2000   21.3890   24.2140 C.3   801  IXX801      0.0970
     18  C16       27.9200   20.0600   24.9640 C.3   801  IXX801      0.0391
     19  C17       28.6080   18.8840   24.3110 C.3   801  IXX801      0.0739
     20  C18       29.6650   16.6810   24.6660 C.3   801  IXX801      0.0897
     21  C19       27.3550   17.0210   25.3210 C.3   801  IXX801      0.0897
@<TRIPOS>BOND
     1     7     8    2
     2     7    14    1
     3     5    14   ar
     4     5     4   ar
     5     8    15    1
     6    14     1   ar
     7     4     3   ar
     8    12    15   ar
     9    12    10   ar
    10    15    16   ar
    11    10     6   ar
    12     3     2   ar
    13     1     2   ar
    14     1     9    1
    15    16     9    1
    16    16    13   ar
    17     9    17    1
    18     6    13   ar
    19    17    18    1
    20    19    18    1
    21    19    11    1
    22    20    11    1
    23    11    21    1
