@<TRIPOS>MOLECULE
2q7a_HEM_A_1.pdb
 43 50 0 0 0
SMALL
GASTEIGER

@<TRIPOS>ATOM
      1  CHA       26.7990    7.6980   -1.3480 C.2   182  HEM182      0.0000
      2  CHB       22.8950    9.4430    0.8720 C.2   182  HEM182      0.0000
      3  CHC       25.5260   13.2560    2.3060 C.2   182  HEM182      0.0000
      4  CHD       29.5090   11.5050    0.1500 C.2   182  HEM182      0.0000
      5  C1A       25.5190    7.8330   -0.8820 C.2   182  HEM182      0.0000
      6  C2A       24.4250    6.9010   -1.1200 C.2   182  HEM182      0.0000
      7  C3A       23.3330    7.3830   -0.5090 C.2   182  HEM182      0.0000
      8  C4A       23.7130    8.6300    0.1280 C.2   182  HEM182      0.0000
      9  CMA       21.9090    6.7600   -0.4670 C.3   182  HEM182      0.0000
     10  CAA       24.5410    5.5930   -1.9480 C.3   182  HEM182      0.0000
     11  CBA       25.4840    4.5910   -1.2720 C.3   182  HEM182      0.0000
     12  CGA       24.9500    4.1010    0.0640 C.2   182  HEM182      0.0000
     13  O1A       23.7240    3.8860    0.2040 O.co2 182  HEM182      0.0000
     14  O2A       25.7550    3.9100    1.0090 O.co2 182  HEM182      0.0000
     15  C1B       23.2860   10.6230    1.4640 C.ar  182  HEM182      0.0000
     16  C2B       22.4240   11.4820    2.2400 C.ar  182  HEM182      0.0000
     17  C3B       23.1490   12.5420    2.6420 C.ar  182  HEM182      0.0000
     18  C4B       24.4850   12.3780    2.1130 C.ar  182  HEM182      0.0000
     19  CMB       20.9390   11.1590    2.5360 C.3   182  HEM182      0.0000
     20  CAB       22.6900   13.7470    3.5010 C.2   182  HEM182      0.0000
     21  CBB       21.7920   13.6180    4.4990 C.2   182  HEM182      0.0000
     22  C1C       26.8310   13.1000    1.8810 C.2   182  HEM182      0.0000
     23  C2C       27.9280   13.9960    2.1870 C.2   182  HEM182      0.0000
     24  C3C       29.0320   13.5210    1.5990 C.2   182  HEM182      0.0000
     25  C4C       28.6740   12.3020    0.8940 C.2   182  HEM182      0.0000
     26  CMC       27.8270   15.2660    3.0660 C.3   182  HEM182      0.0000
     27  CAC       30.4400   14.1610    1.6500 C.2   182  HEM182      0.0000
     28  CBC       31.1920   14.0920    2.7560 C.2   182  HEM182      0.0000
     29  C1D       29.1510   10.3300   -0.4850 C.ar  182  HEM182      0.0000
     30  C2D       30.0230    9.5360   -1.3160 C.ar  182  HEM182      0.0000
     31  C3D       29.1690    8.3570   -1.7820 C.ar  182  HEM182      0.0000
     32  C4D       27.8710    8.5490   -1.1800 C.ar  182  HEM182      0.0000
     33  CMD       31.5070    9.8230   -1.6600 C.3   182  HEM182      0.0000
     34  CAD       29.6040    7.1790   -2.6840 C.3   182  HEM182      0.0000
     35  CBD       29.9880    6.0290   -1.7440 C.3   182  HEM182      0.0000
     36  CGD       30.1560    4.7290   -2.4970 C.2   182  HEM182      0.0000
     37  O1D       29.3030    3.8120   -2.3150 O.co2 182  HEM182      0.0000
     38  O2D       31.1600    4.6100   -3.2580 O.co2 182  HEM182      0.0000
     39  NA        25.0480    8.8740   -0.1150 N.2   182  HEM182      0.0000
     40  NB        24.5380   11.1960    1.4000 N.ar  182  HEM182      0.0000
     41  NC        27.3230   12.0770    1.0840 N.2   182  HEM182      0.0000
     42  ND        27.8960    9.7140   -0.4310 N.ar  182  HEM182      0.0000
     43 FE         26.2470   10.3980    0.5580 Fe    182  HEM182      0.0000
@<TRIPOS>BOND
     1    38    36   ar
     2    34    31    1
     3    34    35    1
     4    36    37   ar
     5    36    35    1
     6    10    11    1
     7    10     6    1
     8    31    30   ar
     9    31    32   ar
    10    33    30    1
    11     1    32    2
    12     1     5    1
    13    30    29   ar
    14    11    12    1
    15    32    42   ar
    16     6     5    1
    17     6     7    2
    18     5    39    2
    19     7     9    1
    20     7     8    1
    21    29    42   ar
    22    29     4    2
    23    42    43    1
    24    39     8    1
    25    39    43    1
    26    12    13   ar
    27    12    14   ar
    28     8     2    2
    29     4    25    1
    30    43    41    1
    31    43    40    1
    32     2    15    1
    33    25    41    2
    34    25    24    1
    35    41    22    1
    36    40    15   ar
    37    40    18   ar
    38    15    16   ar
    39    24    27    1
    40    24    23    2
    41    27    28    2
    42    22    23    1
    43    22     3    2
    44    18     3    1
    45    18    17   ar
    46    23    26    1
    47    16    19    1
    48    16    17   ar
    49    17    20    1
    50    20    21    2
