@<TRIPOS>MOLECULE
2q7d_ANP_A_1.pdb
 31 33 0 0 0
SMALL
GASTEIGER

@<TRIPOS>ATOM
      1  PG        -0.4970   17.5130  -37.4080 P.3   917  ANP917      0.4884
      2  O1G       -0.2090   18.9570  -37.1160 O.3   917  ANP917     -0.1240
      3  O2G        0.6920   16.6140  -37.1680 O.2   917  ANP917     -0.2331
      4  O3G       -1.7510   16.9980  -36.7160 O.3   917  ANP917     -0.1240
      5  PB        -1.9910   16.6580  -39.9350 P.3   917  ANP917      0.4669
      6  O1B       -1.5820   15.2530  -40.3330 O.2   917  ANP917     -0.2351
      7  O2B       -3.3360   16.7380  -39.2370 O.3   917  ANP917     -0.1253
      8  N3B       -0.7490   17.4700  -39.1040 N.3   917  ANP917     -0.0163
      9  PA        -2.5630   18.9540  -41.5830 P.3   917  ANP917      0.2220
     10  O1A       -4.0500   18.9820  -41.8260 O.2   917  ANP917     -0.5170
     11  O2A       -2.0400   19.8870  -40.5400 O.3   917  ANP917     -0.4370
     12  O3A       -2.0700   17.4460  -41.3060 O.3   917  ANP917     -0.2360
     13  O5'       -1.8690   19.1990  -43.0300 O.3   917  ANP917     -0.3111
     14  C5'       -0.4630   18.9810  -43.1550 C.3   917  ANP917      0.1813
     15  C4'        0.1980   20.1820  -43.8220 C.3   917  ANP917      0.1821
     16  O4'       -0.4180   20.4690  -45.0840 O.3   917  ANP917     -0.3135
     17  C3'        0.0230   21.4510  -42.9870 C.3   917  ANP917      0.2184
     18  O3'        1.0290   21.5650  -41.9840 O.3   917  ANP917     -0.2174
     19  C2'        0.1140   22.5450  -44.0410 C.3   917  ANP917      0.2570
     20  O2'        1.5080   22.7240  -44.4370 O.3   917  ANP917     -0.2130
     21  C1'       -0.5610   21.8880  -45.2110 C.3   917  ANP917      0.3186
     22  N9        -1.9980   22.1770  -45.3320 N.pl3 917  ANP917     -0.1439
     23  C8        -2.9970   21.4740  -44.7790 C.3   917  ANP917      0.3377
     24  N7        -4.1790   21.9770  -45.1670 N.2   917  ANP917     -0.2095
     25  C5        -3.9480   22.9910  -45.9940 C.2   917  ANP917      0.2526
     26  C6        -4.7650   23.9060  -46.7680 C.2   917  ANP917      0.4393
     27  N6        -6.1090   23.8330  -46.6810 N.pl3 917  ANP917      0.2180
     28  N1        -4.1190   24.8460  -47.4810 N.2   917  ANP917      0.0021
     29  C2        -2.7760   24.9060  -47.5630 C.3   917  ANP917      0.5254
     30  N3        -1.9480   24.1000  -46.9000 N.2   917  ANP917     -0.0055
     31  C4        -2.4860   23.1270  -46.1080 C.2   917  ANP917      0.3518
@<TRIPOS>BOND
     1    29    28    1
     2    29    30    1
     3    28    26    2
     4    30    31    2
     5    26    27    1
     6    26    25    1
     7    31    25    1
     8    31    22    1
     9    25    24    2
    10    22    21    1
    11    22    23    1
    12    21    16    1
    13    21    19    1
    14    24    23    1
    15    16    15    1
    16    20    19    1
    17    19    17    1
    18    15    14    1
    19    15    17    1
    20    14    13    1
    21    13     9    1
    22    17    18    1
    23    10     9    2
    24     9    12    1
    25     9    11    1
    26    12     5    1
    27     6     5    2
    28     5     7    1
    29     5     8    1
    30     8     1    1
    31     1     3    2
    32     1     2    1
    33     1     4    1
