@<TRIPOS>MOLECULE
2q7e_ANP_A_1.pdb
 31 33 0 0 0
SMALL
GASTEIGER

@<TRIPOS>ATOM
      1  PG         9.5080   34.0580   36.6910 P.3   900  ANP900      0.4884
      2  O1G        8.0080   33.9640   36.9500 O.3   900  ANP900     -0.1240
      3  O2G       10.2880   34.3140   37.9710 O.3   900  ANP900     -0.1240
      4  O3G        9.9910   32.9300   35.8280 O.2   900  ANP900     -0.2331
      5  PB         9.1690   37.0830   36.4620 P.3   900  ANP900      0.4669
      6  O1B        7.6770   37.2460   36.2880 O.2   900  ANP900     -0.2351
      7  O2B        9.7800   37.2300   37.8230 O.3   900  ANP900     -0.1253
      8  N3B        9.6390   35.5460   35.7640 N.3   900  ANP900     -0.0163
      9  PA         9.4370   39.6250   35.1220 P.3   900  ANP900      0.2220
     10  O1A        9.6300   40.5320   36.2710 O.3   900  ANP900     -0.4370
     11  O2A        8.1110   39.5360   34.4200 O.2   900  ANP900     -0.5170
     12  O3A        9.9230   38.1710   35.5380 O.3   900  ANP900     -0.2360
     13  O5'       10.5790   40.0190   34.0540 O.3   900  ANP900     -0.3111
     14  C5'       10.3450   39.9230   32.6540 C.3   900  ANP900      0.1813
     15  C4'       11.2180   38.8460   32.0380 C.3   900  ANP900      0.1821
     16  O4'       12.5760   38.9120   32.5160 O.3   900  ANP900     -0.3135
     17  C3'       10.7520   37.4410   32.3180 C.3   900  ANP900      0.2184
     18  O3'        9.6650   37.0300   31.4690 O.3   900  ANP900     -0.2174
     19  C2'       12.0050   36.6480   32.0390 C.3   900  ANP900      0.2570
     20  O2'       12.1480   36.3730   30.6400 O.3   900  ANP900     -0.2130
     21  C1'       13.1210   37.5790   32.4820 C.3   900  ANP900      0.3186
     22  N9        13.6260   37.2300   33.8260 N.pl3 900  ANP900     -0.1439
     23  C8        13.1190   37.6440   35.0080 C.3   900  ANP900      0.3377
     24  N7        13.8240   37.1350   36.0560 N.2   900  ANP900     -0.2095
     25  C5        14.8100   36.3790   35.5070 C.2   900  ANP900      0.2526
     26  C6        15.9180   35.5640   36.0270 C.2   900  ANP900      0.4393
     27  N6        16.0990   35.4870   37.3520 N.pl3 900  ANP900      0.2180
     28  N1        16.7020   34.9250   35.1410 N.2   900  ANP900      0.0021
     29  C2        16.5240   35.0140   33.8100 C.3   900  ANP900      0.5254
     30  N3        15.5360   35.7520   33.2470 N.2   900  ANP900     -0.0055
     31  C4        14.6770   36.4400   34.0480 C.2   900  ANP900      0.3518
@<TRIPOS>BOND
     1    20    19    1
     2    18    17    1
     3    15    17    1
     4    15    16    1
     5    15    14    1
     6    19    17    1
     7    19    21    1
     8    21    16    1
     9    21    22    1
    10    14    13    1
    11    30    29    1
    12    30    31    2
    13    29    28    1
    14    22    31    1
    15    22    23    1
    16    31    25    1
    17    13     9    1
    18    11     9    2
    19    23    24    1
    20     9    12    1
    21     9    10    1
    22    28    26    2
    23    25    26    1
    24    25    24    2
    25    12     5    1
    26     8     5    1
    27     8     1    1
    28     4     1    2
    29    26    27    1
    30     6     5    2
    31     5     7    1
    32     1     2    1
    33     1     3    1
