@<TRIPOS>MOLECULE
2q7g_ATP_A_1.pdb
 31 33 0 0 0
SMALL
GASTEIGER

@<TRIPOS>ATOM
      1  PG         9.4140   34.2550   37.0520 P.3   900  ATP900      0.5373
      2  O1G        7.9590   34.0330   37.4030 O.3   900  ATP900     -0.1143
      3  O2G       10.3080   34.4880   38.2550 O.3   900  ATP900     -0.1143
      4  O3G        9.8930   33.2560   36.0370 O.2   900  ATP900     -0.2221
      5  PB         9.0420   37.0960   36.8270 P.3   900  ATP900      0.2277
      6  O1B        7.5630   37.2980   36.6150 O.2   900  ATP900     -0.5168
      7  O2B        9.6340   37.3010   38.1910 O.3   900  ATP900     -0.4368
      8  O3B        9.4620   35.6550   36.2240 O.3   900  ATP900     -0.2258
      9  PA         9.4460   39.6270   35.4460 P.3   900  ATP900      0.2189
     10  O1A        9.6720   40.4180   36.6960 O.3   900  ATP900     -0.4371
     11  O2A        8.1360   39.6910   34.7020 O.2   900  ATP900     -0.5170
     12  O3A        9.8170   38.0920   35.8110 O.3   900  ATP900     -0.2700
     13  O5'       10.6380   40.0090   34.4130 O.3   900  ATP900     -0.3112
     14  C5'       10.4050   39.9220   33.0090 C.3   900  ATP900      0.1813
     15  C4'       11.2050   38.7970   32.3800 C.3   900  ATP900      0.1821
     16  O4'       12.5540   38.8090   32.8450 O.3   900  ATP900     -0.3135
     17  C3'       10.6950   37.3910   32.6400 C.3   900  ATP900      0.2184
     18  O3'        9.6160   37.0290   31.7700 O.3   900  ATP900     -0.2174
     19  C2'       11.9370   36.5760   32.3500 C.3   900  ATP900      0.2570
     20  O2'       12.0420   36.3290   30.9450 O.3   900  ATP900     -0.2130
     21  C1'       13.0680   37.4720   32.8020 C.3   900  ATP900      0.3186
     22  N9        13.5370   37.1380   34.1550 N.pl3 900  ATP900     -0.1439
     23  C8        13.0130   37.5600   35.3320 C.3   900  ATP900      0.3377
     24  N7        13.7230   37.0640   36.3880 N.2   900  ATP900     -0.2095
     25  C5        14.7060   36.3050   35.8490 C.2   900  ATP900      0.2526
     26  C6        15.8130   35.4920   36.3660 C.2   900  ATP900      0.4393
     27  N6        15.9890   35.4120   37.6970 N.pl3 900  ATP900      0.2180
     28  N1        16.6120   34.8610   35.4760 N.2   900  ATP900      0.0021
     29  C2        16.4390   34.9490   34.1400 C.3   900  ATP900      0.5254
     30  N3        15.4490   35.6810   33.5830 N.2   900  ATP900     -0.0055
     31  C4        14.5840   36.3610   34.3830 C.2   900  ATP900      0.3518
@<TRIPOS>BOND
     1    20    19    1
     2    18    17    1
     3    19    17    1
     4    19    21    1
     5    15    17    1
     6    15    16    1
     7    15    14    1
     8    21    16    1
     9    21    22    1
    10    14    13    1
    11    30    29    1
    12    30    31    2
    13    29    28    1
    14    22    31    1
    15    22    23    1
    16    31    25    1
    17    13     9    1
    18    11     9    2
    19    23    24    1
    20     9    12    1
    21     9    10    1
    22    28    26    2
    23    12     5    1
    24    25    26    1
    25    25    24    2
    26     4     1    2
    27     8     5    1
    28     8     1    1
    29    26    27    1
    30     6     5    2
    31     5     7    1
    32     1     2    1
    33     1     3    1
