@<TRIPOS>MOLECULE
2q7g_CCL_A_1.pdb
 18 18 0 0 0
SMALL
GASTEIGER

@<TRIPOS>ATOM
      1  CAK        8.6020   50.5340   31.3540 C.3   901  CCL901      0.0437
      2  CAG        8.6970   51.8580   32.1270 C.3   901  CCL901      0.0038
      3  CAH        7.2870   52.1750   32.6150 C.3   901  CCL901      0.0038
      4  CAL        6.3680   51.5390   31.5810 C.3   901  CCL901      0.0437
      5  CAR        7.1120   50.2690   31.1180 C.3   901  CCL901      0.1705
      6  OAN        6.7690   49.1150   31.9240 O.3   901  CCL901     -0.4373
      7  CAP        6.7760   47.9570   31.1740 C.2   901  CCL901      0.4210
      8  OAC        7.2400   47.9620   30.0270 O.2   901  CCL901     -0.2246
      9  NAM        6.2630   46.8760   31.7440 N.am  901  CCL901     -0.1687
     10  CAI        6.2000   45.5610   31.0960 C.3   901  CCL901      0.1187
     11  CAE        7.5090   44.8360   31.4180 C.3   901  CCL901      0.0236
     12  CAF        7.4800   44.2130   32.8120 C.3   901  CCL901      0.0039
     13  CB         8.8770   43.7280   33.2550 C.3   901  CCL901      0.0307
     14  CA         9.1070   43.8840   34.7810 C.3   901  CCL901      0.1943
     15  C          7.9850   43.2390   35.6260 C.2   901  CCL901      0.3819
     16  OXT        7.2990   42.3240   35.1090 O.co2 901  CCL901     -0.2441
     17  O          7.8420   43.6810   36.7900 O.co2 901  CCL901     -0.2441
     18  N          9.2140   45.3110   35.1420 N.3   901  CCL901     -0.1208
@<TRIPOS>BOND
     1     8     7    2
     2    10    11    1
     3    10     9    1
     4     5     1    1
     5     5     4    1
     6     5     6    1
     7     7     9   am
     8     7     6    1
     9     1     2    1
    10    11    12    1
    11     4     3    1
    12     2     3    1
    13    12    13    1
    14    13    14    1
    15    14    18    1
    16    14    15    1
    17    16    15   ar
    18    15    17   ar
