@<TRIPOS>MOLECULE
2q7h_YLY_A_1.pdb
 40 43 0 0 0
SMALL
GASTEIGER

@<TRIPOS>ATOM
      1  C4        14.7780   36.4730   33.9100 C.2   900  YLY900      0.3518
      2  C5        14.8800   36.4610   35.2980 C.2   900  YLY900      0.2526
      3  C6        15.8790   35.6670   35.8960 C.2   900  YLY900      0.4393
      4  C8        13.2600   37.7810   34.7320 C.3   900  YLY900      0.3377
      5  N1        16.6840   34.9470   35.0990 N.2   900  YLY900      0.0021
      6  N3        15.6150   35.7250   33.1800 N.2   900  YLY900     -0.0055
      7  CAA        9.2260   50.7560   30.6160 C.3   900  YLY900      0.0020
      8  CBF        7.7470   50.9890   30.7690 C.3   900  YLY900      0.0264
      9  CAP        7.5550   51.7890   32.0260 C.3   900  YLY900      0.0207
     10  CAJ        7.6800   50.7130   33.0900 C.3   900  YLY900      0.0893
     11  NAS        7.4100   49.5010   32.5800 N.3   900  YLY900     -0.2102
     12  CBK        7.0530   49.6880   31.1680 C.3   900  YLY900      0.1503
     13  CBA        7.2500   48.4870   30.2010 C.2   900  YLY900      0.2572
     14  OAD        7.7430   48.6210   29.0840 O.2   900  YLY900     -0.2718
     15  NAW        6.7390   47.3050   30.4600 N.am  900  YLY900     -0.2043
     16  CAO        6.1010   46.6870   31.5840 C.3   900  YLY900      0.1152
     17  CAM        6.5200   45.2110   31.4040 C.3   900  YLY900      0.0235
     18  CAN        8.0760   45.0960   31.4400 C.3   900  YLY900      0.0039
     19  CB         8.5070   43.8570   32.2290 C.3   900  YLY900      0.0305
     20  CA         9.3740   44.1420   33.4660 C.3   900  YLY900      0.1903
     21  N          8.9410   45.2440   34.3450 N.3   900  YLY900     -0.1210
     22  C          9.6200   42.8900   34.3300 C.2   900  YLY900      0.3385
     23  O         10.4520   43.0170   35.2150 O.2   900  YLY900     -0.2482
     24  OAY        8.8960   41.7450   34.0400 O.3   900  YLY900     -0.4091
     25  PBN        9.5060   40.2950   34.5730 P.3   900  YLY900      0.2723
     26  OAI        8.5180   39.2390   34.0570 O.2   900  YLY900     -0.5082
     27  OAF        9.6850   40.2490   36.0320 O.3   900  YLY900     -0.4273
     28  O5'       10.8490   40.3070   33.7180 O.3   900  YLY900     -0.3024
     29  C5'       10.7940   40.0680   32.3390 C.3   900  YLY900      0.1823
     30  C4'       11.4260   38.7260   32.3180 C.3   900  YLY900      0.1822
     31  O4'       12.8440   38.9150   32.0940 O.3   900  YLY900     -0.3135
     32  C3'       11.0580   37.6640   31.3390 C.3   900  YLY900      0.2184
     33  O3'        9.8220   37.0570   31.6260 O.3   900  YLY900     -0.2174
     34  C2'       12.1470   36.7000   31.7210 C.3   900  YLY900      0.2570
     35  O2'       12.4860   36.1320   30.5030 O.3   900  YLY900     -0.2130
     36  C1'       13.3170   37.5880   32.1870 C.3   900  YLY900      0.3186
     37  N9        13.7680   37.2950   33.5920 N.pl3 900  YLY900     -0.1439
     38  N7        13.9340   37.2730   35.7620 N.2   900  YLY900     -0.2095
     39  C2        16.5470   34.9840   33.7800 C.3   900  YLY900      0.5254
     40  N6        16.0330   35.6370   37.2090 N.pl3 900  YLY900      0.2180
@<TRIPOS>BOND
     1    14    13    2
     2    13    15   am
     3    13    12    1
     4    15    16    1
     5    35    34    1
     6     7     8    1
     7     8    12    1
     8     8     9    1
     9    12    11    1
    10    32    33    1
    11    32    34    1
    12    32    30    1
    13    17    18    1
    14    17    16    1
    15    18    19    1
    16    34    36    1
    17     9    10    1
    18    31    36    1
    19    31    30    1
    20    36    37    1
    21    19    20    1
    22    30    29    1
    23    29    28    1
    24    11    10    1
    25     6    39    1
    26     6     1    2
    27    20    22    1
    28    20    21    1
    29    37     1    1
    30    37     4    1
    31    28    25    1
    32    39     5    1
    33     1     2    1
    34    24    22    1
    35    24    25    1
    36    26    25    2
    37    22    23    2
    38    25    27    1
    39     4    38    1
    40     5     3    2
    41     2    38    2
    42     2     3    1
    43     3    40    1
