@<TRIPOS>MOLECULE
2q7i_TES_A_1.pdb
 21 24 0 0 0
SMALL
GASTEIGER

@<TRIPOS>ATOM
      1  C1        27.6850    5.0120    4.4130 C.3   205  TES205      0.0118
      2  C2        26.9220    6.2940    4.7310 C.3   205  TES205      0.0694
      3  C3        25.4910    6.1600    4.2690 C.2   205  TES205      0.1725
      4  O3        24.8660    7.1580    3.9160 O.2   205  TES205     -0.2914
      5  C4        24.8600    4.8270    4.2350 C.2   205  TES205      0.0289
      6  C5        25.5390    3.7050    4.5450 C.2   205  TES205     -0.0420
      7  C6        24.7900    2.3930    4.5480 C.3   205  TES205      0.0221
      8  C7        25.5860    1.3000    3.8400 C.3   205  TES205      0.0044
      9  C8        26.9770    1.1770    4.4460 C.3   205  TES205      0.0007
     10  C9        27.7520    2.5080    4.3470 C.3   205  TES205      0.0035
     11  C10       27.0030    3.7290    4.9390 C.3   205  TES205      0.0157
     12  C11       29.1800    2.3490    4.9090 C.3   205  TES205      0.0004
     13  C12       29.9420    1.1950    4.2670 C.3   205  TES205      0.0025
     14  C13       29.1770   -0.1240    4.3790 C.3   205  TES205      0.0282
     15  C14       27.7870    0.0570    3.7780 C.3   205  TES205      0.0025
     16  C15       27.2290   -1.3710    3.7520 C.3   205  TES205      0.0027
     17  C16       28.4550   -2.2260    3.3910 C.3   205  TES205      0.0329
     18  C17       29.6720   -1.2860    3.5110 C.3   205  TES205      0.1519
     19  O17       30.8140   -1.9670    4.0240 O.3   205  TES205     -0.2232
     20  C18       29.1390   -0.5430    5.8580 C.3   205  TES205      0.0025
     21  C19       26.9810    3.7470    6.4750 C.3   205  TES205      0.0041
@<TRIPOS>BOND
     1    17    18    1
     2    17    16    1
     3    18    19    1
     4    18    14    1
     5    16    15    1
     6    15    14    1
     7    15     9    1
     8     8     9    1
     9     8     7    1
    10     4     3    2
    11     5     3    1
    12     5     6    2
    13    13    14    1
    14    13    12    1
    15     3     2    1
    16    10     9    1
    17    10    12    1
    18    10    11    1
    19    14    20    1
    20     1     2    1
    21     1    11    1
    22     6     7    1
    23     6    11    1
    24    11    21    1
