@<TRIPOS>MOLECULE
2q7j_TES_A_1.pdb
 21 24 0 0 0
SMALL
GASTEIGER

@<TRIPOS>ATOM
      1  C1        27.1650    5.1800    4.3910 C.3   203  TES203      0.0118
      2  C2        26.3490    6.4260    4.6880 C.3   203  TES203      0.0694
      3  C3        24.9460    6.2640    4.1710 C.2   203  TES203      0.1725
      4  O3        24.3250    7.2210    3.7100 O.2   203  TES203     -0.2914
      5  C4        24.3400    4.9140    4.1770 C.2   203  TES203      0.0289
      6  C5        25.0550    3.8170    4.4950 C.2   203  TES203     -0.0420
      7  C6        24.3460    2.4730    4.4520 C.3   203  TES203      0.0221
      8  C7        25.2110    1.4340    3.7480 C.3   203  TES203      0.0044
      9  C8        26.5840    1.3540    4.4100 C.3   203  TES203      0.0007
     10  C9        27.3080    2.7040    4.3130 C.3   203  TES203      0.0035
     11  C10       26.5150    3.8870    4.9170 C.3   203  TES203      0.0157
     12  C11       28.7400    2.6100    4.8700 C.3   203  TES203      0.0004
     13  C12       29.5770    1.4930    4.2510 C.3   203  TES203      0.0025
     14  C13       28.8580    0.1690    4.3650 C.3   203  TES203      0.0282
     15  C14       27.4700    0.2920    3.7590 C.3   203  TES203      0.0025
     16  C15       26.9840   -1.1560    3.7220 C.3   203  TES203      0.0027
     17  C16       28.2570   -1.9330    3.3710 C.3   203  TES203      0.0329
     18  C17       29.4240   -0.9530    3.4850 C.3   203  TES203      0.1519
     19  O17       30.6060   -1.5940    3.9910 O.3   203  TES203     -0.2232
     20  C18       28.7930   -0.2630    5.8420 C.3   203  TES203      0.0025
     21  C19       26.4790    3.9040    6.4530 C.3   203  TES203      0.0041
@<TRIPOS>BOND
     1    17    18    1
     2    17    16    1
     3    18    19    1
     4    18    14    1
     5     4     3    2
     6    16    15    1
     7     8     9    1
     8     8     7    1
     9    15    14    1
    10    15     9    1
    11     3     5    1
    12     3     2    1
    13     5     6    2
    14    13    14    1
    15    13    12    1
    16    10     9    1
    17    10    12    1
    18    10    11    1
    19    14    20    1
    20     1     2    1
    21     1    11    1
    22     7     6    1
    23     6    11    1
    24    11    21    1
