@<TRIPOS>MOLECULE
2q7k_TES_A_1.pdb
 21 24 0 0 0
SMALL
GASTEIGER

@<TRIPOS>ATOM
      1  C1        27.7190    5.0370    4.3680 C.3   304  TES304      0.0118
      2  C2        26.9410    6.3070    4.6850 C.3   304  TES304      0.0694
      3  C3        25.5040    6.1850    4.2570 C.2   304  TES304      0.1725
      4  O3        24.8890    7.1710    3.8720 O.2   304  TES304     -0.2914
      5  C4        24.8540    4.8660    4.2720 C.2   304  TES304      0.0289
      6  C5        25.5520    3.7560    4.5490 C.2   304  TES304     -0.0420
      7  C6        24.7980    2.4500    4.5400 C.3   304  TES304      0.0221
      8  C7        25.5980    1.3730    3.8350 C.3   304  TES304      0.0044
      9  C8        26.9940    1.2290    4.4360 C.3   304  TES304      0.0007
     10  C9        27.7640    2.5480    4.3140 C.3   304  TES304      0.0035
     11  C10       27.0330    3.7720    4.9140 C.3   304  TES304      0.0157
     12  C11       29.1980    2.3970    4.8330 C.3   304  TES304      0.0004
     13  C12       29.9520    1.2710    4.1300 C.3   304  TES304      0.0025
     14  C13       29.2090   -0.0490    4.2730 C.3   304  TES304      0.0282
     15  C14       27.7940    0.1210    3.7330 C.3   304  TES304      0.0025
     16  C15       27.2670   -1.3140    3.6960 C.3   304  TES304      0.0027
     17  C16       28.4990   -2.1190    3.2490 C.3   304  TES304      0.0329
     18  C17       29.7100   -1.1810    3.3800 C.3   304  TES304      0.1519
     19  O17       30.8500   -1.8630    3.9060 O.3   304  TES304     -0.2232
     20  C18       29.2330   -0.5170    5.7320 C.3   304  TES304      0.0025
     21  C19       27.0800    3.7880    6.4450 C.3   304  TES304      0.0041
@<TRIPOS>BOND
     1    17    18    1
     2    17    16    1
     3    18    19    1
     4    18    14    1
     5    16    15    1
     6    15    14    1
     7    15     9    1
     8     8     9    1
     9     8     7    1
    10     4     3    2
    11    13    14    1
    12    13    12    1
    13     3     5    1
    14     3     2    1
    15     5     6    2
    16    14    20    1
    17    10     9    1
    18    10    12    1
    19    10    11    1
    20     1     2    1
    21     1    11    1
    22     7     6    1
    23     6    11    1
    24    11    21    1
