@<TRIPOS>MOLECULE
2q7l_TES_A_1.pdb
 21 24 0 0 0
SMALL
GASTEIGER

@<TRIPOS>ATOM
      1  C1        27.1620    5.3660    4.3140 C.3   155  TES155      0.0118
      2  C2        26.3520    6.6090    4.6290 C.3   155  TES155      0.0694
      3  C3        24.9690    6.4370    4.0730 C.2   155  TES155      0.1725
      4  O3        24.3650    7.3980    3.6180 O.2   155  TES155     -0.2914
      5  C4        24.3570    5.0850    4.0530 C.2   155  TES155      0.0289
      6  C5        25.0580    3.9960    4.4130 C.2   155  TES155     -0.0420
      7  C6        24.3530    2.6550    4.4320 C.3   155  TES155      0.0221
      8  C7        25.1980    1.6340    3.6800 C.3   155  TES155      0.0044
      9  C8        26.5780    1.5490    4.3290 C.3   155  TES155      0.0007
     10  C9        27.3140    2.9030    4.2180 C.3   155  TES155      0.0035
     11  C10       26.5240    4.0760    4.8370 C.3   155  TES155      0.0157
     12  C11       28.7650    2.8090    4.7370 C.3   155  TES155      0.0004
     13  C12       29.5820    1.6640    4.1150 C.3   155  TES155      0.0025
     14  C13       28.8370    0.3390    4.2260 C.3   155  TES155      0.0282
     15  C14       27.4280    0.4780    3.6540 C.3   155  TES155      0.0025
     16  C15       26.9270   -0.9590    3.6000 C.3   155  TES155      0.0027
     17  C16       28.1750   -1.7460    3.1900 C.3   155  TES155      0.0329
     18  C17       29.3620   -0.7820    3.3250 C.3   155  TES155      0.1519
     19  O17       30.5560   -1.4300    3.8020 O.3   155  TES155     -0.2232
     20  C18       28.8410   -0.0820    5.6870 C.3   155  TES155      0.0025
     21  C19       26.4860    4.0520    6.3770 C.3   155  TES155      0.0041
@<TRIPOS>BOND
     1    17    18    1
     2    17    16    1
     3    18    19    1
     4    18    14    1
     5    16    15    1
     6     4     3    2
     7    15    14    1
     8    15     9    1
     9     8     9    1
    10     8     7    1
    11     5     3    1
    12     5     6    2
    13     3     2    1
    14    13    14    1
    15    13    12    1
    16    10     9    1
    17    10    12    1
    18    10    11    1
    19    14    20    1
    20     1     2    1
    21     1    11    1
    22     6     7    1
    23     6    11    1
    24    11    21    1
