@<TRIPOS>MOLECULE
2q7m_2CS_A_1.pdb
 41 45 0 0 0
SMALL
GASTEIGER

@<TRIPOS>ATOM
      1  C1        78.0470   64.2510    9.4680 C.3   502  2CS502      0.0116
      2  C2        77.4640   63.5110   10.6940 C.3   502  2CS502      0.0993
      3  C3        77.0670   62.1410   10.4490 C.2   502  2CS502      0.3642
      4  O4        77.4720   61.4510    9.5220 O.co2 502  2CS502     -0.2457
      5  O5        76.3410   61.5220   11.2180 O.co2 502  2CS502     -0.2457
      6  C7        76.2480   64.3140   11.2500 C.3   502  2CS502      0.0550
      7  C8        75.8420   63.9320   12.6130 C.ar  502  2CS502      0.0435
      8  C10       77.6700   65.0400   13.8950 C.3   502  2CS502      0.1324
      9  C11       77.6270   66.1910   13.0270 C.ar  502  2CS502      0.0004
     10  C12       78.5150   66.1840   11.9320 C.ar  502  2CS502     -0.0015
     11  C13       78.4760   67.2510   11.0440 C.ar  502  2CS502      0.0111
     12  C14       76.6780   67.2040   13.3040 C.ar  502  2CS502     -0.0015
     13  C15       76.6290   68.2920   12.4350 C.ar  502  2CS502      0.0111
     14  C16       77.5390   68.2720   11.3450 C.ar  502  2CS502      0.0577
     15  C19       76.1440   63.7350   16.1780 C.ar  502  2CS502      0.0203
     16  C20       75.3110   63.0520   17.0570 C.ar  502  2CS502      0.0384
     17  C21       74.7610   62.9630   14.2640 C.ar  502  2CS502      0.0256
     18  C22       73.9120   62.2540   15.1330 C.ar  502  2CS502      0.0389
     19  C27       73.7440   62.1440   20.3430 C.2   502  2CS502      0.0314
     20  C30       73.8410   64.9540   20.3560 C.2   502  2CS502      0.1305
     21  C31       73.8690   66.3630   20.3390 C.2   502  2CS502      0.0278
     22  C32       74.4270   66.9970   21.4830 C.2   502  2CS502     -0.0188
     23  C33       74.9350   66.2580   22.5870 C.3   502  2CS502      0.0522
     24  C34       74.8960   64.8370   22.5890 C.2   502  2CS502     -0.0189
     25  C28       74.2990   62.7730   21.4550 C.2   502  2CS502      0.0046
     26  C29       74.3430   64.1810   21.4620 C.2   502  2CS502      0.0257
     27  N35       73.3290   64.3120   19.3130 N.2   502  2CS502     -0.4025
     28  C26       73.2710   62.9700   19.3050 C.2   502  2CS502      0.1528
     29  C25       72.6780   62.3140   18.1750 C.3   502  2CS502      0.2636
     30  O24       73.5080   61.7230   17.3240 O.3   502  2CS502     -0.4678
     31  C23       74.2320   62.3330   16.5190 C.ar  502  2CS502      0.1393
     32  C18       75.8390   63.6670   14.7880 C.ar  502  2CS502      0.0606
     33  C36       74.7460   63.1370   12.8860 C.ar  502  2CS502      0.0383
     34  S37       73.5660   62.5330   11.7570 S.3   502  2CS502     -0.1142
     35  C38       72.1600   63.6780   12.0910 C.3   502  2CS502      0.0434
     36  C41       72.3770   64.8460   13.0670 C.3   502  2CS502      0.0112
     37  C39       71.9780   64.3950   10.7750 C.3   502  2CS502      0.0112
     38  C40       70.8230   63.0050   12.4430 C.3   502  2CS502      0.0112
     39  C6        78.6250   63.2670   11.6880 C.3   502  2CS502      0.0116
     40  N9        76.4820   64.2350   13.7550 N.ar  502  2CS502     -0.3260
     41 CL17       77.5170   69.5590   10.2980 Cl    502  2CS502     -0.0822
@<TRIPOS>BOND
     1     1     2    1
     2     4     3   ar
     3    41    14    1
     4     3     2    1
     5     3     5   ar
     6     2     6    1
     7     2    39    1
     8    37    35    1
     9    11    14   ar
    10    11    10   ar
    11     6     7    1
    12    14    13   ar
    13    34    35    1
    14    34    33    1
    15    10     9   ar
    16    35    38    1
    17    35    36    1
    18    13    12   ar
    19     7    33   ar
    20     7    40   ar
    21    33    17   ar
    22     9    12   ar
    23     9     8    1
    24    40     8    1
    25    40    32   ar
    26    17    32   ar
    27    17    18   ar
    28    32    15   ar
    29    18    31   ar
    30    15    16   ar
    31    31    16   ar
    32    31    30    1
    33    30    29    1
    34    29    28    1
    35    28    27    2
    36    28    19    1
    37    27    20    2
    38    21    20    1
    39    21    22    2
    40    19    25    2
    41    20    26    1
    42    25    26    1
    43    26    24    2
    44    22    23    1
    45    23    24    1
