@<TRIPOS>MOLECULE
2q7o_IMH_E_1.pdb
 19 21 0 0 0
SMALL
GASTEIGER

@<TRIPOS>ATOM
      1  O5'       15.6070   10.1350   59.1990 O.3   291  IMH291     -0.2188
      2  C5'       16.0170   11.3330   59.8650 C.3   291  IMH291      0.2020
      3  C4'       14.7600   12.1410   59.8960 C.3   291  IMH291      0.1389
      4  N4'       13.7720   11.8250   58.8620 N.3   291  IMH291     -0.2083
      5  C3'       15.2390   13.4920   59.5480 C.3   291  IMH291      0.2023
      6  O3'       14.9920   14.2230   60.7600 O.3   291  IMH291     -0.2188
      7  C2'       14.4270   13.9530   58.3060 C.3   291  IMH291      0.2036
      8  O2'       13.6090   15.1090   58.6080 O.3   291  IMH291     -0.2185
      9  C1'       13.5700   12.8090   57.8030 C.3   291  IMH291      0.1309
     10  C9        14.1190   12.2240   56.5740 C.2   291  IMH291      0.0348
     11  C8        15.0960   12.7470   55.7730 C.2   291  IMH291      0.0984
     12  N7        15.3390   11.8460   54.7690 N.2   291  IMH291     -0.2310
     13  C5        14.5790   10.7690   54.8850 C.2   291  IMH291      0.1804
     14  C6        14.4100    9.5290   54.1450 C.1   291  IMH291      0.1716
     15  O6        15.1740    9.3100   53.0380 O.2   291  IMH291     -0.2206
     16  N1        13.4930    8.6490   54.6020 N.2   291  IMH291     -0.1739
     17  C2        12.7650    8.8830   55.7080 C.3   291  IMH291      0.2626
     18  N3        12.8570    9.9910   56.4660 N.2   291  IMH291     -0.2415
     19  C4        13.7420   10.9120   56.0590 C.2   291  IMH291      0.1059
@<TRIPOS>BOND
     1    15    14    2
     2    14    16    2
     3    14    13    1
     4    16    17    1
     5    12    13    2
     6    12    11    1
     7    13    19    1
     8    17    18    1
     9    11    10    2
    10    19    18    2
    11    19    10    1
    12    10     9    1
    13     9     7    1
    14     9     4    1
    15     7     8    1
    16     7     5    1
    17     4     3    1
    18     1     2    1
    19     5     3    1
    20     5     6    1
    21     2     3    1
