@<TRIPOS>MOLECULE
2q7r_3CS_A_1.pdb
 43 47 0 0 0
SMALL
GASTEIGER

@<TRIPOS>ATOM
      1  C1        69.9450   77.8350   30.4470 C.2   503  3CS503      0.0258
      2  C2        70.5650   76.7960   31.1860 C.2   503  3CS503      0.0019
      3  C3        69.8230   76.2380   32.2630 C.2   503  3CS503     -0.0041
      4  C7        70.6680   78.4200   29.3690 C.2   503  3CS503      0.0046
      5  C8        70.0740   79.4580   28.6230 C.2   503  3CS503      0.0314
      6  C9        68.7650   79.8580   29.0110 C.2   503  3CS503      0.1524
      7  C10       68.1200   80.9290   28.2850 C.3   503  3CS503      0.2635
      8  C11       67.0640   82.1770   29.9460 C.ar  503  3CS503      0.1393
      9  C12       66.0800   83.2060   29.9240 C.ar  503  3CS503      0.0385
     10  C13       67.9400   81.9980   31.0450 C.ar  503  3CS503      0.0384
     11  C14       67.8640   82.8480   32.1670 C.ar  503  3CS503      0.0203
     12  C15       66.8800   83.8780   32.1380 C.ar  503  3CS503      0.0602
     13  C16       65.9880   84.0670   31.0540 C.ar  503  3CS503      0.0226
     14  C19       66.1790   84.9290   35.4430 C.ar  503  3CS503      0.0004
     15  C20       65.3510   83.7940   35.5540 C.ar  503  3CS503     -0.0020
     16  C21       64.3930   83.6860   36.5560 C.ar  503  3CS503      0.0055
     17  C22       65.0440   85.9520   37.3620 C.ar  503  3CS503      0.0055
     18  C24       64.2660   84.7750   37.4280 C.ar  503  3CS503      0.0300
     19  N26       68.0610   79.2900   30.0510 N.2   503  3CS503     -0.4065
     20  C30       62.6810   85.7300   31.1170 C.3   503  3CS503      0.0692
     21  C31       61.7690   84.1510   29.4370 C.3   503  3CS503      0.0004
     22  C32       60.2350   84.9560   31.1350 C.3   503  3CS503      0.0004
     23  C33       61.6890   84.5530   30.9070 C.3   503  3CS503      0.0073
     24  C34       61.9350   83.2840   31.7240 C.3   503  3CS503      0.0004
     25  C4        68.5130   76.6870   32.6000 C.2   503  3CS503     -0.0187
     26  C5        67.8650   77.7210   31.8730 C.3   503  3CS503      0.0849
     27  C6        68.6020   78.2870   30.7970 C.2   503  3CS503      0.1130
     28  N17       66.5880   84.8190   33.0510 N.ar  503  3CS503     -0.3264
     29  C18       67.1380   85.0200   34.3570 C.3   503  3CS503      0.1324
     30  C23       66.0160   86.0160   36.3410 C.ar  503  3CS503     -0.0020
     31  I25       62.8600   84.5760   38.8620 I     503  3CS503     -0.0425
     32  O27       67.0580   81.4620   28.9060 O.3   503  3CS503     -0.4678
     33  C28       65.1280   85.1450   31.3460 C.ar  503  3CS503      0.0478
     34  C29       64.0670   85.7110   30.6390 C.2   503  3CS503      0.1742
     35  O35       64.1960   86.2510   29.5650 O.2   503  3CS503     -0.2913
     36  C36       65.5590   85.5440   32.5950 C.ar  503  3CS503      0.0406
     37  C37       64.9940   86.6760   33.3280 C.3   503  3CS503      0.0546
     38  C38       66.6160   88.2910   34.5430 C.3   503  3CS503      0.0116
     39  C39       67.0600   87.6010   32.2750 C.3   503  3CS503      0.0116
     40  C40       65.9170   87.9100   33.2430 C.3   503  3CS503      0.0993
     41  C41       65.2580   89.0570   32.7420 C.2   503  3CS503      0.3642
     42  O42       64.3450   89.0250   31.9440 O.co2 503  3CS503     -0.2457
     43  O43       65.5850   90.1760   33.0620 O.co2 503  3CS503     -0.2457
@<TRIPOS>BOND
     1     7    32    1
     2     7     6    1
     3     5     6    1
     4     5     4    2
     5    32     8    1
     6     6    19    2
     7     4     1    1
     8    21    23    1
     9    35    34    2
    10     9     8   ar
    11     9    13   ar
    12     8    10   ar
    13    19    27    2
    14     1    27    1
    15     1     2    2
    16    34    20    1
    17    34    33    1
    18    27    26    1
    19    23    20    1
    20    23    22    1
    21    23    24    1
    22    10    11   ar
    23    13    33   ar
    24    13    12   ar
    25     2     3    1
    26    33    36   ar
    27    26    25    1
    28    42    41   ar
    29    12    11   ar
    30    12    28   ar
    31     3    25    2
    32    39    40    1
    33    36    28   ar
    34    36    37    1
    35    41    43   ar
    36    41    40    1
    37    28    29    1
    38    40    37    1
    39    40    38    1
    40    29    14    1
    41    14    15   ar
    42    14    30   ar
    43    15    16   ar
    44    30    17   ar
    45    16    18   ar
    46    17    18   ar
    47    18    31    1
