@<TRIPOS>MOLECULE
2q7t_TMP_B_1.pdb
 20 21 0 0 0
SMALL
GASTEIGER

@<TRIPOS>ATOM
      1  P         -7.0320   34.5070   40.0850 P.3   2001  TMP2001     0.3942
      2  O1P       -6.3320   33.2010   39.9620 O.3   2001  TMP2001    -0.1425
      3  O2P       -7.3680   35.2880   38.8620 O.3   2001  TMP2001    -0.1425
      4  O5'       -6.1910   35.4360   41.0700 O.3   2001  TMP2001    -0.2926
      5  C5'       -4.9120   35.9530   40.7090 C.3   2001  TMP2001     0.1829
      6  C4'       -4.7360   37.3480   41.2680 C.3   2001  TMP2001     0.1773
      7  O4'       -5.3200   38.3680   40.4080 O.3   2001  TMP2001    -0.3339
      8  C3'       -5.0200   37.7840   42.7100 C.3   2001  TMP2001     0.1857
      9  O3'       -3.8530   37.7250   43.5250 O.3   2001  TMP2001    -0.2203
     10  C2'       -5.5110   39.2230   42.5720 C.3   2001  TMP2001     0.0874
     11  C1'       -6.1510   39.2040   41.1860 C.3   2001  TMP2001     0.2090
     12  N1        -7.6310   39.1750   41.0250 N.am  2001  TMP2001    -0.1794
     13  C2        -8.2880   40.2310   40.4120 C.1   2001  TMP2001     0.2844
     14  O2        -7.7190   41.2310   39.9930 O.2   2001  TMP2001    -0.1918
     15  N3        -9.6500   40.0780   40.3170 N.2   2001  TMP2001    -0.2455
     16  C4       -10.4100   39.0170   40.7750 C.1   2001  TMP2001     0.2134
     17  O4       -11.6350   39.0740   40.7140 O.2   2001  TMP2001    -0.2088
     18  C5        -9.6600   37.9500   41.4040 C.2   2001  TMP2001     0.0891
     19  C5M      -10.3840   36.7260   41.8730 C.3   2001  TMP2001     0.0462
     20  C6        -8.3300   38.0840   41.4980 C.2   2001  TMP2001     0.0877
@<TRIPOS>BOND
     1     3     1    1
     2     2     1    1
     3    14    13    2
     4     1     4    1
     5    15    13    2
     6    15    16    2
     7     7    11    1
     8     7     6    1
     9    13    12   am
    10     5     4    1
    11     5     6    1
    12    17    16    2
    13    16    18    1
    14    12    11    1
    15    12    20    1
    16    11    10    1
    17     6     8    1
    18    18    20    2
    19    18    19    1
    20    10     8    1
    21     8     9    1
