@<TRIPOS>MOLECULE
2q7u_TMP_A_1.pdb
 20 21 0 0 0
SMALL
GASTEIGER

@<TRIPOS>ATOM
      1  P          1.1620   15.7620    8.9180 P.3   2001  TMP2001     0.3942
      2  O1P        0.4890   15.6610   10.2280 O.3   2001  TMP2001    -0.1425
      3  O2P        0.5820   15.0670    7.7280 O.3   2001  TMP2001    -0.1425
      4  O5'        2.6850   15.3190    9.1170 O.3   2001  TMP2001    -0.2926
      5  C5'        3.8100   16.2260    9.1240 C.3   2001  TMP2001     0.1829
      6  C4'        4.7330   15.9130   10.2810 C.3   2001  TMP2001     0.1773
      7  O4'        6.0780   16.4310   10.0740 O.3   2001  TMP2001    -0.3339
      8  C3'        4.4160   16.1150   11.7670 C.3   2001  TMP2001     0.1857
      9  O3'        3.8910   14.9340   12.3660 O.3   2001  TMP2001    -0.2203
     10  C2'        5.7620   16.4820   12.3870 C.3   2001  TMP2001     0.0874
     11  C1'        6.4700   17.1620   11.2170 C.3   2001  TMP2001     0.2090
     12  N1         6.6970   18.6340   11.2090 N.am  2001  TMP2001    -0.1794
     13  C2         5.8090   19.4810   11.8540 C.1   2001  TMP2001     0.2844
     14  O2         4.8060   19.0930   12.4380 O.2   2001  TMP2001    -0.1918
     15  N3         6.1360   20.8130   11.7810 N.2   2001  TMP2001    -0.2455
     16  C4         7.2190   21.3780   11.1300 C.1   2001  TMP2001     0.2134
     17  O4         7.3180   22.6000   11.0610 O.2   2001  TMP2001    -0.2088
     18  C5         8.1040   20.4360   10.4780 C.2   2001  TMP2001     0.0891
     19  C5M        9.3410   20.9420    9.8030 C.3   2001  TMP2001     0.0462
     20  C6         7.7990   19.1320   10.5470 C.2   2001  TMP2001     0.0877
@<TRIPOS>BOND
     1     3     1    1
     2     1     4    1
     3     1     2    1
     4     4     5    1
     5     5     6    1
     6    19    18    1
     7     7     6    1
     8     7    11    1
     9     6     8    1
    10    18    20    2
    11    18    16    1
    12    20    12    1
    13    17    16    2
    14    16    15    2
    15    12    11    1
    16    12    13   am
    17    11    10    1
    18     8     9    1
    19     8    10    1
    20    15    13    2
    21    13    14    2
