@<TRIPOS>MOLECULE
2q7w_PMP_A_1.pdb
 16 16 0 0 0
SMALL
GASTEIGER

@<TRIPOS>ATOM
      1  N1        26.4110    5.1710  -14.3670 N.ar  700  PMP700     -0.2452
      2  C2        25.9510    6.1240  -15.1780 C.ar  700  PMP700      0.0978
      3  C2A       26.6000    6.3330  -16.5000 C.3   700  PMP700      0.0555
      4  C3        24.9520    6.9160  -14.7670 C.ar  700  PMP700      0.2063
      5  O3        24.5550    7.9180  -15.5360 O.3   700  PMP700     -0.2856
      6  C4        24.3900    6.6820  -13.5210 C.ar  700  PMP700      0.0369
      7  C4A       23.3230    7.5890  -12.9940 C.3   700  PMP700      0.1386
      8  N4A       22.1060    6.9600  -13.2380 N.3   700  PMP700     -0.1261
      9  C5        24.8490    5.6680  -12.7090 C.ar  700  PMP700      0.0275
     10  C6        25.8370    4.8870  -13.2010 C.ar  700  PMP700      0.0965
     11  C5A       24.3880    5.4120  -11.2810 C.3   700  PMP700      0.1816
     12  O4P       23.0860    4.9120  -11.1890 O.3   700  PMP700     -0.2653
     13  P         22.3600    4.8770   -9.7810 P.3   700  PMP700      0.5329
     14  O1P       23.3540    4.5230   -8.7480 O.3   700  PMP700     -0.1145
     15  O2P       21.3850    3.8350   -9.9260 O.2   700  PMP700     -0.2224
     16  O3P       21.7170    6.1430   -9.5780 O.3   700  PMP700     -0.1145
@<TRIPOS>BOND
     1     3     2    1
     2     5     4    1
     3     2     4   ar
     4     2     1   ar
     5     4     6   ar
     6     1    10   ar
     7     6     7    1
     8     6     9   ar
     9     8     7    1
    10    10     9   ar
    11     9    11    1
    12    11    12    1
    13    12    13    1
    14    15    13    2
    15    13    16    1
    16    13    14    1
