@<TRIPOS>MOLECULE
2q7w_PSZ_A_1.pdb
 24 25 0 0 0
SMALL
GASTEIGER

@<TRIPOS>ATOM
      1  O1T       23.1580   13.7240  -13.8650 O.co2 600  PSZ600     -0.2400
      2  C3A       23.8240   12.6710  -13.9940 C.2   600  PSZ600      0.3937
      3  O2T       24.7850   12.3510  -14.7320 O.co2 600  PSZ600     -0.2400
      4  C2T       23.3820   11.5730  -13.0850 C.ar  600  PSZ600      0.1106
      5  S         22.2380   11.8310  -11.8030 S.2   600  PSZ600     -0.0785
      6  C5T       22.1690   10.2230  -11.1640 C.ar  600  PSZ600      0.0517
      7  C4T       23.0570    9.5510  -11.9960 C.ar  600  PSZ600      0.0729
      8  C3T       23.7260   10.2210  -13.0280 C.ar  600  PSZ600      0.0297
      9  N4A       23.2960    8.1300  -11.7900 N.pl3 600  PSZ600     -0.2322
     10  C4A       22.9930    7.3960  -13.0300 C.3   600  PSZ600      0.1416
     11  C4        24.2290    6.6610  -13.4940 C.ar  600  PSZ600      0.0394
     12  C3        24.7780    6.8520  -14.8550 C.ar  600  PSZ600      0.2065
     13  O3        24.1890    7.7020  -15.7420 O.3   600  PSZ600     -0.2856
     14  C2        25.9960    6.0840  -15.2160 C.ar  600  PSZ600      0.0978
     15  C2A       26.6000    6.2380  -16.5870 C.3   600  PSZ600      0.0555
     16  N1        26.5600    5.2520  -14.3270 N.ar  600  PSZ600     -0.2452
     17  C6        26.0800    5.0600  -13.0860 C.ar  600  PSZ600      0.0965
     18  C5        24.9460    5.7130  -12.6080 C.ar  600  PSZ600      0.0278
     19  C5A       24.4530    5.4580  -11.2030 C.3   600  PSZ600      0.1816
     20  O4P       23.0770    5.0830  -11.2430 O.3   600  PSZ600     -0.2653
     21  P         22.2480    4.8720   -9.8790 P.3   600  PSZ600      0.5329
     22  O3P       21.5880    6.2100   -9.6440 O.3   600  PSZ600     -0.1145
     23  O1P       23.3060    4.5120   -8.8630 O.3   600  PSZ600     -0.1145
     24  O2P       21.2900    3.7520  -10.2050 O.2   600  PSZ600     -0.2224
@<TRIPOS>BOND
     1    15    14    1
     2    13    12    1
     3    14    12   ar
     4    14    16   ar
     5    12    11   ar
     6     3     2   ar
     7    16    17   ar
     8     2     1   ar
     9     2     4    1
    10    11    10    1
    11    11    18   ar
    12    17    18   ar
    13     4     8   ar
    14     4     5   ar
    15    10     9    1
    16     8     7   ar
    17    18    19    1
    18     7     9    1
    19     7     6   ar
    20     5     6   ar
    21    20    19    1
    22    20    21    1
    23    24    21    2
    24    21    22    1
    25    21    23    1
