@<TRIPOS>MOLECULE
2q7y_IGC_A_1.pdb
 41 41 0 0 0
SMALL
GASTEIGER

@<TRIPOS>ATOM
      1  C1        -7.5690    1.4740   -5.5570 C.3   601  IGC601      0.0000
      2  C2        -8.7090    2.3070   -4.9650 C.3   601  IGC601      0.0000
      3  C3        -8.1840    3.5990   -4.3180 C.3   601  IGC601      0.0000
      4  C4        -8.7110    4.8520   -5.0310 C.3   601  IGC601      0.0000
      5  C5        -8.7560    6.0810   -4.1200 C.3   601  IGC601      0.0000
      6  C6       -10.1820    6.2870   -3.5660 C.3   601  IGC601      0.0000
      7  C7       -10.2560    5.9690   -2.0820 C.3   601  IGC601      0.0000
      8  C8       -10.7690    7.1730   -1.3000 C.3   601  IGC601      0.0000
      9  C9       -10.7930    6.8650    0.1920 C.3   601  IGC601      0.0000
     10  C10      -12.1870    7.0910    0.7820 C.3   601  IGC601      0.0000
     11  C11      -12.3210    6.4290    2.1390 C.3   601  IGC601      0.0000
     12  C12      -13.6550    5.7070    2.2500 C.3   601  IGC601      0.0000
     13  C13      -14.0810    5.6750    3.7020 C.3   601  IGC601      0.0001
     14  C14      -15.2390    4.9350    3.8540 C.3   601  IGC601      0.0027
     15  C15      -15.4020    4.0160    4.8850 C.3   601  IGC601      0.0348
     16  C16      -16.7530    3.3090    4.8660 C.3   601  IGC601      0.1743
     17  O1       -16.6230    1.9280    4.4450 O.3   601  IGC601     -0.2212
     18  C17      -17.4660    3.4000    6.2130 C.3   601  IGC601      0.1550
     19  C18      -18.8170    2.6910    6.0510 C.3   601  IGC601      0.1690
     20  O2       -19.5370    2.3390    7.2250 O.3   601  IGC601     -0.3266
     21  C19      -20.7510    1.5420    6.9640 C.3   601  IGC601      0.2695
     22  O3       -20.3800    0.1300    6.8150 O.3   601  IGC601     -0.3256
     23  C20      -21.5440   -0.7360    7.1260 C.3   601  IGC601      0.1835
     24  C21      -21.0910   -2.1960    7.3700 C.3   601  IGC601      0.2142
     25  O4       -19.9210   -2.2070    8.2080 O.3   601  IGC601     -0.2176
     26  C22      -22.6090   -0.5470    6.0210 C.3   601  IGC601      0.2144
     27  O5       -23.7960   -1.3120    6.2840 O.3   601  IGC601     -0.2176
     28  C35      -22.9880    0.9470    5.8930 C.3   601  IGC601      0.2198
     29  O16      -23.8520    1.1220    4.7580 O.3   601  IGC601     -0.2174
     30  C36      -21.7430    1.8770    5.8030 C.3   601  IGC601      0.2406
     31  O17      -22.1440    3.2560    5.8410 O.3   601  IGC601     -0.2149
     32  N1       -17.6720    4.8220    6.5400 N.am  601  IGC601     -0.2020
     33  C37      -17.1740    5.4280    7.6180 C.2   601  IGC601      0.2415
     34  O18      -16.4810    4.8630    8.4720 O.2   601  IGC601     -0.2733
     35  C38      -17.5450    6.9270    7.7250 C.3   601  IGC601      0.0868
     36  C39      -16.4080    7.8220    8.2410 C.3   601  IGC601      0.0096
     37  C40      -15.5340    8.2960    7.0830 C.3   601  IGC601      0.0005
     38  C41      -14.3930    9.2080    7.5600 C.3   601  IGC601      0.0000
     39  C42      -13.4310    9.5740    6.3970 C.3   601  IGC601      0.0000
     40  C43      -12.4520   10.6670    6.8240 C.3   601  IGC601      0.0000
     41  C44      -11.0810   10.5620    6.1240 C.3   601  IGC601      0.0000
@<TRIPOS>BOND
     1     1     2    1
     2     4     3    1
     3     4     5    1
     4     2     3    1
     5     5     6    1
     6     6     7    1
     7     7     8    1
     8     8     9    1
     9     9    10    1
    10    10    11    1
    11    11    12    1
    12    12    13    1
    13    13    14    1
    14    14    15    1
    15    17    16    1
    16    29    28    1
    17    16    15    1
    18    16    18    1
    19    30    31    1
    20    30    28    1
    21    30    21    1
    22    28    26    1
    23    26    27    1
    24    26    23    1
    25    19    18    1
    26    19    20    1
    27    41    40    1
    28    18    32    1
    29    39    40    1
    30    39    38    1
    31    32    33   am
    32    22    21    1
    33    22    23    1
    34    21    20    1
    35    37    38    1
    36    37    36    1
    37    23    24    1
    38    24    25    1
    39    33    35    1
    40    33    34    2
    41    35    36    1
