@<TRIPOS>MOLECULE
2q80_GRG_A_1.pdb
 29 28 0 0 0
SMALL
GASTEIGER

@<TRIPOS>ATOM
      1  C20       -3.1900  -57.9630  -28.1850 C.3   500  GRG500      0.0260
      2  C19       -4.5230  -60.1520  -27.6030 C.3   500  GRG500      0.0260
      3  C18       -4.5000  -58.7400  -28.1900 C.2   500  GRG500     -0.0478
      4  C17       -5.6120  -58.1270  -28.7580 C.2   500  GRG500     -0.0342
      5  C16       -6.8950  -58.6330  -28.9030 C.3   500  GRG500      0.0297
      6  C14       -9.2570  -58.2620  -30.8630 C.3   500  GRG500      0.0260
      7  C13       -9.2390  -57.9470  -29.3810 C.2   500  GRG500     -0.0478
      8  C15       -7.9290  -57.5260  -28.7730 C.3   500  GRG500      0.0263
      9  C12      -10.3850  -58.0230  -28.5960 C.2   500  GRG500     -0.0342
     10  C11      -11.6800  -58.3840  -28.9770 C.3   500  GRG500      0.0297
     11  C9       -12.3930  -59.0790  -27.8210 C.3   500  GRG500      0.0263
     12  C8       -13.8890  -58.8340  -27.8890 C.2   500  GRG500     -0.0478
     13  C10      -14.6410  -58.0240  -26.8130 C.3   500  GRG500      0.0260
     14  C7       -14.5500  -59.3770  -28.9770 C.2   500  GRG500     -0.0342
     15  C6       -15.9040  -59.2710  -29.2310 C.3   500  GRG500      0.0297
     16  C5       -16.1740  -59.0590  -30.7140 C.3   500  GRG500      0.0264
     17  C3       -17.6650  -59.1500  -30.9750 C.2   500  GRG500     -0.0454
     18  C4       -18.1690  -60.2110  -31.9290 C.3   500  GRG500      0.0261
     19  C2       -18.5190  -58.2680  -30.3290 C.2   500  GRG500     -0.0024
     20  C1       -19.9000  -58.1660  -30.3850 C.3   500  GRG500      0.1747
     21  O1       -20.4420  -58.3290  -29.0600 O.3   500  GRG500     -0.3089
     22  PA       -21.8260  -57.6720  -28.5850 P.3   500  GRG500      0.2233
     23  O1A      -22.8780  -57.6340  -29.8280 O.2   500  GRG500     -0.5169
     24  O3A      -21.6070  -56.2340  -28.0640 O.3   500  GRG500     -0.2261
     25  O2A      -22.3010  -58.4750  -27.4630 O.3   500  GRG500     -0.4370
     26  PB       -21.3120  -54.9850  -28.9870 P.3   500  GRG500      0.5373
     27  O1B      -19.9990  -54.9620  -29.6230 O.3   500  GRG500     -0.1143
     28  O2B      -22.4910  -54.9070  -30.1040 O.2   500  GRG500     -0.2221
     29  O3B      -21.5260  -53.8410  -27.9040 O.3   500  GRG500     -0.1143
@<TRIPOS>BOND
     1    18    17    1
     2    17    16    1
     3    17    19    2
     4     6     7    1
     5    16    15    1
     6    20    19    1
     7    20    21    1
     8    28    26    2
     9    23    22    2
    10    27    26    1
    11     7     8    1
    12     7     9    2
    13    15    14    1
    14    21    22    1
    15    26    24    1
    16    26    29    1
    17    10     9    1
    18    10    11    1
    19    14    12    2
    20     5     8    1
    21     5     4    1
    22     4     3    2
    23    22    24    1
    24    22    25    1
    25     3     1    1
    26     3     2    1
    27    12    11    1
    28    12    13    1
