@<TRIPOS>MOLECULE
2q83_ADN_A_1.pdb
 19 21 0 0 0
SMALL
GASTEIGER

@<TRIPOS>ATOM
      1  O5'        8.2310   70.7120   64.0320 O.3     1  ADN1       -0.2176
      2  C5'        8.6190   70.5000   65.3930 C.3     1  ADN1        0.2143
      3  C4'        8.5110   71.8230   66.1580 C.3     1  ADN1        0.1851
      4  O4'        7.4710   71.7770   67.1540 O.3     1  ADN1       -0.3134
      5  C3'        9.7880   72.2260   66.9110 C.3     1  ADN1        0.2186
      6  O3'       10.4650   73.2770   66.2160 O.3     1  ADN1       -0.2174
      7  C2'        9.3350   72.6430   68.3010 C.3     1  ADN1        0.2570
      8  O2'        9.9440   73.8520   68.7650 O.3     1  ADN1       -0.2130
      9  C1'        7.8300   72.7910   68.1070 C.3     1  ADN1        0.3186
     10  N9         7.0910   72.7600   69.4190 N.pl3   1  ADN1       -0.1439
     11  C8         6.6260   71.7320   70.1780 C.3     1  ADN1        0.3377
     12  N7         5.9990   72.2130   71.3030 N.2     1  ADN1       -0.2095
     13  C5         6.0510   73.5710   71.2750 C.2     1  ADN1        0.2526
     14  C6         5.6090   74.7430   72.1030 C.2     1  ADN1        0.4393
     15  N6         4.9370   74.6270   73.2750 N.pl3   1  ADN1        0.2180
     16  N1         5.9130   75.9770   71.6440 N.2     1  ADN1        0.0021
     17  C2         6.5890   76.1590   70.4860 C.3     1  ADN1        0.5254
     18  N3         7.0120   75.1800   69.7000 N.2     1  ADN1       -0.0055
     19  C4         6.7770   73.8960   70.0310 C.2     1  ADN1        0.3518
@<TRIPOS>BOND
     1     1     2    1
     2     2     3    1
     3     3     5    1
     4     3     4    1
     5     6     5    1
     6     5     7    1
     7     4     9    1
     8     9     7    1
     9     9    10    1
    10     7     8    1
    11    10    19    1
    12    10    11    1
    13    18    19    2
    14    18    17    1
    15    19    13    1
    16    11    12    1
    17    17    16    1
    18    13    12    2
    19    13    14    1
    20    16    14    2
    21    14    15    1
