@<TRIPOS>MOLECULE
2q85_973_A_1.pdb
 25 28 0 0 0
SMALL
GASTEIGER

@<TRIPOS>ATOM
      1  C1         7.1540  -14.9410   11.4290 C.ar  401  973401      0.0000
      2  C2         7.8310  -13.7540   11.1770 C.ar  401  973401      0.0000
      3  C3         7.1180  -12.5910   10.8640 C.ar  401  973401      0.0000
      4  C4         5.6980  -12.5760   10.7930 C.ar  401  973401      0.0001
      5  C5         5.0270  -13.8090   11.0570 C.ar  401  973401      0.0000
      6  C6         5.7620  -14.9680   11.3710 C.ar  401  973401      0.0000
      7  C7         3.6260  -13.8790   11.0070 C.ar  401  973401      0.0000
      8  C8         2.8710  -12.7530   10.7000 C.ar  401  973401      0.0000
      9  C9         3.5020  -11.5410   10.4400 C.ar  401  973401      0.0001
     10  C10        4.9110  -11.4200   10.4810 C.ar  401  973401      0.0031
     11  C11        5.5360  -10.1050   10.1910 C.2   401  973401      0.0409
     12  C12        4.9700   -8.9040   10.4240 C.2   401  973401      0.1876
     13  C13        5.4900   -7.6110   10.1120 C.2   401  973401      0.2361
     14  C14        4.6420   -6.6500   10.4880 C.2   401  973401      0.1179
     15  C15        3.5060   -7.3940   11.0740 C.2   401  973401      0.3490
     16  O1         2.4970   -6.8930   11.5450 O.2   401  973401     -0.2444
     17  O2         3.7290   -8.7440   11.0270 O.3   401  973401     -0.4177
     18  C16        4.7290   -5.1940   10.3790 C.ar  401  973401      0.0095
     19  C17        5.2850   -4.5780    9.2430 C.ar  401  973401      0.0012
     20  C18        5.3570   -3.1810    9.1480 C.ar  401  973401      0.0114
     21  C19        4.8680   -2.3880   10.1890 C.ar  401  973401      0.0577
     22  C20        4.3120   -2.9820   11.3210 C.ar  401  973401      0.0114
     23  C21        4.2420   -4.3760   11.4140 C.ar  401  973401      0.0012
     24 CL1         4.9510   -0.6710   10.0850 Cl    401  973401     -0.0822
     25  O3         6.7070   -7.4890    9.5100 O.2   401  973401     -0.2831
@<TRIPOS>BOND
     1    20    19   ar
     2    20    21   ar
     3    19    18   ar
     4    25    13    1
     5    24    21    1
     6    13    12    1
     7    13    14    2
     8    21    22   ar
     9    11    12    2
    10    11    10    1
    11    18    14    1
    12    18    23   ar
    13    12    17    1
    14     9    10   ar
    15     9     8   ar
    16    10     4   ar
    17    14    15    1
    18     8     7   ar
    19     4     3   ar
    20     4     5   ar
    21     3     2   ar
    22     7     5   ar
    23    17    15    1
    24     5     6   ar
    25    15    16    2
    26     2     1   ar
    27    22    23   ar
    28     6     1   ar
