@<TRIPOS>MOLECULE
2q88_4CS_A_1.pdb
 10 10 0 0 0
SMALL
GASTEIGER

@<TRIPOS>ATOM
      1  O         24.0780   41.6350   73.3820 O.co2 501  4CS501     -0.2435
      2  C         23.5290   40.8460   72.6130 C.2   501  4CS501      0.3875
      3  OXT       24.0220   40.6220   71.5010 O.co2 501  4CS501     -0.2435
      4  CA        22.2270   40.1680   73.0190 C.3   501  4CS501      0.2173
      5  CB        22.2010   39.7480   74.4760 C.3   501  4CS501      0.0639
      6  CAD       20.8430   39.1210   74.8070 C.3   501  4CS501      0.1386
      7  NAG       20.5780   37.9940   73.8750 N.2   501  4CS501     -0.2239
      8  CAI       21.1280   37.9710   72.5840 C.1   501  4CS501      0.0036
      9  CAA       20.8530   36.7870   71.6410 C.3   501  4CS501      0.1143
     10  N         21.9620   39.0090   72.1470 N.2   501  4CS501     -0.2144
@<TRIPOS>BOND
     1     3     2   ar
     2     9     8    1
     3    10     8    2
     4    10     4    1
     5     8     7    2
     6     2     4    1
     7     2     1   ar
     8     4     5    1
     9     7     6    1
    10     5     6    1
