@<TRIPOS>MOLECULE
2q89_6CS_A_1.pdb
 11 11 0 0 0
SMALL
GASTEIGER

@<TRIPOS>ATOM
      1  O         15.6550   24.2200   32.7830 O.co2 501  6CS501     -0.2434
      2  C         16.3760   23.6530   31.9400 C.2   501  6CS501      0.3901
      3  OXT       16.5880   24.0770   30.7810 O.co2 501  6CS501     -0.2434
      4  CA        17.0450   22.3110   32.3500 C.3   501  6CS501      0.2473
      5  N         18.1960   22.0150   31.4680 N.2   501  6CS501     -0.2117
      6  CAI       19.2850   21.2470   31.9200 C.1   501  6CS501      0.0038
      7  CAA       20.4450   20.9610   30.9830 C.3   501  6CS501      0.1143
      8  NAG       19.3380   20.7470   33.2290 N.2   501  6CS501     -0.2212
      9  CG2       18.2350   20.9940   34.1750 C.3   501  6CS501      0.1714
     10  CB        17.4710   22.2800   33.8380 C.3   501  6CS501      0.2110
     11  OG1       16.3180   22.2720   34.6690 O.3   501  6CS501     -0.2182
@<TRIPOS>BOND
     1     3     2   ar
     2     7     6    1
     3     5     6    2
     4     5     4    1
     5     6     8    2
     6     2     4    1
     7     2     1   ar
     8     4    10    1
     9     8     9    1
    10    10     9    1
    11    10    11    1
