@<TRIPOS>MOLECULE
2q8c_III_F_1.pdb
 34 33 0 0 0
SMALL
GASTEIGER

@<TRIPOS>ATOM
      1  N        -21.7430   67.5790  -14.4330 N.3     7  ALA7       -0.1231
      2  CA       -22.6160   68.4900  -13.6360 C.3     7  ALA7        0.1694
      3  C        -22.9100   67.9030  -12.2570 C.2     7  ALA7        0.2592
      4  O        -22.6810   68.5640  -11.2480 O.2     7  ALA7       -0.2718
      5  CB       -23.9170   68.8150  -14.3910 C.3     7  ALA7        0.0304
      6  N        -23.4180   66.6700  -12.2210 N.am    8  ARG8       -0.1966
      7  CA       -23.6100   65.9330  -10.9590 C.3     8  ARG8        0.1729
      8  C        -23.6330   64.4220  -11.1860 C.2     8  ARG8        0.2616
      9  O        -23.9420   63.9520  -12.2870 O.2     8  ARG8       -0.2715
     10  CB       -24.8940   66.3710  -10.2270 C.3     8  ARG8        0.0348
     11  CG       -26.1850   66.0440  -10.9730 C.3     8  ARG8        0.0492
     12  CD       -27.4210   66.0550  -10.0790 C.3     8  ARG8        0.2205
     13  NE       -28.5820   65.5100  -10.7920 N.pl3   8  ARG8       -0.0865
     14  CZ       -29.1840   64.3490  -10.5220 C.cat   8  ARG8        0.5346
     15  NH1      -28.7800   63.5730   -9.5160 N.pl3   8  ARG8        0.1354
     16  NH2      -30.2200   63.9710  -11.2610 N.pl3   8  ARG8        0.1354
     17  N        -23.2990   63.6750  -10.1370 N.am    9  LYS9       -0.1963
     18  CA       -23.4660   62.2190  -10.1080 C.3     9  LYS9        0.1728
     19  CB       -22.6850   61.6940   -8.9060 C.3     9  LYS9        0.0310
     20  CG       -22.8180   60.2060   -8.6140 C.3     9  LYS9        0.0001
     21  CD       -21.9330   59.8640   -7.4180 C.3     9  LYS9       -0.0222
     22  CE       -22.1150   58.4190   -6.9660 C.3     9  LYS9       -0.0733
     23  NZ       -21.4700   58.0860   -5.6660 N.4     9  LYS9        0.3857
     24  C        -24.9320   61.8800   -9.9890 C.2     9  LYS9        0.2616
     25  O        -25.6740   62.5440   -9.2550 O.2     9  LYS9       -0.2715
     26  CM1      -19.9990   58.0470   -5.7780 C.3     9  LYS9       -0.0960
     27  CM2      -21.8590   59.0420   -4.6090 C.3     9  LYS9       -0.0960
     28  CM3      -21.9220   56.7290   -5.2890 C.3     9  LYS9       -0.0960
     29  N        -25.3620   60.8480  -10.7080 N.am   10  SER10      -0.1950
     30  CA       -26.7660   60.4270  -10.6990 C.3    10  SER10       0.1924
     31  C        -26.8730   58.9160  -10.5040 C.2    10  SER10       0.2314
     32  O        -26.0890   58.1540  -11.0820 O.2    10  SER10      -0.2863
     33  CB       -27.4700   60.8750  -11.9970 C.3    10  SER10       0.2116
     34  OG       -28.7590   60.2930  -12.1520 O.3    10  SER10      -0.2180
@<TRIPOS>BOND
     1     1     2    1
     2     5     2    1
     3     2     3    1
     4     9     8    2
     5     3     6   am
     6     3     4    2
     7     6     7    1
     8    34    33    1
     9    33    30    1
    10    16    14    1
    11     8     7    1
    12     8    17   am
    13    32    31    2
    14    11    10    1
    15    11    12    1
    16     7    10    1
    17    13    14    2
    18    13    12    1
    19    29    30    1
    20    29    24   am
    21    30    31    1
    22    14    15    1
    23    17    18    1
    24    18    24    1
    25    18    19    1
    26    24    25    2
    27    19    20    1
    28    20    21    1
    29    21    22    1
    30    22    23    1
    31    26    23    1
    32    23    28    1
    33    23    27    1
