@<TRIPOS>MOLECULE
2q8c_AKG_A_1.pdb
 10 9 0 0 0
SMALL
GASTEIGER

@<TRIPOS>ATOM
      1  C1       -21.0040   53.0750   -5.3890 C.2   503  AKG503      0.4219
      2  O1       -20.8270   52.9490   -4.1600 O.co2 503  AKG503     -0.2373
      3  O2       -20.0680   53.2650   -6.3090 O.co2 503  AKG503     -0.2373
      4  C2       -22.4170   53.0710   -5.7240 C.2   503  AKG503      0.2526
      5  O5       -22.7530   53.2810   -6.8890 O.2   503  AKG503     -0.2843
      6  C3       -23.5110   52.9050   -4.6200 C.3   503  AKG503      0.0881
      7  C4       -24.8380   53.3980   -5.1320 C.3   503  AKG503      0.1224
      8  C5       -25.8800   53.1190   -4.0110 C.2   503  AKG503      0.3653
      9  O3       -25.4620   52.7710   -2.8610 O.co2 503  AKG503     -0.2456
     10  O4       -27.0920   53.2510   -4.3340 O.co2 503  AKG503     -0.2456
@<TRIPOS>BOND
     1     5     4    2
     2     3     1   ar
     3     4     1    1
     4     4     6    1
     5     1     2   ar
     6     7     6    1
     7     7     8    1
     8    10     8   ar
     9     8     9   ar
