@<TRIPOS>MOLECULE
2q8d_III_F_1.pdb
 26 25 0 0 0
SMALL
GASTEIGER

@<TRIPOS>ATOM
      1  N        -17.4210  -69.4390  -13.3220 N.3    33  GLY33      -0.1210
      2  CA       -18.4040  -69.2080  -14.4190 C.3    33  GLY33       0.1956
      3  C        -19.4830  -68.1870  -14.0940 C.2    33  GLY33       0.2612
      4  O        -19.2620  -67.2640  -13.3010 O.2    33  GLY33      -0.2717
      5  N        -20.6510  -68.3630  -14.7160 N.am   34  GLY34      -0.1942
      6  CA       -21.7920  -67.4510  -14.5780 C.3    34  GLY34       0.2014
      7  C        -22.4580  -67.1670  -15.9170 C.2    34  GLY34       0.2639
      8  O        -22.2890  -67.9330  -16.8750 O.2    34  GLY34      -0.2714
      9  N        -23.2350  -66.0820  -15.9730 N.am   35  VAL35      -0.1963
     10  CA       -23.8610  -65.5840  -17.2130 C.3    35  VAL35       0.1727
     11  C        -23.8110  -64.0450  -17.1790 C.2    35  VAL35       0.2616
     12  O        -23.9950  -63.4450  -16.1090 O.2    35  VAL35      -0.2715
     13  CB       -25.3540  -66.0700  -17.3720 C.3    35  VAL35       0.0290
     14  CG1      -25.9710  -65.5740  -18.6780 C.3    35  VAL35       0.0023
     15  CG2      -25.4750  -67.5910  -17.3000 C.3    35  VAL35       0.0023
     16  N        -23.5540  -63.4060  -18.3230 N.am   36  LYS36      -0.1977
     17  CA       -23.5580  -61.9210  -18.4030 C.3    36  LYS36       0.1596
     18  CB       -22.8850  -61.3970  -19.6780 C.3    36  LYS36       0.0297
     19  CG       -22.5800  -59.8960  -19.6130 C.3    36  LYS36       0.0037
     20  CD       -22.7970  -59.1930  -20.9540 C.3    36  LYS36       0.0174
     21  CE       -21.4700  -59.0050  -21.6920 C.3    36  LYS36       0.0722
     22  NZ       -21.5950  -58.1830  -22.9090 N.3    36  LYS36      -0.2703
     23  CH1      -20.3110  -57.5030  -23.1710 C.3    36  LYS36       0.0897
     24  CH2      -21.9690  -59.0180  -24.0640 C.3    36  LYS36       0.0897
     25  C        -24.9530  -61.3480  -18.2980 C.2    36  LYS36       0.2287
     26  O        -25.9300  -61.9670  -18.7410 O.2    36  LYS36      -0.2864
@<TRIPOS>BOND
     1    24    22    1
     2    23    22    1
     3    22    21    1
     4    21    20    1
     5    20    19    1
     6    18    19    1
     7    18    17    1
     8    26    25    2
     9    14    13    1
    10    17    16    1
    11    17    25    1
    12    16    11   am
    13    13    15    1
    14    13    10    1
    15    10    11    1
    16    10     9    1
    17    11    12    2
    18     8     7    2
    19     9     7   am
    20     7     6    1
    21     5     6    1
    22     5     3   am
    23     2     3    1
    24     2     1    1
    25     3     4    2
