@<TRIPOS>MOLECULE
2q8e_III_F_1.pdb
 25 24 0 0 0
SMALL
GASTEIGER

@<TRIPOS>ATOM
      1  N        -17.0720  -70.0520  -13.3810 N.3    33  GLY33      -0.1210
      2  CA       -18.0410  -69.6580  -14.4500 C.3    33  GLY33       0.1956
      3  C        -19.0770  -68.5960  -14.0850 C.2    33  GLY33       0.2612
      4  O        -18.7930  -67.6680  -13.3230 O.2    33  GLY33      -0.2717
      5  N        -20.2820  -68.7450  -14.6450 N.am   34  GLY34      -0.1942
      6  CA       -21.3990  -67.8060  -14.4540 C.3    34  GLY34       0.2014
      7  C        -22.1020  -67.5460  -15.7770 C.2    34  GLY34       0.2639
      8  O        -21.9920  -68.3570  -16.7150 O.2    34  GLY34      -0.2714
      9  N        -22.8360  -66.4310  -15.8550 N.am   35  VAL35      -0.1963
     10  CA       -23.3810  -65.9320  -17.1330 C.3    35  VAL35       0.1728
     11  C        -23.4900  -64.4110  -17.0890 C.2    35  VAL35       0.2616
     12  O        -23.8750  -63.8460  -16.0590 O.2    35  VAL35      -0.2715
     13  CB       -24.7570  -66.5700  -17.4980 C.3    35  VAL35       0.0334
     14  N        -23.1300  -63.7550  -18.1940 N.am   36  LYS36      -0.1977
     15  CA       -23.0670  -62.2710  -18.2720 C.3    36  LYS36       0.1596
     16  CB       -22.4840  -61.8660  -19.6320 C.3    36  LYS36       0.0296
     17  CG       -22.4430  -60.3680  -19.8760 C.3    36  LYS36       0.0001
     18  CD       -21.5380  -60.0450  -21.0620 C.3    36  LYS36      -0.0222
     19  CE       -21.7130  -58.5940  -21.4880 C.3    36  LYS36      -0.0733
     20  NZ       -21.2330  -58.2410  -22.8550 N.4    36  LYS36       0.3857
     21  C        -24.3880  -61.5630  -18.0100 C.2    36  LYS36       0.2287
     22  O        -25.4280  -61.9220  -18.5710 O.2    36  LYS36      -0.2864
     23  CM1      -19.7560  -58.1040  -22.9150 C.3    36  LYS36      -0.0960
     24  CM2      -21.6830  -59.1960  -23.8870 C.3    36  LYS36      -0.0960
     25  CM3      -21.8070  -56.9100  -23.1670 C.3    36  LYS36      -0.0960
@<TRIPOS>BOND
     1    24    20    1
     2    25    20    1
     3    23    20    1
     4    20    19    1
     5    19    18    1
     6    18    17    1
     7    17    16    1
     8    16    15    1
     9    22    21    2
    10    15    14    1
    11    15    21    1
    12    14    11   am
    13    13    10    1
    14    10    11    1
    15    10     9    1
    16    11    12    2
    17     8     7    2
    18     9     7   am
    19     7     6    1
    20     5     6    1
    21     5     3   am
    22     2     3    1
    23     2     1    1
    24     3     4    2
