@<TRIPOS>MOLECULE
2q8e_OGA_A_1.pdb
 10 9 0 0 0
SMALL
GASTEIGER

@<TRIPOS>ATOM
      1  C1       -20.6270  -53.4330  -23.5660 C.2   503  OGA503      0.4422
      2  C2       -22.0550  -53.0270  -23.1040 C.2   503  OGA503      0.3494
      3  C4       -24.4080  -52.7020  -23.4390 C.2   503  OGA503      0.1751
      4  C5       -25.5550  -52.7670  -24.4560 C.2   503  OGA503      0.4043
      5  O1       -20.4390  -53.7920  -24.7690 O.co2 503  OGA503     -0.2353
      6  O2       -19.7410  -53.3930  -22.6560 O.co2 503  OGA503     -0.2353
      7  O2'      -22.1920  -52.6750  -21.9290 O.2   503  OGA503     -0.2607
      8  O3       -26.7190  -52.8670  -23.9520 O.co2 503  OGA503     -0.2390
      9  N1       -23.0910  -53.0580  -23.9500 N.am  503  OGA503     -0.1615
     10  O4       -25.2570  -52.6730  -25.6740 O.co2 503  OGA503     -0.2390
@<TRIPOS>BOND
     1    10     4   ar
     2     5     1   ar
     3     4     8   ar
     4     4     3    1
     5     9     3    2
     6     9     2    1
     7     1     2    1
     8     1     6   ar
     9     2     7    2
