@<TRIPOS>MOLECULE
2q8g_AZX_A_1.pdb
 31 32 0 0 0
SMALL
GASTEIGER

@<TRIPOS>ATOM
      1  F29       -4.4200   40.8940    0.7420 F     438  AZX438     -0.1670
      2  C27       -4.3670   40.3270    1.9280 C.3   438  AZX438      0.4308
      3  F30       -4.7200   39.0570    1.8500 F     438  AZX438     -0.1670
      4  F31       -3.1450   40.3520    2.4670 F     438  AZX438     -0.1670
      5  C24       -5.2520   41.1730    2.8510 C.3   438  AZX438      0.2819
      6  O25       -4.7350   42.5210    2.7380 O.3   438  AZX438     -0.2073
      7  C26       -6.7180   41.2080    2.4590 C.3   438  AZX438      0.0515
      8  C23       -5.0650   40.7130    4.2850 C.2   438  AZX438      0.2815
      9  O28       -5.4560   39.6220    4.6620 O.2   438  AZX438     -0.2700
     10  N22       -4.4610   41.5610    5.1010 N.am  438  AZX438     -0.1761
     11  C18       -4.0520   41.2630    6.3720 C.ar  438  AZX438      0.0840
     12  C17       -4.0290   39.9800    6.9500 C.ar  438  AZX438      0.0188
     13  C16       -3.5560   39.8390    8.2760 C.ar  438  AZX438      0.0201
     14  C19       -3.5630   42.4100    7.1950 C.ar  438  AZX438      0.0742
     15 CL1        -3.6280   44.0430    6.4730 Cl    438  AZX438     -0.0808
     16  C20       -3.1110   42.2210    8.5090 C.ar  438  AZX438      0.0314
     17  C15       -3.0900   40.9230    9.0560 C.ar  438  AZX438      0.1112
     18  S12       -2.5880   40.7410   10.6140 S.O2  438  AZX438      0.0275
     19  O14       -1.8160   39.5570   10.8740 O.2   438  AZX438     -0.1642
     20  O15       -1.7850   41.8860   10.9640 O.2   438  AZX438     -0.1642
     21  C1        -3.9490   40.7310   11.4200 C.ar  438  AZX438      0.1103
     22  C6        -4.4990   41.9290   11.8930 C.ar  438  AZX438      0.0189
     23  C5        -5.7020   41.9280   12.5980 C.ar  438  AZX438      0.0058
     24  C2        -4.5890   39.5250   11.6030 C.ar  438  AZX438      0.0189
     25  C3        -5.7940   39.5050   12.2910 C.ar  438  AZX438      0.0058
     26  C4        -6.3500   40.7020   12.7880 C.ar  438  AZX438      0.0537
     27  C7        -7.6650   40.5970   13.5370 C.2   438  AZX438      0.2491
     28  O8        -7.7350   39.6930   14.3860 O.2   438  AZX438     -0.2699
     29  N9        -8.7020   41.4370   13.2660 N.am  438  AZX438     -0.2726
     30  C11       -8.8390   42.2310   12.0440 C.3   438  AZX438      0.1152
     31  C10       -9.8320   41.6260   14.1860 C.3   438  AZX438      0.1152
@<TRIPOS>BOND
     1     1     2    1
     2     3     2    1
     3     2     4    1
     4     2     5    1
     5     7     5    1
     6     6     5    1
     7     5     8    1
     8     8     9    2
     9     8    10   am
    10    10    11    1
    11    11    12   ar
    12    11    14   ar
    13    15    14    1
    14    12    13   ar
    15    14    16   ar
    16    13    17   ar
    17    16    17   ar
    18    17    18    1
    19    18    19    2
    20    18    20    2
    21    18    21    1
    22    21    24   ar
    23    21    22   ar
    24    24    25   ar
    25    22    23   ar
    26    30    29    1
    27    25    26   ar
    28    23    26   ar
    29    26    27    1
    30    29    27   am
    31    29    31    1
    32    27    28    2
