@<TRIPOS>MOLECULE
2q8i_RDC_A_1.pdb
 25 27 0 0 0
SMALL
GASTEIGER

@<TRIPOS>ATOM
      1  C1       -48.8340   21.5200   66.0020 C.2   408  RDC408      0.3440
      2  C2       -49.9830   21.3490   66.9130 C.ar  408  RDC408      0.1119
      3  C3       -50.7330   22.5800   67.2160 C.ar  408  RDC408      0.2048
      4  C4       -51.8400   22.5770   68.0540 C.ar  408  RDC408      0.0851
      5  C5       -52.2250   21.3570   68.5790 C.ar  408  RDC408      0.2090
      6  C6       -51.5200   20.0860   68.2780 C.ar  408  RDC408      0.0933
      7  C7       -50.3600   20.0250   67.4620 C.ar  408  RDC408      0.0086
      8  C8       -49.7260   18.6810   67.1680 C.3   408  RDC408      0.0966
      9  C9       -49.2710   17.8950   68.3810 C.2   408  RDC408      0.1775
     10  C10      -48.5860   18.5240   69.5770 C.2   408  RDC408      0.0378
     11  C11      -47.6430   19.4450   69.3540 C.2   408  RDC408      0.0027
     12  C12      -46.9190   20.1300   70.4400 C.2   408  RDC408     -0.0020
     13  C13      -46.2860   21.3070   70.2840 C.2   408  RDC408      0.0053
     14  C14      -46.2740   22.0750   68.9770 C.3   408  RDC408      0.1643
     15  C15      -45.1850   21.6570   67.9610 C.3   408  RDC408      0.1504
     16  C16      -45.4880   22.2520   66.5600 C.3   408  RDC408      0.0760
     17  C17      -46.4270   21.3820   65.7310 C.3   408  RDC408      0.1718
     18  C18      -45.7410   20.0360   65.4190 C.3   408  RDC408      0.0474
     19  O1       -47.5910   21.0780   66.5160 O.3   408  RDC408     -0.4491
     20  O2       -48.9640   22.0170   64.9020 O.2   408  RDC408     -0.2448
     21  O3       -50.2380   23.6910   66.6010 O.3   408  RDC408     -0.2862
     22  O4       -53.2750   21.2510   69.4170 O.3   408  RDC408     -0.2856
     23 CL1       -52.0140   18.5270   68.9210 Cl    408  RDC408     -0.0792
     24  O5       -49.4560   16.7000   68.3340 O.2   408  RDC408     -0.2910
     25  O6       -45.0380   22.7570   68.8420 O.3   408  RDC408     -0.3489
@<TRIPOS>BOND
     1    20     1    2
     2    18    17    1
     3    17    19    1
     4    17    16    1
     5     1    19    1
     6     1     2    1
     7    16    15    1
     8    21     3    1
     9     2     3   ar
    10     2     7   ar
    11     8     7    1
    12     8     9    1
    13     3     4   ar
    14     7     6   ar
    15    15    25    1
    16    15    14    1
    17     4     5   ar
    18     6     5   ar
    19     6    23    1
    20    24     9    2
    21     9    10    1
    22     5    22    1
    23    25    14    1
    24    14    13    1
    25    11    10    2
    26    11    12    1
    27    13    12    2
