@<TRIPOS>MOLECULE
2q8i_RED_B_1.pdb
 11 10 0 0 0
SMALL
GASTEIGER

@<TRIPOS>ATOM
      1  C1       -79.0480    1.1000   85.1770 C.2   300  RED300      0.2074
      2  O1       -79.0490    0.1280   85.9460 O.2   300  RED300     -0.2883
      3  C2       -79.4070    2.5040   85.6160 C.3   300  RED300      0.0722
      4  C3       -78.3550    2.9170   86.6330 C.3   300  RED300      0.0082
      5  C4       -78.8480    4.0750   87.4860 C.3   300  RED300      0.0014
      6  C5       -77.8880    4.4540   88.6200 C.3   300  RED300      0.0117
      7  C6       -76.5340    4.9010   88.0770 C.3   300  RED300      0.0588
      8  C7       -75.4960    4.7760   89.1880 C.3   300  RED300      0.0242
      9  C8       -74.9260    6.1120   89.6240 C.3   300  RED300      0.0696
     10  S8       -73.1280    6.0030   89.4680 S.3   300  RED300     -0.0821
     11  S6       -76.6900    6.5650   87.4190 S.3   300  RED300     -0.0830
@<TRIPOS>BOND
     1     1     3    1
     2     1     2    2
     3     3     4    1
     4     4     5    1
     5    11     7    1
     6     5     6    1
     7     7     6    1
     8     7     8    1
     9     8     9    1
    10    10     9    1
