@<TRIPOS>MOLECULE
2q8j_BMA_A_1.pdb
 12 12 0 0 0
SMALL
GASTEIGER

@<TRIPOS>ATOM
      1  C1        10.4240   13.3090   11.7010 C.3   708  BMA708      0.3024
      2  C2        11.5640   14.2500   12.0430 C.3   708  BMA708      0.2434
      3  C3        12.2620   13.7870   13.3150 C.3   708  BMA708      0.2199
      4  C4        11.2980   13.3250   14.4030 C.3   708  BMA708      0.2144
      5  C5        10.0990   12.5390   13.8740 C.3   708  BMA708      0.1836
      6  C6         9.0180   12.3690   14.9420 C.3   708  BMA708      0.2142
      7  O1         9.7130   13.8250   10.5970 O.3   708  BMA708     -0.1869
      8  O2        11.0000   15.5250   12.2470 O.3   708  BMA708     -0.2148
      9  O3        13.0530   14.8350   13.8680 O.3   708  BMA708     -0.2174
     10  O4        12.0800   12.5070   15.2460 O.3   708  BMA708     -0.2176
     11  O5         9.5500   13.2540   12.7990 O.3   708  BMA708     -0.3236
     12  O6         7.8040   11.9500   14.3500 O.3   708  BMA708     -0.2176
@<TRIPOS>BOND
     1     7     1    1
     2     1     2    1
     3     1    11    1
     4     2     8    1
     5     2     3    1
     6    11     5    1
     7     3     9    1
     8     3     4    1
     9     5     4    1
    10     5     6    1
    11    12     6    1
    12     4    10    1
