@<TRIPOS>MOLECULE
2q8j_M2P_A_1.pdb
 12 11 0 0 0
SMALL
GASTEIGER

@<TRIPOS>ATOM
      1  C1        14.1640   20.4630   18.5940 C.3   707  M2P707      0.2175
      2  C5         9.8900   18.8400   19.8950 C.3   707  M2P707      0.2175
      3  C6         8.5070   19.2400   20.4180 C.3   707  M2P707      0.2175
      4  C4        10.5500   19.7870   18.9040 C.3   707  M2P707      0.2175
      5  C3        11.8120   20.4020   19.4670 C.3   707  M2P707      0.2175
      6  C2        12.7210   20.8990   18.3480 C.3   707  M2P707      0.2175
      7  O1        14.6390   19.6840   17.4740 O.3   707  M2P707     -0.2175
      8  O2        12.2680   20.4020   17.0780 O.3   707  M2P707     -0.2175
      9  O3        11.4090   21.5170   20.2650 O.3   707  M2P707     -0.2175
     10  O4         9.6920   20.8720   18.5400 O.3   707  M2P707     -0.2175
     11  O5         9.7200   17.6220   19.1870 O.3   707  M2P707     -0.2175
     12  O6         8.4040   18.8850   21.8050 O.3   707  M2P707     -0.2175
@<TRIPOS>BOND
     1     8     6    1
     2     7     1    1
     3     6     1    1
     4     6     5    1
     5    10     4    1
     6     4     5    1
     7     4     2    1
     8    11     2    1
     9     5     9    1
    10     2     3    1
    11     3    12    1
