@<TRIPOS>MOLECULE
2q8m_BG6_A_1.pdb
 16 16 0 0 0
SMALL
GASTEIGER

@<TRIPOS>ATOM
      1  C1       106.9130   43.4250  -25.0530 C.3   340  BG6340      0.3024
      2  C2       105.9900   43.7550  -23.8670 C.3   340  BG6340      0.2434
      3  O1       108.2280   43.3740  -24.6140 O.3   340  BG6340     -0.1869
      4  O5       106.8180   44.4700  -26.0440 O.3   340  BG6340     -0.3237
      5  C3       104.5340   43.8940  -24.3670 C.3   340  BG6340      0.2199
      6  O2       106.0940   42.7240  -22.8980 O.3   340  BG6340     -0.2148
      7  C4       104.4380   44.9170  -25.5310 C.3   340  BG6340      0.2143
      8  O3       103.6750   44.2910  -23.3010 O.3   340  BG6340     -0.2174
      9  C5       105.4900   44.6100  -26.6300 C.3   340  BG6340      0.1808
     10  O4       103.1320   44.8820  -26.0940 O.3   340  BG6340     -0.2176
     11  C6       105.5920   45.7020  -27.6920 C.3   340  BG6340      0.1859
     12  O6       105.7250   45.1030  -29.0040 O.3   340  BG6340     -0.2675
     13  P        106.6290   45.7910  -30.1680 P.3   340  BG6340      0.5327
     14  O1P      108.0190   45.5790  -29.7060 O.3   340  BG6340     -0.1145
     15  O2P      106.1490   47.1880  -30.1650 O.3   340  BG6340     -0.1145
     16  O3P      106.1950   45.0540  -31.3600 O.2   340  BG6340     -0.2224
@<TRIPOS>BOND
     1    16    13    2
     2    13    15    1
     3    13    14    1
     4    13    12    1
     5    12    11    1
     6    11     9    1
     7     9     4    1
     8     9     7    1
     9    10     7    1
    10     4     1    1
    11     7     5    1
    12     1     3    1
    13     1     2    1
    14     5     2    1
    15     5     8    1
    16     2     6    1
