@<TRIPOS>MOLECULE
2q8m_AMP_A_1.pdb
 23 25 0 0 0
SMALL
GASTEIGER

@<TRIPOS>ATOM
      1  P        114.2750   58.8120   21.5190 P.3   341  AMP341      0.5327
      2  O1P      113.7420   59.8080   20.5090 O.2   341  AMP341     -0.2224
      3  O2P      113.2740   57.7190   21.8450 O.3   341  AMP341     -0.1145
      4  O3P      114.8280   59.4900   22.7630 O.3   341  AMP341     -0.1145
      5  O5'      115.5370   58.0680   20.7980 O.3   341  AMP341     -0.2675
      6  C5'      116.6740   58.8230   20.3280 C.3   341  AMP341      0.1860
      7  C4'      117.3150   58.1320   19.1420 C.3   341  AMP341      0.1823
      8  O4'      117.9040   56.8670   19.5580 O.3   341  AMP341     -0.3135
      9  C3'      116.3680   57.7450   18.0180 C.3   341  AMP341      0.2184
     10  O3'      116.1330   58.8340   17.1370 O.3   341  AMP341     -0.2174
     11  C2'      117.1570   56.6390   17.3340 C.3   341  AMP341      0.2570
     12  O2'      118.2330   57.1650   16.5820 O.3   341  AMP341     -0.2130
     13  C1'      117.7000   55.8880   18.5490 C.3   341  AMP341      0.3186
     14  N9       116.7240   54.9200   19.0510 N.pl3 341  AMP341     -0.1439
     15  C8       115.9210   55.0400   20.1590 C.3   341  AMP341      0.3377
     16  N7       115.1170   54.0190   20.3430 N.2   341  AMP341     -0.2095
     17  C5       115.4150   53.1660   19.2910 C.2   341  AMP341      0.2526
     18  C6       114.9050   51.9130   18.9190 C.2   341  AMP341      0.4393
     19  N6       113.9380   51.2760   19.5890 N.pl3 341  AMP341      0.2180
     20  N1       115.4230   51.3290   17.8170 N.2   341  AMP341      0.0021
     21  C2       116.3820   51.9700   17.1420 C.3   341  AMP341      0.5254
     22  N3       116.9410   53.1500   17.3900 N.2   341  AMP341     -0.0055
     23  C4       116.4080   53.7040   18.4910 C.2   341  AMP341      0.3518
@<TRIPOS>BOND
     1    12    11    1
     2    10     9    1
     3    21    22    1
     4    21    20    1
     5    11     9    1
     6    11    13    1
     7    22    23    2
     8    20    18    2
     9     9     7    1
    10    23    14    1
    11    23    17    1
    12    13    14    1
    13    13     8    1
    14    18    17    1
    15    18    19    1
    16    14    15    1
    17     7     8    1
    18     7     6    1
    19    17    16    2
    20    15    16    1
    21     6     5    1
    22     2     1    2
    23     5     1    1
    24     1     3    1
    25     1     4    1
