@<TRIPOS>MOLECULE
2q8m_FBP_A_1.pdb
 20 20 0 0 0
SMALL
GASTEIGER

@<TRIPOS>ATOM
      1  P1        97.4840   52.4560   -2.9210 P.3   344  FBP344      0.5328
      2  O1P       97.6150   52.7680   -1.4390 O.3   344  FBP344     -0.1145
      3  O2P       96.8110   51.1150   -3.1700 O.3   344  FBP344     -0.1145
      4  O3P       96.8440   53.5930   -3.7030 O.2   344  FBP344     -0.2224
      5  O1        99.0160   52.3180   -3.4730 O.3   344  FBP344     -0.2648
      6  C1        99.3160   52.5390   -4.8680 C.3   344  FBP344      0.2152
      7  C2        99.3270   51.1860   -5.5600 C.3   344  FBP344      0.2780
      8  O2        98.1430   50.4880   -5.2420 O.3   344  FBP344     -0.1897
      9  C3       100.5510   50.3130   -5.2800 C.3   344  FBP344      0.2408
     10  O3       100.4030   49.6010   -4.0700 O.3   344  FBP344     -0.2149
     11  C4       100.5680   49.4020   -6.5030 C.3   344  FBP344      0.2167
     12  O4       101.8920   48.9530   -6.7890 O.3   344  FBP344     -0.2175
     13  C5       100.0730   50.3260   -7.6080 C.3   344  FBP344      0.1808
     14  O5        99.3270   51.3920   -6.9560 O.3   344  FBP344     -0.3255
     15  C6        99.1800   49.6350   -8.6040 C.3   344  FBP344      0.1859
     16  O6        98.8790   50.5780   -9.6390 O.3   344  FBP344     -0.2675
     17  P2        98.2200   50.0730  -11.0370 P.3   344  FBP344      0.5327
     18  O4P       96.8030   49.6640  -10.6960 O.3   344  FBP344     -0.1145
     19  O5P       99.0680   48.9040  -11.5100 O.3   344  FBP344     -0.1145
     20  O6P       98.2880   51.2830  -11.9510 O.2   344  FBP344     -0.2224
@<TRIPOS>BOND
     1    20    17    2
     2    19    17    1
     3    17    18    1
     4    17    16    1
     5    16    15    1
     6    15    13    1
     7    13    14    1
     8    13    11    1
     9    14     7    1
    10    12    11    1
    11    11     9    1
    12     7     9    1
    13     7     8    1
    14     7     6    1
    15     9    10    1
    16     6     5    1
    17     4     1    2
    18     5     1    1
    19     3     1    1
    20     1     2    1
