@<TRIPOS>MOLECULE
2q8p_HEM_A_1.pdb
 43 50 0 0 0
SMALL
GASTEIGER

@<TRIPOS>ATOM
      1  CHA       59.7940   46.4670   48.2210 C.2   300  HEM300      0.0000
      2  CHB       58.1880   47.6810   43.7800 C.2   300  HEM300      0.0000
      3  CHC       56.4070   43.1900   43.2170 C.2   300  HEM300      0.0000
      4  CHD       59.0030   41.7670   47.0810 C.2   300  HEM300      0.0000
      5  C1A       59.4050   47.2340   47.1320 C.ar  300  HEM300      0.0000
      6  C2A       59.3960   48.6840   47.0150 C.ar  300  HEM300      0.0000
      7  C3A       58.9560   49.0100   45.7820 C.ar  300  HEM300      0.0000
      8  C4A       58.6750   47.7770   45.0750 C.ar  300  HEM300      0.0000
      9  CMA       58.7660   50.4310   45.1720 C.3   300  HEM300      0.0000
     10  CAA       59.8280   49.6820   48.1180 C.3   300  HEM300      0.0000
     11  CBA       58.6160   50.1860   48.8720 C.3   300  HEM300      0.0000
     12  CGA       59.1180   51.1380   49.9330 C.2   300  HEM300      0.0000
     13  O1A       59.3590   50.6980   51.1110 O.co2 300  HEM300      0.0000
     14  O2A       59.2770   52.3360   49.5680 O.co2 300  HEM300      0.0000
     15  C1B       57.6060   46.5750   43.1950 C.2   300  HEM300      0.0000
     16  C2B       57.0850   46.4920   41.8230 C.2   300  HEM300      0.0000
     17  C3B       56.5950   45.2460   41.6380 C.2   300  HEM300      0.0000
     18  C4B       56.7740   44.4900   42.8970 C.2   300  HEM300      0.0000
     19  CMB       57.1430   47.6540   40.8000 C.3   300  HEM300      0.0000
     20  CAB       55.9540   44.7580   40.3060 C.2   300  HEM300      0.0000
     21  CBB       54.9850   43.8440   40.2730 C.2   300  HEM300      0.0000
     22  C1C       56.9830   42.3830   44.1920 C.ar  300  HEM300      0.0000
     23  C2C       56.8530   40.9340   44.3290 C.ar  300  HEM300      0.0000
     24  C3C       57.5890   40.5510   45.3970 C.ar  300  HEM300      0.0000
     25  C4C       58.1850   41.7380   45.9750 C.ar  300  HEM300      0.0000
     26  CMC       56.0360   40.0160   43.3770 C.3   300  HEM300      0.0000
     27  CAC       57.8300   39.1360   45.9620 C.2   300  HEM300      0.0000
     28  CBC       56.8440   38.3780   46.4160 C.2   300  HEM300      0.0000
     29  C1D       59.4570   42.8750   47.7570 C.2   300  HEM300      0.0000
     30  C2D       60.2260   42.8400   48.9930 C.2   300  HEM300      0.0000
     31  C3D       60.4920   44.3040   49.3600 C.2   300  HEM300      0.0000
     32  C4D       59.8480   45.0890   48.3120 C.2   300  HEM300      0.0000
     33  CMD       60.6600   41.5570   49.7390 C.3   300  HEM300      0.0000
     34  CAD       61.2490   44.8080   50.6070 C.3   300  HEM300      0.0000
     35  CBD       60.1970   44.8880   51.7130 C.3   300  HEM300      0.0000
     36  CGD       60.8020   45.6260   52.8840 C.2   300  HEM300      0.0000
     37  O1D       60.6860   45.0610   54.0220 O.co2 300  HEM300      0.0000
     38  O2D       61.3840   46.7410   52.6420 O.co2 300  HEM300      0.0000
     39  NA        58.9490   46.7180   45.9180 N.ar  300  HEM300      0.0000
     40  NB        57.4000   45.3500   43.7810 N.2   300  HEM300      0.0000
     41  NC        57.7980   42.8260   45.2250 N.ar  300  HEM300      0.0000
     42  ND        59.2580   44.1860   47.4120 N.2   300  HEM300      0.0000
     43 FE         58.2820   44.7890   45.6280 Fe    300  HEM300      0.0000
@<TRIPOS>BOND
     1    21    20    2
     2    20    17    1
     3    19    16    1
     4    17    16    2
     5    17    18    1
     6    16    15    1
     7    18     3    2
     8    18    40    1
     9    15     2    1
    10    15    40    2
    11     3    22    1
    12    26    23    1
    13     2     8    2
    14    40    43    1
    15    22    23   ar
    16    22    41   ar
    17    23    24   ar
    18     8     7   ar
    19     8    39   ar
    20     9     7    1
    21    41    43    1
    22    41    25   ar
    23    24    27    1
    24    24    25   ar
    25    43    39    1
    26    43    42    1
    27     7     6   ar
    28    39     5   ar
    29    27    28    2
    30    25     4    1
    31     6     5   ar
    32     6    10    1
    33     4    29    2
    34     5     1    2
    35    42    29    1
    36    42    32    2
    37    29    30    1
    38    10    11    1
    39     1    32    1
    40    32    31    1
    41    11    12    1
    42    30    31    2
    43    30    33    1
    44    31    34    1
    45    14    12   ar
    46    12    13   ar
    47    34    35    1
    48    35    36    1
    49    38    36   ar
    50    36    37   ar
