@<TRIPOS>MOLECULE
2q8q_HEM_A_1.pdb
 43 50 0 0 0
SMALL
GASTEIGER

@<TRIPOS>ATOM
      1  CHA       60.2930   46.6650   48.5830 C.2   300  HEM300      0.0000
      2  CHB       58.6620   47.8760   44.1530 C.2   300  HEM300      0.0000
      3  CHC       57.0210   43.2960   43.6240 C.2   300  HEM300      0.0000
      4  CHD       59.4640   41.9260   47.5510 C.2   300  HEM300      0.0000
      5  C1A       59.8810   47.4370   47.4990 C.ar  300  HEM300      0.0000
      6  C2A       59.8550   48.8870   47.3980 C.ar  300  HEM300      0.0000
      7  C3A       59.4070   49.2200   46.1710 C.ar  300  HEM300      0.0000
      8  C4A       59.1270   47.9950   45.4500 C.ar  300  HEM300      0.0000
      9  CMA       59.2090   50.6530   45.6000 C.3   300  HEM300      0.0000
     10  CAA       60.2800   49.8760   48.5110 C.3   300  HEM300      0.0000
     11  CBA       59.0720   50.3240   49.3310 C.3   300  HEM300      0.0000
     12  CGA       59.5760   51.3700   50.3010 C.2   300  HEM300      0.0000
     13  O1A       59.7430   51.0570   51.5020 O.co2 300  HEM300      0.0000
     14  O2A       59.8330   52.5180   49.8660 O.co2 300  HEM300      0.0000
     15  C1B       58.1110   46.7360   43.5920 C.2   300  HEM300      0.0000
     16  C2B       57.5660   46.6050   42.2520 C.2   300  HEM300      0.0000
     17  C3B       57.1170   45.3370   42.1220 C.2   300  HEM300      0.0000
     18  C4B       57.3620   44.6180   43.3630 C.2   300  HEM300      0.0000
     19  CMB       57.5520   47.7680   41.2170 C.3   300  HEM300      0.0000
     20  CAB       56.4410   44.6480   40.9180 C.2   300  HEM300      0.0000
     21  CBB       56.1910   45.3080   39.7830 C.2   300  HEM300      0.0000
     22  C1C       57.4930   42.4900   44.6380 C.ar  300  HEM300      0.0000
     23  C2C       57.2190   41.0910   44.8840 C.ar  300  HEM300      0.0000
     24  C3C       57.9170   40.7260   45.9800 C.ar  300  HEM300      0.0000
     25  C4C       58.6330   41.8770   46.4540 C.ar  300  HEM300      0.0000
     26  CMC       56.2980   40.1730   44.0340 C.3   300  HEM300      0.0000
     27  CAC       57.9670   39.3500   46.7020 C.2   300  HEM300      0.0000
     28  CBC       57.9090   38.1870   46.0530 C.2   300  HEM300      0.0000
     29  C1D       59.9260   43.0470   48.2070 C.2   300  HEM300      0.0000
     30  C2D       60.6450   43.0270   49.4700 C.2   300  HEM300      0.0000
     31  C3D       60.8930   44.5050   49.7920 C.2   300  HEM300      0.0000
     32  C4D       60.3140   45.2780   48.7000 C.2   300  HEM300      0.0000
     33  CMD       61.0440   41.7760   50.2810 C.3   300  HEM300      0.0000
     34  CAD       61.6070   45.0540   51.0360 C.3   300  HEM300      0.0000
     35  CBD       60.5610   45.1800   52.1440 C.3   300  HEM300      0.0000
     36  CGD       61.1870   45.9210   53.3090 C.2   300  HEM300      0.0000
     37  O1D       61.0430   45.4640   54.4770 O.co2 300  HEM300      0.0000
     38  O2D       61.8530   46.9540   53.0480 O.co2 300  HEM300      0.0000
     39  NA        59.4440   46.9430   46.2860 N.ar  300  HEM300      0.0000
     40  NB        57.9590   45.5110   44.2320 N.2   300  HEM300      0.0000
     41  NC        58.3340   42.9270   45.6270 N.ar  300  HEM300      0.0000
     42  ND        59.7580   44.3690   47.8020 N.2   300  HEM300      0.0000
     43 FE         58.8450   44.9440   46.0580 Fe    300  HEM300      0.0000
@<TRIPOS>BOND
     1    21    20    2
     2    20    17    1
     3    19    16    1
     4    17    16    2
     5    17    18    1
     6    16    15    1
     7    18     3    2
     8    18    40    1
     9    15     2    1
    10    15    40    2
    11     3    22    1
    12    26    23    1
    13     2     8    2
    14    40    43    1
    15    22    23   ar
    16    22    41   ar
    17    23    24   ar
    18     8     7   ar
    19     8    39   ar
    20     9     7    1
    21    41    43    1
    22    41    25   ar
    23    24    25   ar
    24    24    27    1
    25    28    27    2
    26    43    39    1
    27    43    42    1
    28     7     6   ar
    29    39     5   ar
    30    25     4    1
    31     6     5   ar
    32     6    10    1
    33     5     1    2
    34     4    29    2
    35    42    29    1
    36    42    32    2
    37    29    30    1
    38    10    11    1
    39     1    32    1
    40    32    31    1
    41    11    12    1
    42    30    31    2
    43    30    33    1
    44    31    34    1
    45    14    12   ar
    46    12    13   ar
    47    34    35    1
    48    35    36    1
    49    38    36   ar
    50    36    37   ar
