@<TRIPOS>MOLECULE
2q8s_L92_A_1.pdb
 31 34 0 0 0
SMALL
GASTEIGER

@<TRIPOS>ATOM
      1  O2        18.3630   63.1370   20.2510 O.co2 1001  L921001    -0.2436
      2  C1        19.1270   62.5230   19.4730 C.2   1001  L921001     0.3853
      3  O1        20.0590   61.7950   19.8760 O.co2 1001  L921001    -0.2436
      4  C2        18.9180   62.7010   17.9940 C.3   1001  L921001     0.1935
      5  N1        19.9660   63.6310   17.4860 N.ar  1001  L921001    -0.3165
      6  C13       20.9530   63.3840   16.6100 C.ar  1001  L921001     0.0763
      7  C12       21.6800   64.5350   16.4230 C.ar  1001  L921001     0.0202
      8  C11       21.1060   65.5040   17.2110 C.ar  1001  L921001     0.0202
      9  C10       20.0420   64.9150   17.8590 C.ar  1001  L921001     0.0763
     10  C3        18.8670   61.3650   17.2230 C.3   1001  L921001     0.0606
     11  C4        18.2230   61.6380   15.8770 C.ar  1001  L921001    -0.0197
     12  C9        18.9360   61.6460   14.6720 C.ar  1001  L921001    -0.0045
     13  C8        18.2850   61.9270   13.4600 C.ar  1001  L921001    -0.0046
     14  C7        16.9170   62.1930   13.4490 C.ar  1001  L921001    -0.0222
     15  C6        16.2230   62.1920   14.6590 C.ar  1001  L921001    -0.0046
     16  C5        16.8640   61.9110   15.8560 C.ar  1001  L921001    -0.0045
     17  C14       16.1170   62.5290   12.1990 C.3   1001  L921001     0.0268
     18  C15       16.3360   61.6510   10.9780 C.3   1001  L921001     0.0119
     19  C16       17.5580   62.0520   10.2080 C.3   1001  L921001     0.0586
     20  C17       17.7700   63.3980    9.6150 C.2   1001  L921001     0.1298
     21  C19       18.8820   63.7720    8.9250 C.3   1001  L921001     0.2159
     22  C26       20.0820   62.9770    8.5960 C.3   1001  L921001     0.0549
     23  O3        18.7590   65.0600    8.5280 O.2   1001  L921001    -0.4486
     24  C18       17.5340   65.4760    8.9990 C.2   1001  L921001     0.2771
     25  N2        16.9150   64.4470    9.6740 N.2   1001  L921001    -0.3730
     26  C20       17.0660   66.7670    8.7760 C.ar  1001  L921001     0.0660
     27  C25       15.8290   67.1810    9.2570 C.ar  1001  L921001     0.0058
     28  C24       15.3850   68.4820    9.0180 C.ar  1001  L921001     0.0002
     29  C23       16.1800   69.3710    8.3000 C.ar  1001  L921001     0.0000
     30  C22       17.4170   68.9590    7.8160 C.ar  1001  L921001     0.0002
     31  C21       17.8580   67.6630    8.0560 C.ar  1001  L921001     0.0058
@<TRIPOS>BOND
     1    30    31   ar
     2    30    29   ar
     3    31    26   ar
     4    29    28   ar
     5    23    21    1
     6    23    24    1
     7    22    21    1
     8    26    24    1
     9    26    27   ar
    10    21    20    1
    11    24    25    2
    12    28    27   ar
    13    20    25    2
    14    20    19    1
    15    19    18    1
    16    18    17    1
    17    17    14    1
    18    14    13   ar
    19    14    15   ar
    20    13    12   ar
    21    15    16   ar
    22    12    11   ar
    23    16    11   ar
    24    11    10    1
    25     7     6   ar
    26     7     8   ar
    27     6     5   ar
    28     8     9   ar
    29    10     4    1
    30     5     9   ar
    31     5     4    1
    32     4     2    1
    33     2     3   ar
    34     2     1   ar
