@<TRIPOS>MOLECULE
2q8z_NUP_A_1.pdb
 22 23 0 0 0
SMALL
GASTEIGER

@<TRIPOS>ATOM
      1  O4         5.2270  -23.3300  -20.6720 O.2   401  NUP401     -0.2082
      2  C4         5.9620  -23.8770  -21.4960 C.1   401  NUP401      0.2263
      3  N2         5.8170  -25.1960  -21.6870 N.2   401  NUP401     -0.2265
      4  C2         6.5890  -25.8660  -22.5730 C.1   401  NUP401      0.3759
      5  O2         6.4300  -27.0960  -22.7290 O.2   401  NUP401     -0.1670
      6  C5         6.8730  -23.0950  -22.2070 C.2   401  NUP401      0.2000
      7  C6         7.6720  -23.7650  -23.1120 C.2   401  NUP401      0.3944
      8  N3         8.5700  -23.0610  -23.8290 N.pl3 401  NUP401      0.2119
      9  N1         7.5590  -25.1650  -23.3120 N.am  401  NUP401     -0.0553
     10  C1'        8.4490  -25.8260  -24.2840 C.3   401  NUP401      0.3330
     11  O4'        7.7550  -26.3910  -25.4040 O.3   401  NUP401     -0.3127
     12  C2'        9.2070  -26.9930  -23.6360 C.3   401  NUP401      0.2581
     13  O2'       10.4120  -26.6700  -22.9170 O.3   401  NUP401     -0.2130
     14  C3'        9.4860  -27.8550  -24.8670 C.3   401  NUP401      0.2185
     15  O3'       10.6040  -27.2840  -25.5580 O.3   401  NUP401     -0.2174
     16  C4'        8.2330  -27.6860  -25.7240 C.3   401  NUP401      0.1823
     17  C5'        7.1340  -28.7070  -25.4480 C.3   401  NUP401      0.1860
     18  O5'        7.4920  -29.8980  -26.1220 O.3   401  NUP401     -0.2675
     19  P          6.6050  -31.2480  -26.0850 P.3   401  NUP401      0.5327
     20  O1P        5.5150  -31.2040  -27.1510 O.2   401  NUP401     -0.2224
     21  O2P        7.6420  -32.3150  -26.3270 O.3   401  NUP401     -0.1145
     22  O3P        6.0030  -31.2750  -24.6990 O.3   401  NUP401     -0.1145
@<TRIPOS>BOND
     1    20    19    2
     2    21    19    1
     3    18    19    1
     4    18    17    1
     5    19    22    1
     6    16    17    1
     7    16    11    1
     8    16    14    1
     9    15    14    1
    10    11    10    1
    11    14    12    1
    12    10    12    1
    13    10     9    1
    14     8     7    1
    15    12    13    1
    16     9     7    1
    17     9     4   am
    18     7     6    2
    19     5     4    2
    20     4     3    2
    21     6     2    1
    22     3     2    2
    23     2     1    2
