@<TRIPOS>MOLECULE
2q92_B23_A_1.pdb
 17 18 0 0 0
SMALL
GASTEIGER

@<TRIPOS>ATOM
      1  OAN        1.6660    0.2180    9.3240 O.co2 400  B23400     -0.2371
      2  CAE        0.7180    0.0310    8.5300 C.2   400  B23400      0.4216
      3  OAO        0.8480   -0.0970    7.2940 O.co2 400  B23400     -0.2371
      4  CAA       -0.7030   -0.0560    9.0910 C.ar  400  B23400      0.2246
      5  OAM       -1.8120   -0.2060    8.3130 O.2   400  B23400     -0.4467
      6  CAC       -1.0510    0.0070   10.3720 C.ar  400  B23400      0.0475
      7  CAD       -2.3760   -0.1010   10.4310 C.ar  400  B23400      0.0409
      8  CAB       -2.8570   -0.2300    9.1940 C.ar  400  B23400      0.1472
      9  CAF       -4.1530   -0.4550    8.7470 C.ar  400  B23400      0.0570
     10  CAG       -4.3120   -1.2870    7.6480 C.ar  400  B23400      0.0047
     11  CAJ       -5.5850   -1.6340    7.1920 C.ar  400  B23400      0.0002
     12  CAI       -6.7020   -1.1390    7.8510 C.ar  400  B23400      0.0017
     13  CAK       -6.5440   -0.3030    8.9470 C.ar  400  B23400      0.0242
     14  CAH       -5.2740    0.0510    9.3970 C.ar  400  B23400      0.1458
     15  NAL       -5.1960    0.9700   10.3600 N.pl3 400  B23400      0.0578
     16  OAQ       -3.9650    1.5750   10.7270 O.2   400  B23400     -0.1261
     17  OAP       -6.3890    1.4180   10.9850 O.2   400  B23400     -0.1261
@<TRIPOS>BOND
     1    11    10   ar
     2    11    12   ar
     3     3     2   ar
     4    10     9   ar
     5    12    13   ar
     6     5     4   ar
     7     5     8   ar
     8     2     4    1
     9     2     1   ar
    10     9     8    1
    11     9    14   ar
    12    13    14   ar
    13     4     6   ar
    14     8     7   ar
    15    14    15    1
    16    15    16    2
    17    15    17    2
    18     6     7   ar
