@<TRIPOS>MOLECULE
2q93_B21_A_1.pdb
 16 17 0 0 0
SMALL
GASTEIGER

@<TRIPOS>ATOM
      1  CAL       -6.7130    0.5580   10.3940 C.3   400  B21400      0.2525
      2  OAP       -5.5430   -0.2640   10.3320 O.3   400  B21400     -0.4713
      3  CAH       -5.5330   -0.9980    9.1910 C.ar  400  B21400      0.1416
      4  CAK       -6.7030   -1.5420    8.6880 C.ar  400  B21400      0.0370
      5  CAI       -6.6890   -2.3080    7.5280 C.ar  400  B21400      0.0031
      6  CAJ       -5.4820   -2.5300    6.8590 C.ar  400  B21400      0.0003
      7  CAG       -4.3140   -1.9880    7.3590 C.ar  400  B21400      0.0061
      8  CAF       -4.3260   -1.2260    8.5200 C.ar  400  B21400      0.0685
      9  CAB       -3.1240   -0.7230    9.0120 C.ar  400  B21400      0.1485
     10  OAM       -2.0230   -0.6610    8.2080 O.2   400  B21400     -0.4467
     11  CAD       -2.7990   -0.3240   10.2330 C.ar  400  B21400      0.0410
     12  CAC       -1.5040   -0.0070   10.2550 C.ar  400  B21400      0.0475
     13  CAA       -1.0270   -0.2130    9.0240 C.ar  400  B21400      0.2246
     14  CAE        0.4210   -0.0290    8.5760 C.2   400  B21400      0.4216
     15  OAO        0.6760   -0.2470    7.3690 O.co2 400  B21400     -0.2371
     16  OAN        1.2720    0.3200    9.4250 O.co2 400  B21400     -0.2371
@<TRIPOS>BOND
     1     6     7   ar
     2     6     5   ar
     3     7     8   ar
     4    15    14   ar
     5     5     4   ar
     6    10     9   ar
     7    10    13   ar
     8     8     9    1
     9     8     3   ar
    10    14    13    1
    11    14    16   ar
    12     4     3   ar
    13     9    11   ar
    14    13    12   ar
    15     3     2    1
    16    11    12   ar
    17     2     1    1
