@<TRIPOS>MOLECULE
2q94_A04_A_1.pdb
 19 20 0 0 0
SMALL
GASTEIGER

@<TRIPOS>ATOM
      1  OAQ        1.6790    0.0990    9.3780 O.co2 400  A04400     -0.2371
      2  CAB        0.7460   -0.1430    8.5840 C.2   400  A04400      0.4216
      3  OAR        0.8790   -0.2210    7.3420 O.co2 400  A04400     -0.2371
      4  CAA       -0.6650   -0.3630    9.1300 C.ar  400  A04400      0.2246
      5  OAP       -1.7290   -0.6280    8.3190 O.2   400  A04400     -0.4467
      6  CAD       -1.0610   -0.3050   10.3970 C.ar  400  A04400      0.0475
      7  CAE       -2.3760   -0.5280   10.4130 C.ar  400  A04400      0.0410
      8  CAC       -2.7930   -0.7220    9.1630 C.ar  400  A04400      0.1485
      9  CAG       -4.0590   -0.9830    8.6510 C.ar  400  A04400      0.0688
     10  CAK       -4.1510   -1.6380    7.4330 C.ar  400  A04400      0.0061
     11  CAH       -5.3960   -1.9270    6.8790 C.ar  400  A04400      0.0003
     12  CAF       -6.5510   -1.5570    7.5540 C.ar  400  A04400      0.0031
     13  CAI       -6.4580   -0.9000    8.7770 C.ar  400  A04400      0.0373
     14  CAJ       -5.2190   -0.6080    9.3310 C.ar  400  A04400      0.1497
     15  OAS       -5.1450    0.0370   10.5270 O.3   400  A04400     -0.4044
     16  CAL       -5.2320    1.4670   10.4730 C.3   400  A04400      0.5753
     17  FAN       -4.2720    1.9960    9.7220 F     400  A04400     -0.1328
     18  FAO       -6.4050    1.8650    9.9900 F     400  A04400     -0.1328
     19  FAM       -5.1030    1.9270   11.7130 F     400  A04400     -0.1328
@<TRIPOS>BOND
     1    11    10   ar
     2    11    12   ar
     3     3     2   ar
     4    10     9   ar
     5    12    13   ar
     6     5     4   ar
     7     5     8   ar
     8     2     4    1
     9     2     1   ar
    10     9     8    1
    11     9    14   ar
    12    13    14   ar
    13     4     6   ar
    14     8     7   ar
    15    14    15    1
    16    17    16    1
    17    18    16    1
    18     6     7   ar
    19    16    15    1
    20    16    19    1
