@<TRIPOS>MOLECULE
2q95_A05_A_1.pdb
 18 19 0 0 0
SMALL
GASTEIGER

@<TRIPOS>ATOM
      1  OAN        1.1550    0.2660    9.3500 O.co2 400  A05400     -0.2371
      2  CAB        0.2470   -0.0820    8.5610 C.2   400  A05400      0.4216
      3  OAO        0.4180   -0.2750    7.3400 O.co2 400  A05400     -0.2371
      4  CAA       -1.1670   -0.2800    9.1060 C.ar  400  A05400      0.2246
      5  OAM       -2.2070   -0.7050    8.3290 O.2   400  A05400     -0.4468
      6  CAD       -1.6190   -0.0020   10.5410 C.ar  400  A05400      0.0475
      7  CAE       -3.0620   -0.5110   10.5420 C.ar  400  A05400      0.0409
      8  CAC       -3.3500   -0.8030    9.0690 C.ar  400  A05400      0.1464
      9  CAG       -4.5210   -1.2330    8.4460 C.ar  400  A05400      0.0452
     10  CAK       -4.3760   -1.9640    7.2750 C.ar  400  A05400      0.0056
     11  CAH       -5.3660   -2.5070    6.4620 C.ar  400  A05400      0.0242
     12  CAF       -6.7730   -2.3570    7.0460 C.ar  400  A05400      0.1437
     13  NAL       -7.7940   -2.8960    6.3880 N.pl3 400  A05400      0.0577
     14  OAQ       -7.5650   -3.5850    5.1670 O.2   400  A05400     -0.1261
     15  OAP       -9.1120   -2.7740    6.9040 O.2   400  A05400     -0.1261
     16  CAI       -7.0600   -1.6090    8.3500 C.ar  400  A05400      0.0356
     17  CAJ       -5.7950   -0.9850    8.9430 C.ar  400  A05400      0.0622
     18 CLAR       -6.0210    0.0690   10.2960 Cl    400  A05400     -0.0821
@<TRIPOS>BOND
     1    14    13    2
     2    13    15    2
     3    13    12    1
     4    11    12   ar
     5    11    10   ar
     6    12    16   ar
     7    10     9   ar
     8     3     2   ar
     9     5     8   ar
    10     5     4   ar
    11    16    17   ar
    12     9    17   ar
    13     9     8    1
    14     2     4    1
    15     2     1   ar
    16    17    18    1
    17     8     7   ar
    18     4     6   ar
    19     6     7   ar
