@<TRIPOS>MOLECULE
2q96_A18_A_1.pdb
 16 17 0 0 0
SMALL
GASTEIGER

@<TRIPOS>ATOM
      1  OAN        0.7820   -0.0990    7.3330 O.co2 400  A18400     -0.2371
      2  CAE        0.5880   -0.0710    8.5670 C.2   400  A18400      0.4216
      3  OAO        1.4880    0.1020    9.4200 O.co2 400  A18400     -0.2371
      4  CAA       -0.8540   -0.2460    9.0420 C.ar  400  A18400      0.2241
      5  OAM       -1.9210   -0.2760    8.1910 O.2   400  A18400     -0.4507
      6  CAB       -1.2690   -0.3900   10.2970 C.ar  400  A18400      0.0472
      7  CAC       -2.5950   -0.5140   10.2670 C.ar  400  A18400      0.0367
      8  CAD       -3.0030   -0.4470    9.0000 C.ar  400  A18400      0.1276
      9  CAL       -4.4130   -0.5340    8.4160 C.3   400  A18400      0.0916
     10  CAK       -5.4450   -0.7820    9.5170 C.ar  400  A18400     -0.0040
     11  CAF       -5.9590   -2.0670    9.6360 C.ar  400  A18400     -0.0030
     12  CAG       -6.9120   -2.3630   10.6030 C.ar  400  A18400     -0.0003
     13  CAH       -7.3580   -1.3680   11.4640 C.ar  400  A18400      0.0008
     14  CAI       -6.8460   -0.0810   11.3510 C.ar  400  A18400      0.0111
     15  CAJ       -5.8960    0.2060   10.3800 C.ar  400  A18400      0.0541
     16 CLAP       -5.2750    1.8150   10.2370 Cl    400  A18400     -0.0826
@<TRIPOS>BOND
     1     1     2   ar
     2     5     8   ar
     3     5     4   ar
     4     9     8    1
     5     9    10    1
     6     2     4    1
     7     2     3   ar
     8     8     7   ar
     9     4     6   ar
    10    10    11   ar
    11    10    15   ar
    12    11    12   ar
    13    16    15    1
    14     7     6   ar
    15    15    14   ar
    16    12    13   ar
    17    14    13   ar
