@<TRIPOS>MOLECULE
2q97_ATP_A_1.pdb
 31 33 0 0 0
SMALL
GASTEIGER

@<TRIPOS>ATOM
      1  PG        38.3860   14.1940  152.3340 P.3   1001  ATP1001     0.5373
      2  O1G       37.7630   12.9480  152.8930 O.3   1001  ATP1001    -0.1143
      3  O2G       39.8550   13.9690  152.1130 O.3   1001  ATP1001    -0.1143
      4  O3G       37.5880   14.7990  151.2240 O.2   1001  ATP1001    -0.2221
      5  PB        39.4200   16.2570  154.0410 P.3   1001  ATP1001     0.2277
      6  O1B       38.6990   17.4920  154.5010 O.3   1001  ATP1001    -0.4368
      7  O2B       40.5420   16.4220  153.0420 O.2   1001  ATP1001    -0.5168
      8  O3B       38.2540   15.2870  153.4930 O.3   1001  ATP1001    -0.2258
      9  PA        41.3530   15.6690  156.0270 P.3   1001  ATP1001     0.2189
     10  O1A       41.4380   17.1610  156.1000 O.3   1001  ATP1001    -0.4371
     11  O2A       42.4920   14.7860  155.6400 O.2   1001  ATP1001    -0.5170
     12  O3A       40.0110   15.3430  155.2090 O.3   1001  ATP1001    -0.2700
     13  O5'       41.0010   15.1240  157.5030 O.3   1001  ATP1001    -0.3112
     14  C5'       39.9860   15.7570  158.3020 C.3   1001  ATP1001     0.1813
     15  C4'       39.3360   14.6670  159.1410 C.3   1001  ATP1001     0.1821
     16  O4'       40.3260   14.0060  159.9400 O.3   1001  ATP1001    -0.3135
     17  C3'       38.2890   15.1710  160.1170 C.3   1001  ATP1001     0.2184
     18  O3'       37.3220   14.1220  160.2470 O.3   1001  ATP1001    -0.2174
     19  C2'       39.0310   15.2210  161.4100 C.3   1001  ATP1001     0.2570
     20  O2'       38.1790   15.0070  162.5190 O.3   1001  ATP1001    -0.2130
     21  C1'       39.8570   13.9790  161.2860 C.3   1001  ATP1001     0.3186
     22  N9        40.9600   14.0970  162.2320 N.pl3 1001  ATP1001    -0.1439
     23  C8        41.7910   15.1380  162.3400 C.3   1001  ATP1001     0.3377
     24  N7        42.6890   14.9050  163.3230 N.2   1001  ATP1001    -0.2095
     25  C5        42.4260   13.7090  163.8390 C.2   1001  ATP1001     0.2526
     26  C6        42.9860   12.9000  164.9070 C.2   1001  ATP1001     0.4393
     27  N6        44.0520   13.3290  165.6100 N.pl3 1001  ATP1001     0.2180
     28  N1        42.4030   11.7080  165.1400 N.2   1001  ATP1001     0.0021
     29  C2        41.3340   11.2700  164.4280 C.3   1001  ATP1001     0.5254
     30  N3        40.7740   11.9730  163.4400 N.2   1001  ATP1001    -0.0055
     31  C4        41.2740   13.1780  163.1200 C.2   1001  ATP1001     0.3518
@<TRIPOS>BOND
     1     4     1    2
     2     3     1    1
     3     1     2    1
     4     1     8    1
     5     7     5    2
     6     8     5    1
     7     5     6    1
     8     5    12    1
     9    12     9    1
    10    11     9    2
    11     9    10    1
    12     9    13    1
    13    13    14    1
    14    14    15    1
    15    15    16    1
    16    15    17    1
    17    16    21    1
    18    17    18    1
    19    17    19    1
    20    21    19    1
    21    21    22    1
    22    19    20    1
    23    22    23    1
    24    22    31    1
    25    23    24    1
    26    31    30    2
    27    31    25    1
    28    24    25    2
    29    30    29    1
    30    25    26    1
    31    29    28    1
    32    26    28    2
    33    26    27    1
