@<TRIPOS>MOLECULE
2q9b_GNP_A_1.pdb
 32 34 0 0 0
SMALL
GASTEIGER

@<TRIPOS>ATOM
      1  PG        49.8280   63.5410   54.5030 P.3   950  GNP950      0.4884
      2  O1G       48.2860   63.4970   54.6790 O.3   950  GNP950     -0.1240
      3  O2G       50.1260   63.8230   53.0460 O.2   950  GNP950     -0.2331
      4  O3G       50.5650   62.2560   54.7760 O.3   950  GNP950     -0.1240
      5  N3B       50.3540   64.5910   55.6350 N.3   950  GNP950     -0.0163
      6  PB        51.7050   65.3740   55.6200 P.3   950  GNP950      0.4669
      7  O1B       52.4410   65.4610   54.4110 O.2   950  GNP950     -0.2351
      8  O2B       52.3100   65.7810   56.8630 O.3   950  GNP950     -0.1253
      9  O3A       50.9320   66.6940   55.5990 O.3   950  GNP950     -0.2360
     10  PA        50.4940   67.7340   54.3840 P.3   950  GNP950      0.2220
     11  O1A       51.5730   68.3930   53.5690 O.2   950  GNP950     -0.5170
     12  O2A       49.3200   67.1840   53.6320 O.3   950  GNP950     -0.4370
     13  O5'       49.9570   69.0340   55.1980 O.3   950  GNP950     -0.3111
     14  C5'       48.8830   68.9180   56.2150 C.3   950  GNP950      0.1813
     15  C4'       47.9970   70.1320   56.0240 C.3   950  GNP950      0.1799
     16  O4'       48.4690   71.1690   56.9280 O.3   950  GNP950     -0.3326
     17  C3'       47.9760   70.7570   54.6040 C.3   950  GNP950      0.2158
     18  O3'       46.5860   70.8790   54.0680 O.3   950  GNP950     -0.2175
     19  C2'       48.6400   72.1340   54.7440 C.3   950  GNP950      0.2310
     20  O2'       47.8240   73.1940   54.2600 O.3   950  GNP950     -0.2158
     21  C1'       48.5920   72.3970   56.2280 C.3   950  GNP950      0.2293
     22  N9        49.7500   73.1530   56.6860 N.pl3 950  GNP950     -0.2354
     23  C8        50.9910   72.6240   56.9190 C.3   950  GNP950      0.2246
     24  N7        51.8540   73.5370   57.2830 N.2   950  GNP950     -0.2322
     25  C5        51.1560   74.7640   57.3500 C.2   950  GNP950      0.2182
     26  C6        51.5490   76.1300   57.7730 C.1   950  GNP950      0.2372
     27  O6        52.6100   76.6570   58.1560 O.2   950  GNP950     -0.2069
     28  N1        50.4970   77.0500   57.7080 N.2   950  GNP950     -0.2485
     29  C2        49.1870   76.7300   57.3000 C.1   950  GNP950      0.2531
     30  N2        48.3360   77.7960   57.3100 N.pl3 950  GNP950     -0.0226
     31  N3        48.8010   75.4750   56.9290 N.2   950  GNP950     -0.3074
     32  C4        49.8280   74.5320   56.9740 C.2   950  GNP950      0.2300
@<TRIPOS>BOND
     1     3     1    2
     2    11    10    2
     3    12    10    1
     4    18    17    1
     5    20    19    1
     6    10    13    1
     7    10     9    1
     8     7     6    2
     9     1     2    1
    10     1     4    1
    11     1     5    1
    12    17    19    1
    13    17    15    1
    14    19    21    1
    15    13    14    1
    16     9     6    1
    17     6     5    1
    18     6     8    1
    19    15    14    1
    20    15    16    1
    21    21    22    1
    22    21    16    1
    23    22    23    1
    24    22    32    1
    25    23    24    1
    26    31    32    2
    27    31    29    2
    28    32    25    1
    29    24    25    2
    30    29    30    1
    31    29    28    2
    32    25    26    1
    33    28    26    2
    34    26    27    2
