@<TRIPOS>MOLECULE
2q9c_GNP_A_1.pdb
 32 34 0 0 0
SMALL
GASTEIGER

@<TRIPOS>ATOM
      1  PG        49.7850   62.5750   54.0470 P.3   950  GNP950      0.4884
      2  O1G       48.2640   62.3680   53.9620 O.3   950  GNP950     -0.1240
      3  O2G       50.3690   62.8120   52.6630 O.2   950  GNP950     -0.2331
      4  O3G       50.5480   61.3880   54.5830 O.3   950  GNP950     -0.1240
      5  N3B       50.0280   63.7770   55.1030 N.3   950  GNP950     -0.0163
      6  PB        51.2550   64.7300   55.1790 P.3   950  GNP950      0.4669
      7  O1B       52.0550   64.9590   53.9460 O.2   950  GNP950     -0.2351
      8  O2B       51.8630   64.9760   56.5010 O.3   950  GNP950     -0.1253
      9  O3A       50.4660   66.0600   55.2130 O.3   950  GNP950     -0.2360
     10  PA        50.0610   67.1950   54.1700 P.3   950  GNP950      0.2220
     11  O1A       51.1580   67.9500   53.5530 O.3   950  GNP950     -0.4370
     12  O2A       49.0340   66.5600   53.3070 O.2   950  GNP950     -0.5170
     13  O5'       49.3220   68.3270   54.9520 O.3   950  GNP950     -0.3111
     14  C5'       48.2550   67.9890   55.8830 C.3   950  GNP950      0.1813
     15  C4'       47.4490   69.2540   56.1830 C.3   950  GNP950      0.1799
     16  O4'       48.2370   70.1180   57.0430 O.3   950  GNP950     -0.3326
     17  C3'       47.1000   70.1450   54.9580 C.3   950  GNP950      0.2158
     18  O3'       45.7040   70.6480   55.0430 O.3   950  GNP950     -0.2175
     19  C2'       48.1830   71.2260   54.9760 C.3   950  GNP950      0.2310
     20  O2'       47.8240   72.4470   54.3840 O.3   950  GNP950     -0.2158
     21  C1'       48.2650   71.4360   56.4700 C.3   950  GNP950      0.2293
     22  N9        49.4260   72.2290   56.9220 N.pl3 950  GNP950     -0.2354
     23  C8        50.7540   71.9970   56.6710 C.3   950  GNP950      0.2246
     24  N7        51.5630   72.8930   57.2170 N.2   950  GNP950     -0.2322
     25  C5        50.7240   73.7840   57.8650 C.2   950  GNP950      0.2182
     26  C6        51.0150   74.9610   58.6500 C.1   950  GNP950      0.2372
     27  O6        52.1090   75.4800   58.9470 O.2   950  GNP950     -0.2069
     28  N1        49.8570   75.5520   59.1520 N.2   950  GNP950     -0.2485
     29  C2        48.5550   75.0690   58.9050 C.1   950  GNP950      0.2531
     30  N2        47.4930   75.7460   59.4100 N.pl3 950  GNP950     -0.0226
     31  N3        48.2850   73.9860   58.1880 N.2   950  GNP950     -0.3074
     32  C4        49.4070   73.3900   57.6900 C.2   950  GNP950      0.2300
@<TRIPOS>BOND
     1     3     1    2
     2    12    10    2
     3    11    10    1
     4     7     6    2
     5     2     1    1
     6     1     4    1
     7     1     5    1
     8    10    13    1
     9    10     9    1
    10    20    19    1
    11    13    14    1
    12    17    19    1
    13    17    18    1
    14    17    15    1
    15    19    21    1
    16     5     6    1
    17     6     9    1
    18     6     8    1
    19    14    15    1
    20    15    16    1
    21    21    22    1
    22    21    16    1
    23    23    22    1
    24    23    24    1
    25    22    32    1
    26    24    25    2
    27    32    25    1
    28    32    31    2
    29    25    26    1
    30    31    29    2
    31    26    27    2
    32    26    28    2
    33    29    28    2
    34    29    30    1
