@<TRIPOS>MOLECULE
2q9d_MTN_A_1.pdb
 12 12 0 0 0
SMALL
GASTEIGER

@<TRIPOS>ATOM
      1  O1        27.9720   34.6170    5.8590 O.3   841  MTN841     -0.1175
      2  N1        28.0740   33.4280    6.0280 N.4   841  MTN841     -0.1311
      3  C1        26.8720   32.5670    5.6250 C.3   841  MTN841      0.0909
      4  C2        27.3850   31.1790    5.9940 C.2   841  MTN841     -0.0160
      5  C3        28.7580   31.3220    6.5490 C.2   841  MTN841     -0.0205
      6  C4        29.4780   30.0460    6.9920 C.3   841  MTN841      0.0917
      7  S1        28.4250   28.5830    7.1340 S.3   841  MTN841     -0.0773
      8  C5        29.2180   32.7250    6.5830 C.3   841  MTN841      0.0886
      9  C6        30.4370   32.5910    5.7010 C.3   841  MTN841      0.0227
     10  C7        29.4040   33.1870    8.0100 C.3   841  MTN841      0.0227
     11  C8        25.6450   32.8450    6.5420 C.3   841  MTN841      0.0230
     12  C9        26.5440   32.7080    4.1080 C.3   841  MTN841      0.0230
@<TRIPOS>BOND
     1    12     3    1
     2     3     4    1
     3     3     2    1
     4     3    11    1
     5     9     8    1
     6     1     2    1
     7     4     5    2
     8     2     8    1
     9     5     8    1
    10     5     6    1
    11     8    10    1
    12     6     7    1
