@<TRIPOS>MOLECULE
2q9e_MTN_A_1.pdb
 12 12 0 0 0
SMALL
GASTEIGER

@<TRIPOS>ATOM
      1  O1        22.1590    9.3020   79.9680 O.3   844  MTN844     -0.1175
      2  N1        22.7220    8.2930   80.3130 N.4   844  MTN844     -0.1311
      3  C1        24.0070    7.8670   79.5400 C.3   844  MTN844      0.0909
      4  C2        24.0830    6.4380   80.0250 C.2   844  MTN844     -0.0160
      5  C3        23.0650    6.0490   80.8330 C.2   844  MTN844     -0.0205
      6  C4        22.7960    4.5820   81.3850 C.3   844  MTN844      0.0917
      7  S1        21.8510    3.4920   80.3210 S.3   844  MTN844     -0.0773
      8  C5        22.0920    7.2220   81.0850 C.3   844  MTN844      0.0886
      9  C6        21.8770    7.7100   82.5840 C.3   844  MTN844      0.0227
     10  C7        20.7750    6.8760   80.3850 C.3   844  MTN844      0.0227
     11  C8        23.7950    7.9960   77.9670 C.3   844  MTN844      0.0230
     12  C9        25.2710    8.7160   79.9970 C.3   844  MTN844      0.0230
@<TRIPOS>BOND
     1    11     3    1
     2     3    12    1
     3     3     4    1
     4     3     2    1
     5     1     2    1
     6     4     5    2
     7     2     8    1
     8     7     6    1
     9    10     8    1
    10     5     8    1
    11     5     6    1
    12     8     9    1
