@<TRIPOS>MOLECULE
2q9f_HEM_A_1.pdb
 43 50 0 0 0
SMALL
GASTEIGER

@<TRIPOS>ATOM
      1  CHA       30.1720    1.8040    7.2360 C.2   602  HEM602      0.0000
      2  CHB       32.0530   -2.4930    7.9340 C.2   602  HEM602      0.0000
      3  CHC       36.3510   -0.7710    6.7560 C.2   602  HEM602      0.0000
      4  CHD       34.5550    3.5860    6.3970 C.2   602  HEM602      0.0000
      5  C1A       30.3660    0.4920    7.8270 C.2   602  HEM602      0.0000
      6  C2A       29.3350   -0.3360    8.2570 C.2   602  HEM602      0.0000
      7  C3A       29.7530   -1.6540    8.0820 C.2   602  HEM602      0.0000
      8  C4A       31.0850   -1.5500    7.6060 C.2   602  HEM602      0.0000
      9  CMA       28.9430   -2.9680    8.4310 C.3   602  HEM602      0.0000
     10  CAA       27.9880    0.1290    8.9090 C.3   602  HEM602      0.0000
     11  CBA       26.8040    0.4530    8.3860 C.3   602  HEM602      0.0000
     12  CGA       25.8490    0.6290    9.6190 C.2   602  HEM602      0.0000
     13  O1A       25.8680    1.4960   10.6210 O.co2 602  HEM602      0.0000
     14  O2A       25.0730   -0.1450    9.6220 O.co2 602  HEM602      0.0000
     15  C1B       33.4280   -2.4640    7.7840 C.ar  602  HEM602      0.0000
     16  C2B       34.3250   -3.5550    7.9330 C.ar  602  HEM602      0.0000
     17  C3B       35.5950   -3.0120    7.5950 C.ar  602  HEM602      0.0000
     18  C4B       35.3850   -1.6500    7.2630 C.ar  602  HEM602      0.0000
     19  CMB       33.9620   -5.0150    8.3740 C.3   602  HEM602      0.0000
     20  CAB       36.8170   -3.7020    7.5870 C.3   602  HEM602      0.0000
     21  CBB       37.0680   -5.0780    7.2450 C.3   602  HEM602      0.0000
     22  C1C       36.2800    0.5700    6.4560 C.2   602  HEM602      0.0000
     23  C2C       37.3580    1.3590    6.0100 C.2   602  HEM602      0.0000
     24  C3C       36.8620    2.7030    5.9140 C.2   602  HEM602      0.0000
     25  C4C       35.5000    2.5900    6.3130 C.2   602  HEM602      0.0000
     26  CMC       38.7790    0.8470    5.6840 C.3   602  HEM602      0.0000
     27  CAC       37.4760    3.9430    5.5150 C.3   602  HEM602      0.0000
     28  CBC       38.7420    4.1200    4.8990 C.3   602  HEM602      0.0000
     29  C1D       33.2440    3.5150    6.7360 C.ar  602  HEM602      0.0000
     30  C2D       32.3620    4.6250    6.6660 C.ar  602  HEM602      0.0000
     31  C3D       31.0710    4.1300    6.7610 C.ar  602  HEM602      0.0000
     32  C4D       31.2150    2.7180    6.9130 C.ar  602  HEM602      0.0000
     33  CMD       32.7610    6.1340    6.5020 C.3   602  HEM602      0.0000
     34  CAD       29.7100    4.8840    6.7050 C.3   602  HEM602      0.0000
     35  CBD       29.2810    4.8310    5.1770 C.3   602  HEM602      0.0000
     36  CGD       27.9770    5.5000    4.7990 C.2   602  HEM602      0.0000
     37  O1D       27.8770    6.1260    3.7260 O.co2 602  HEM602      0.0000
     38  O2D       27.0150    5.4080    5.5760 O.co2 602  HEM602      0.0000
     39  NA        31.4220   -0.2690    7.4530 N.2   602  HEM602      0.0000
     40  NB        34.1040   -1.3370    7.3720 N.ar  602  HEM602      0.0000
     41  NC        35.1930    1.2820    6.6300 N.2   602  HEM602      0.0000
     42  ND        32.5260    2.3830    6.8800 N.ar  602  HEM602      0.0000
     43 FE         33.2930    0.4670    6.9380 Fe    602  HEM602      0.0000
@<TRIPOS>BOND
     1    37    36   ar
     2    36    35    1
     3    36    38   ar
     4    28    27    1
     5    35    34    1
     6    27    24    1
     7    26    23    1
     8    24    23    2
     9    24    25    1
    10    23    22    1
    11    25     4    1
    12    25    41    2
    13     4    29    2
    14    22    41    1
    15    22     3    2
    16    33    30    1
    17    41    43    1
    18    30    29   ar
    19    30    31   ar
    20    34    31    1
    21    29    42   ar
    22     3    18    1
    23    31    32   ar
    24    42    32   ar
    25    42    43    1
    26    32     1    2
    27    43    40    1
    28    43    39    1
    29     1     5    1
    30    21    20    1
    31    18    40   ar
    32    18    17   ar
    33    40    15   ar
    34    39     8    1
    35    39     5    2
    36    20    17    1
    37    17    16   ar
    38     8     2    2
    39     8     7    1
    40    15    16   ar
    41    15     2    1
    42     5     6    1
    43    16    19    1
    44     7     6    2
    45     7     9    1
    46     6    10    1
    47    11    10    1
    48    11    12    1
    49    12    14   ar
    50    12    13   ar
