@<TRIPOS>MOLECULE
2q9f_C3S_A_1.pdb
 32 35 0 0 0
SMALL
GASTEIGER

@<TRIPOS>ATOM
      1  C65       33.2570    1.6620   13.2250 C.3   600  C3S600      0.0000
      2  C63       32.1180    2.1050   12.3050 C.3   600  C3S600      0.0000
      3  C69       31.4650    3.3820   12.8380 C.3   600  C3S600      0.0000
      4  C60       31.0830    0.9940   12.1130 C.3   600  C3S600      0.0000
      5  C57       30.3180    0.6590   13.3980 C.3   600  C3S600      0.0000
      6  C54       29.3800   -0.5290   13.1740 C.3   600  C3S600      0.0000
      7  C48       28.7650   -1.0590   14.4730 C.3   600  C3S600      0.0000
      8  C50       29.8720   -1.5670   15.3990 C.3   600  C3S600      0.0000
      9  C38       27.8700   -0.0100   15.1490 C.3   600  C3S600      0.0003
     10  C35       26.6760    0.3850   14.2630 C.3   600  C3S600      0.0003
     11  C29       27.2060   -0.4380   16.4630 C.3   600  C3S600      0.0034
     12  C26       28.0650   -0.3930   17.7300 C.3   600  C3S600      0.0006
     13  C40       26.6080   -1.8370   16.2730 C.3   600  C3S600      0.0003
     14  C30       26.1870    0.7000   16.5360 C.3   600  C3S600      0.0183
     15  C32       25.4650    0.5490   15.1970 C.3   600  C3S600      0.0040
     16  C18       25.3450    0.7330   17.8200 C.2   600  C3S600     -0.0446
     17  C15       24.1980    1.5190   17.8810 C.2   600  C3S600     -0.0091
     18  C20       25.8640    0.1300   18.9660 C.3   600  C3S600      0.0217
     19  C23       27.2160   -0.5960   18.9960 C.3   600  C3S600      0.0043
     20  C22       24.9550   -0.0350   20.1930 C.3   600  C3S600      0.0188
     21  C44       24.5070   -1.4980   20.1230 C.3   600  C3S600      0.0044
     22  C12       23.7190    0.8700   20.1650 C.2   600  C3S600     -0.0421
     23  C9        22.8150    0.9560   21.4000 C.3   600  C3S600      0.0540
     24  C13       23.4020    1.5960   19.0230 C.2   600  C3S600     -0.0091
     25  C1        25.7060    0.2580   21.4960 C.3   600  C3S600      0.0066
     26  C4        24.7860    0.1770   22.7200 C.3   600  C3S600      0.0327
     27  C7        23.6130    1.1630   22.6900 C.3   600  C3S600      0.1473
     28  O6        22.8030    0.9260   23.8520 O.3   600  C3S600     -0.2434
     29  S1        21.8070    1.8960   24.2170 S.3   600  C3S600     -0.0002
     30  O3        21.4470    1.6690   25.6540 O.3   600  C3S600     -0.2682
     31  O2        20.5660    1.6910   23.3990 O.2   600  C3S600     -0.3452
     32  O4        22.2950    3.2940   23.9910 O.2   600  C3S600     -0.3452
@<TRIPOS>BOND
     1     4     2    1
     2     4     5    1
     3     2     3    1
     4     2     1    1
     5     6     5    1
     6     6     7    1
     7    10     9    1
     8    10    15    1
     9     7     9    1
    10     7     8    1
    11     9    11    1
    12    15    14    1
    13    13    11    1
    14    11    14    1
    15    11    12    1
    16    14    16    1
    17    12    19    1
    18    16    17    2
    19    16    18    1
    20    17    24    1
    21    18    19    1
    22    18    20    1
    23    24    22    2
    24    21    20    1
    25    22    20    1
    26    22    23    1
    27    20    25    1
    28    23    27    1
    29    25    26    1
    30    27    26    1
    31    27    28    1
    32    31    29    2
    33    28    29    1
    34    32    29    2
    35    29    30    1
