@<TRIPOS>MOLECULE
2q9g_HEM_A_1.pdb
 43 50 0 0 0
SMALL
GASTEIGER

@<TRIPOS>ATOM
      1  CHA       29.6740    1.8630    7.9190 C.2   505  HEM505      0.0000
      2  CHB       31.5500   -2.3980    8.4150 C.2   505  HEM505      0.0000
      3  CHC       35.7940   -0.6400    7.6590 C.2   505  HEM505      0.0000
      4  CHD       33.9480    3.6920    7.2420 C.2   505  HEM505      0.0000
      5  C1A       29.8370    0.5310    8.3250 C.2   505  HEM505      0.0000
      6  C2A       28.8670   -0.3010    8.8930 C.2   505  HEM505      0.0000
      7  C3A       29.3250   -1.5750    8.7440 C.2   505  HEM505      0.0000
      8  C4A       30.5590   -1.4700    8.1320 C.2   505  HEM505      0.0000
      9  CMA       28.6140   -2.9340    9.2050 C.3   505  HEM505      0.0000
     10  CAA       27.5820    0.1430    9.5690 C.3   505  HEM505      0.0000
     11  CBA       26.3500    0.2980    8.8930 C.3   505  HEM505      0.0000
     12  CGA       25.2950    0.7200    9.9180 C.2   505  HEM505      0.0000
     13  O1A       25.6120    1.1640   11.0690 O.co2 505  HEM505      0.0000
     14  O2A       24.1350    0.6170    9.6280 O.co2 505  HEM505      0.0000
     15  C1B       32.9140   -2.3910    8.3210 C.ar  505  HEM505      0.0000
     16  C2B       33.7980   -3.5050    8.5010 C.ar  505  HEM505      0.0000
     17  C3B       35.0710   -2.9610    8.2690 C.ar  505  HEM505      0.0000
     18  C4B       34.8270   -1.5890    7.9710 C.ar  505  HEM505      0.0000
     19  CMB       33.3890   -4.9420    8.8670 C.3   505  HEM505      0.0000
     20  CAB       36.3540   -3.5810    8.3110 C.3   505  HEM505      0.0000
     21  CBB       36.8060   -4.9150    7.9130 C.3   505  HEM505      0.0000
     22  C1C       35.6990    0.6760    7.2170 C.2   505  HEM505      0.0000
     23  C2C       36.7830    1.4820    6.8660 C.2   505  HEM505      0.0000
     24  C3C       36.3040    2.8020    6.8380 C.2   505  HEM505      0.0000
     25  C4C       34.9310    2.6820    7.1840 C.2   505  HEM505      0.0000
     26  CMC       38.2340    0.9980    6.5730 C.3   505  HEM505      0.0000
     27  CAC       36.9090    4.0130    6.5640 C.3   505  HEM505      0.0000
     28  CBC       37.8820    4.3610    5.5850 C.3   505  HEM505      0.0000
     29  C1D       32.5910    3.5850    7.4050 C.ar  505  HEM505      0.0000
     30  C2D       31.6880    4.6570    7.2810 C.ar  505  HEM505      0.0000
     31  C3D       30.4320    4.1250    7.3070 C.ar  505  HEM505      0.0000
     32  C4D       30.6320    2.7310    7.4530 C.ar  505  HEM505      0.0000
     33  CMD       32.0170    6.1650    7.1360 C.3   505  HEM505      0.0000
     34  CAD       29.0820    4.8750    7.1950 C.3   505  HEM505      0.0000
     35  CBD       28.6690    4.9670    5.7000 C.3   505  HEM505      0.0000
     36  CGD       27.3490    5.6700    5.3560 C.2   505  HEM505      0.0000
     37  O1D       27.2590    6.3550    4.3710 O.co2 505  HEM505      0.0000
     38  O2D       26.3650    5.5220    6.0940 O.co2 505  HEM505      0.0000
     39  NA        30.8590   -0.2070    7.8790 N.2   505  HEM505      0.0000
     40  NB        33.5550   -1.3080    8.0170 N.ar  505  HEM505      0.0000
     41  NC        34.6190    1.3760    7.4030 N.2   505  HEM505      0.0000
     42  ND        31.9260    2.4560    7.5030 N.ar  505  HEM505      0.0000
     43 FE         32.7400    0.5730    7.7200 Fe    505  HEM505      0.0000
@<TRIPOS>BOND
     1    37    36   ar
     2    36    35    1
     3    36    38   ar
     4    28    27    1
     5    35    34    1
     6    27    24    1
     7    26    23    1
     8    24    23    2
     9    24    25    1
    10    23    22    1
    11    33    30    1
    12    25     4    1
    13    25    41    2
    14    34    31    1
    15    22    41    1
    16    22     3    2
    17     4    29    2
    18    30    31   ar
    19    30    29   ar
    20    31    32   ar
    21    41    43    1
    22    29    42   ar
    23    32    42   ar
    24    32     1    2
    25    42    43    1
    26     3    18    1
    27    43    39    1
    28    43    40    1
    29    39     8    1
    30    39     5    2
    31    21    20    1
    32     1     5    1
    33    18    40   ar
    34    18    17   ar
    35    40    15   ar
    36     8     2    2
    37     8     7    1
    38    17    20    1
    39    17    16   ar
    40    15     2    1
    41    15    16   ar
    42     5     6    1
    43    16    19    1
    44     7     6    2
    45     7     9    1
    46    11    10    1
    47    11    12    1
    48     6    10    1
    49    14    12   ar
    50    12    13   ar
