@<TRIPOS>MOLECULE
2q9i_III_M_1.pdb
 49 51 0 0 0
SMALL
GASTEIGER

@<TRIPOS>ATOM
      1  N         64.0040   89.4440  192.6960 N.3     1  MET1       -0.1230
      2  CA        63.8000   88.9690  194.0890 C.3     1  MET1        0.1702
      3  C         64.4880   87.6270  194.3160 C.2     1  MET1        0.2592
      4  O         64.4930   86.7580  193.4380 O.2     1  MET1       -0.2718
      5  CB        62.3080   88.8320  194.3760 C.3     1  MET1        0.0401
      6  CG        61.9820   88.5270  195.8400 C.3     1  MET1        0.0596
      7  SD        62.4400   89.8200  197.0490 S.3     1  MET1       -0.1393
      8  CE        60.7970   90.5240  197.4090 C.3     1  MET1        0.0692
      9  N         65.0450   87.4600  195.5110 N.am    2  HIS2       -0.1962
     10  CA        65.7580   86.2400  195.8750 C.3     2  HIS2        0.1784
     11  C         65.0020   85.3760  196.8870 C.2     2  HIS2        0.2620
     12  O         63.9470   85.7540  197.4020 O.2     2  HIS2       -0.2715
     13  CB        67.1070   86.6050  196.4850 C.3     2  HIS2        0.0745
     14  CG        66.9900   87.2610  197.8290 C.2     2  HIS2        0.0653
     15  ND1       66.1770   88.3520  198.0560 N.2     2  HIS2       -0.2310
     16  CD2       67.5720   86.9740  199.0190 C.3     2  HIS2        0.1683
     17  CE1       66.2640   88.7100  199.3260 C.2     2  HIS2        0.1939
     18  NE2       67.1030   87.8900  199.9330 N.2     2  HIS2       -0.2440
     19  N         65.5850   84.2160  197.1740 N.am    3  ARG3       -0.1964
     20  CA        65.0550   83.2550  198.1360 C.3     3  ARG3        0.1714
     21  C         66.2690   82.7480  198.9300 C.2     3  ARG3        0.2458
     22  O         66.9620   81.8160  198.5000 O.2     3  ARG3       -0.2730
     23  CB        64.3750   82.1000  197.4020 C.3     3  ARG3        0.0347
     24  CG        63.1830   82.5210  196.5520 C.3     3  ARG3        0.0492
     25  CD        62.0330   83.0630  197.3990 C.3     3  ARG3        0.2205
     26  NE        60.8390   83.3710  196.6050 N.pl3   3  ARG3       -0.0865
     27  CZ        60.7490   84.3550  195.7090 C.cat   3  ARG3        0.5346
     28  NH1       61.7820   85.1510  195.4710 N.pl3   3  ARG3        0.1354
     29  NH2       59.6170   84.5540  195.0480 N.pl3   3  ARG3        0.1354
     30  N         66.5350   83.3620  200.1050 N.am    4  PRO4       -0.2716
     31  CA        67.6460   83.0520  201.0180 C.3     4  PRO4        0.1536
     32  C         67.8520   81.5740  201.3080 C.2     4  PRO4        0.2599
     33  O         66.8890   80.8220  201.4250 O.2     4  PRO4       -0.2715
     34  CB        67.2820   83.8230  202.2900 C.3     4  PRO4        0.0310
     35  CG        66.4810   84.9680  201.7890 C.3     4  PRO4        0.0237
     36  CD        65.6060   84.3170  200.7410 C.3     4  PRO4        0.0939
     37  N         69.1100   81.1570  201.4160 N.am    5  TYR5       -0.1938
     38  CA        69.4070   79.7680  201.7400 C.3     5  TYR5        0.2021
     39  C         69.2620   79.6370  203.2510 C.2     5  TYR5        0.3845
     40  O         68.7490   78.5930  203.7100 O.co2   5  TYR5       -0.2437
     41  CB        70.8320   79.3820  201.3350 C.3     5  TYR5        0.0596
     42  CG        71.0550   79.2880  199.8510 C.ar    5  TYR5       -0.0197
     43  CD1       71.6920   80.3130  199.1620 C.ar    5  TYR5       -0.0009
     44  CD2       70.6220   78.1770  199.1320 C.ar    5  TYR5       -0.0009
     45  CE1       71.8940   80.2380  197.7910 C.ar    5  TYR5        0.0417
     46  CE2       70.8160   78.0950  197.7570 C.ar    5  TYR5        0.0417
     47  CZ        71.4530   79.1320  197.0950 C.ar    5  TYR5        0.1957
     48  OH        71.6420   79.0790  195.7350 O.3     5  TYR5       -0.2866
     49  OXT       69.6780   80.5900  203.9540 O.co2   5  TYR5       -0.2437
@<TRIPOS>BOND
     1     1     2    1
     2     4     3    2
     3     2     3    1
     4     2     5    1
     5     3     9   am
     6     5     6    1
     7    29    27    1
     8    28    27    1
     9     9    10    1
    10    27    26    2
    11    48    47    1
    12     6     7    1
    13    10    13    1
    14    10    11    1
    15    13    14    1
    16    24    25    1
    17    24    23    1
    18    26    25    1
    19    11    19   am
    20    11    12    2
    21     7     8    1
    22    47    46   ar
    23    47    45   ar
    24    19    20    1
    25    23    20    1
    26    46    44   ar
    27    45    43   ar
    28    14    15    2
    29    14    16    1
    30    15    17    1
    31    20    21    1
    32    22    21    2
    33    21    30   am
    34    16    18    1
    35    44    42   ar
    36    43    42   ar
    37    17    18    2
    38    42    41    1
    39    30    36    1
    40    30    31    1
    41    36    35    1
    42    31    32    1
    43    31    34    1
    44    32    37   am
    45    32    33    2
    46    41    38    1
    47    37    38    1
    48    38    39    1
    49    35    34    1
    50    39    40   ar
    51    39    49   ar
