@<TRIPOS>MOLECULE
2q9m_LK7_A_1.pdb
 19 20 0 0 0
SMALL
GASTEIGER

@<TRIPOS>ATOM
      1  C1        17.9720   20.3850   26.5930 C.3     0  LK70        0.0005
      2  C2        18.7970   19.9090   25.3900 C.3     0  LK70        0.0097
      3  C3        18.3950   20.0660   24.0840 C.3     0  LK70        0.0872
      4  C4        18.3260   18.8940   23.2360 C.2     0  LK70        0.2089
      5  O1        18.5170   19.0910   22.0420 O.2     0  LK70       -0.2882
      6  C5        18.1610   21.4930   23.5120 C.3     0  LK70        0.1108
      7  N1        18.1160   22.3270   24.7610 N.2     0  LK70       -0.2696
      8  C6        17.6110   23.4400   24.3310 C.2     0  LK70        0.1351
      9  C7        17.9630   24.7810   24.9150 C.2     0  LK70        0.4007
     10  O2        18.2050   25.7790   24.2370 O.co2   0  LK70       -0.2392
     11  O3        18.0460   24.8750   26.1570 O.co2   0  LK70       -0.2392
     12  C8        16.7010   23.1810   23.4990 C.3     0  LK70        0.0755
     13  C9        16.5970   21.8100   23.3560 C.3     0  LK70        0.0310
     14  C10       15.5480   21.1780   24.2550 C.3     0  LK70        0.0025
     15  C11       14.1920   21.8680   24.0120 C.3     0  LK70        0.0026
     16  C12       14.3670   23.4220   24.0350 C.3     0  LK70        0.0299
     17  C13       15.5180   23.9520   23.1500 C.3     0  LK70        0.1211
     18  O4        15.1420   24.1130   21.7860 O.3     0  LK70       -0.3532
     19  C14       14.8120   25.3970   22.0810 C.3     0  LK70        0.1740
@<TRIPOS>BOND
     1    18    19    1
     2    18    17    1
     3     5     4    2
     4    17    12    1
     5    17    16    1
     6     4     3    1
     7    13    12    1
     8    13     6    1
     9    13    14    1
    10    12     8    1
    11     6     3    1
    12     6     7    1
    13    15    16    1
    14    15    14    1
    15     3     2    1
    16    10     9   ar
    17     8     7    2
    18     8     9    1
    19     9    11   ar
    20     2     1    1
