@<TRIPOS>MOLECULE
2q9n_LK5_A_1.pdb
 22 23 0 0 0
SMALL
GASTEIGER

@<TRIPOS>ATOM
      1  C1        23.0400   26.7730   22.1710 C.3     0  LK50        0.0001
      2  C3        23.4100   26.8730   23.5330 C.3     0  LK50        0.0026
      3  C4        22.1440   27.0040   24.3280 C.3     0  LK50        0.0321
      4  C5        21.8040   25.7580   25.1140 C.3     0  LK50        0.1421
      5  O4        20.8580   24.9690   24.3830 O.3     0  LK50       -0.3559
      6  C6        21.2150   23.5570   24.2660 C.3     0  LK50        0.1210
      7  C7        21.8080   23.3350   22.8880 C.3     0  LK50        0.0299
      8  C8        20.7310   23.1830   21.8550 C.3     0  LK50        0.0026
      9  C9        19.9620   21.8930   22.0840 C.3     0  LK50        0.0025
     10  C10       19.1650   21.9470   23.3790 C.3     0  LK50        0.0310
     11  C11       19.9570   22.7280   24.4090 C.3     0  LK50        0.0755
     12  C12       19.2630   22.3590   25.6220 C.2     0  LK50        0.1351
     13  C13       19.5880   22.8470   26.9670 C.2     0  LK50        0.4007
     14  O3        19.8380   24.1190   27.1160 O.co2   0  LK50       -0.2392
     15  O2        19.6240   22.0050   27.9000 O.co2   0  LK50       -0.2392
     16  N1        18.7460   21.1110   25.5230 N.2     0  LK50       -0.2696
     17  C14       18.7930   20.6500   24.1370 C.3     0  LK50        0.1108
     18  C15       19.7060   19.4530   23.9720 C.3     0  LK50        0.0872
     19  C16       20.5530   19.0390   25.0430 C.3     0  LK50        0.0097
     20  C2        21.9610   19.6090   25.4440 C.3     0  LK50        0.0005
     21  C17       19.4250   18.4390   22.9220 C.2     0  LK50        0.2089
     22  O1        19.2840   18.7480   21.7540 O.2     0  LK50       -0.2882
@<TRIPOS>BOND
     1    22    21    2
     2     8     9    1
     3     8     7    1
     4     9    10    1
     5     1     2    1
     6     7     6    1
     7    21    18    1
     8    10    17    1
     9    10    11    1
    10     2     3    1
    11    18    17    1
    12    18    19    1
    13    17    16    1
    14     6     5    1
    15     6    11    1
    16     3     4    1
    17     5     4    1
    18    11    12    1
    19    19    20    1
    20    16    12    2
    21    12    13    1
    22    13    14   ar
    23    13    15   ar
