@<TRIPOS>MOLECULE
2q9p_IHP_A_1.pdb
 36 36 0 0 0
SMALL
GASTEIGER

@<TRIPOS>ATOM
      1  C1        17.4710    4.2870   13.1580 C.3   201  IHP201      0.1863
      2  C2        17.5240    3.5390   14.4910 C.3   201  IHP201      0.1863
      3  C3        17.1680    4.4250   15.6810 C.3   201  IHP201      0.1863
      4  C4        15.8400    5.1590   15.4820 C.3   201  IHP201      0.1863
      5  C5        16.0410    6.0860   14.2890 C.3   201  IHP201      0.1863
      6  C6        16.2830    5.2500   13.0260 C.3   201  IHP201      0.1863
      7  O11       17.3590    3.3030   12.1330 O.3   201  IHP201     -0.2675
      8  P1        18.6710    2.7210   11.4050 P.3   201  IHP201      0.5327
      9  O21       18.2750    2.6870    9.8470 O.2   201  IHP201     -0.2224
     10  O31       19.8150    3.8400   11.5800 O.3   201  IHP201     -0.1145
     11  O41       19.0710    1.4000   11.9370 O.3   201  IHP201     -0.1145
     12  O12       16.6340    2.4290   14.4290 O.3   201  IHP201     -0.2675
     13  P2        17.1270    0.9760   14.9170 P.3   201  IHP201      0.5327
     14  O22       16.5470   -0.0930   14.0860 O.2   201  IHP201     -0.2224
     15  O32       18.7310    1.0040   14.9050 O.3   201  IHP201     -0.1145
     16  O42       16.7040    0.8910   16.4690 O.3   201  IHP201     -0.1145
     17  O13       17.1200    3.6390   16.8710 O.3   201  IHP201     -0.2675
     18  P3        18.3870    3.6250   17.8660 P.3   201  IHP201      0.5327
     19  O23       18.0000    2.5730   19.0260 O.3   201  IHP201     -0.1145
     20  O33       18.4100    5.0780   18.5580 O.3   201  IHP201     -0.1145
     21  O43       19.6590    3.3020   17.1750 O.2   201  IHP201     -0.2224
     22  O14       15.6430    5.9740   16.6320 O.3   201  IHP201     -0.2675
     23  P4        14.2680    6.0150   17.4720 P.3   201  IHP201      0.5327
     24  O24       13.1120    6.5110   16.4720 O.2   201  IHP201     -0.2224
     25  O34       13.9210    4.5010   17.8730 O.3   201  IHP201     -0.1145
     26  O44       14.4210    6.8580   18.6700 O.3   201  IHP201     -0.1145
     27  O15       14.8950    6.9310   14.1190 O.3   201  IHP201     -0.2675
     28  P5        14.9230    8.5250   14.3890 P.3   201  IHP201      0.5327
     29  O25       16.4560    8.9950   14.4710 O.3   201  IHP201     -0.1145
     30  O35       14.2920    8.7420   15.8500 O.3   201  IHP201     -0.1145
     31  O45       14.1700    9.2400   13.3400 O.2   201  IHP201     -0.2224
     32  O16       16.5900    6.1340   11.9490 O.3   201  IHP201     -0.2675
     33  P6        15.5190    6.4890   10.8020 P.3   201  IHP201      0.5327
     34  O26       14.4010    5.3340   10.8370 O.3   201  IHP201     -0.1145
     35  O36       16.2990    6.3240    9.4070 O.2   201  IHP201     -0.2224
     36  O46       14.9580    7.8600   10.9720 O.3   201  IHP201     -0.1145
@<TRIPOS>BOND
     1    35    33    2
     2     9     8    2
     3    33    34    1
     4    33    36    1
     5    33    32    1
     6     8    10    1
     7     8    11    1
     8     8     7    1
     9    32     6    1
    10     7     1    1
    11     6     1    1
    12     6     5    1
    13     1     2    1
    14    31    28    2
    15    14    13    2
    16    27     5    1
    17    27    28    1
    18     5     4    1
    19    28    29    1
    20    28    30    1
    21    12     2    1
    22    12    13    1
    23     2     3    1
    24    15    13    1
    25    13    16    1
    26     4     3    1
    27     4    22    1
    28     3    17    1
    29    24    23    2
    30    22    23    1
    31    17    18    1
    32    21    18    2
    33    23    25    1
    34    23    26    1
    35    18    20    1
    36    18    19    1
