@<TRIPOS>MOLECULE
2q9s_EIC_A_1.pdb
 20 19 0 0 0
SMALL
GASTEIGER

@<TRIPOS>ATOM
      1  C1        11.2340   18.9650   -2.5450 C.2   601  EIC601      0.3649
      2  C2        11.1650   18.5530   -4.0080 C.3   601  EIC601      0.1141
      3  C3        11.3490   17.0580   -4.1810 C.3   601  EIC601      0.0118
      4  C4        12.8220   16.6900   -4.2400 C.3   601  EIC601      0.0006
      5  C5        13.2310   16.2250   -5.6240 C.3   601  EIC601      0.0000
      6  C6        13.1990   17.3590   -6.6380 C.3   601  EIC601      0.0003
      7  C7        13.9100   16.9230   -7.9240 C.3   601  EIC601      0.0047
      8  C8        15.2050   17.6870   -8.1970 C.3   601  EIC601      0.0257
      9  C9        15.1680   18.2510   -9.6170 C.2   601  EIC601     -0.0304
     10  C10       14.3070   19.2210   -9.9730 C.2   601  EIC601     -0.0260
     11  C11       13.3180   19.8040   -8.9950 C.3   601  EIC601      0.0513
     12  C12       12.9470   21.2210   -9.3720 C.2   601  EIC601     -0.0260
     13  C13       12.0200   21.8830   -8.6590 C.2   601  EIC601     -0.0304
     14  C14       11.3450   21.1870   -7.4820 C.3   601  EIC601      0.0257
     15  C15       10.4500   22.1700   -6.7430 C.3   601  EIC601      0.0047
     16  C16        9.9350   21.5160   -5.4690 C.3   601  EIC601      0.0003
     17  C17        8.7580   20.5880   -5.7340 C.3   601  EIC601      0.0000
     18  C18        7.8430   20.5000   -4.5190 C.3   601  EIC601      0.0000
     19  O1        10.5030   19.8140   -1.9780 O.co2 601  EIC601     -0.2457
     20  O2        12.1100   18.3970   -1.8430 O.co2 601  EIC601     -0.2457
@<TRIPOS>BOND
     1    10     9    2
     2    10    11    1
     3     9     8    1
     4    12    11    1
     5    12    13    2
     6    13    14    1
     7     8     7    1
     8     7     6    1
     9    14    15    1
    10    15    16    1
    11     6     5    1
    12    17    16    1
    13    17    18    1
    14     5     4    1
    15     4     3    1
    16     3     2    1
    17     2     1    1
    18     1    19   ar
    19     1    20   ar
