@<TRIPOS>MOLECULE
2q9u_FMN_A_1.pdb
 31 33 0 0 0
SMALL
GASTEIGER

@<TRIPOS>ATOM
      1  N1       -17.3370    6.0720   32.6420 N.2   601  FMN601     -0.2887
      2  C2       -17.1200    5.7930   33.9590 C.1   601  FMN601      0.3669
      3  O2       -17.3140    6.6750   34.8120 O.2   601  FMN601     -0.1744
      4  N3       -16.7190    4.5260   34.3370 N.2   601  FMN601     -0.2300
      5  C4       -16.4890    3.5320   33.3990 C.1   601  FMN601      0.2513
      6  O4       -16.0020    2.4740   33.7930 O.2   601  FMN601     -0.2057
      7  C4A      -16.6980    3.8160   32.0370 C.2   601  FMN601      0.2703
      8  N5       -16.5200    2.8560   31.0460 N.2   601  FMN601     -0.3882
      9  C5A      -16.7570    3.1960   29.7180 C.2   601  FMN601      0.1277
     10  C6       -16.5800    2.2430   28.7090 C.3   601  FMN601      0.0820
     11  C7       -16.8080    2.5670   27.3600 C.2   601  FMN601     -0.0408
     12  C7M      -16.7990    1.4510   26.3490 C.3   601  FMN601      0.0265
     13  C8       -17.2260    3.8500   27.0100 C.2   601  FMN601     -0.0280
     14  C8M      -17.3770    4.2710   25.5690 C.3   601  FMN601      0.0304
     15  C9       -17.4080    4.8010   28.0130 C.2   601  FMN601      0.0123
     16  C9A      -17.1770    4.4860   29.3650 C.2   601  FMN601      0.0793
     17  N10      -17.3500    5.4440   30.3620 N.pl3 601  FMN601     -0.2545
     18  C10      -17.1380    5.1030   31.6810 C.2   601  FMN601      0.2449
     19  C1'      -17.7970    6.8410   30.0490 C.3   601  FMN601      0.1336
     20  C2'      -16.6720    7.6970   29.4720 C.3   601  FMN601      0.2048
     21  O2'      -15.6470    7.9630   30.4270 O.3   601  FMN601     -0.2185
     22  C3'      -17.3570    8.9450   28.9100 C.3   601  FMN601      0.2165
     23  O3'      -18.0110    8.5570   27.7110 O.3   601  FMN601     -0.2175
     24  C4'      -16.4260   10.0970   28.5950 C.3   601  FMN601      0.2147
     25  O4'      -17.1960   11.2620   28.3300 O.3   601  FMN601     -0.2176
     26  C5'      -15.5610    9.8100   27.3740 C.3   601  FMN601      0.1892
     27  O5'      -14.5690   10.8160   27.2650 O.3   601  FMN601     -0.2674
     28  P        -14.0040   11.1750   25.8210 P.3   601  FMN601      0.5327
     29  O1P      -12.7260   11.9590   26.0640 O.3   601  FMN601     -0.1145
     30  O2P      -13.7410    9.8810   25.1060 O.3   601  FMN601     -0.1145
     31  O3P      -14.9970   12.0040   25.0240 O.2   601  FMN601     -0.2224
@<TRIPOS>BOND
     1    31    28    2
     2    30    28    1
     3    14    13    1
     4    28    29    1
     5    28    27    1
     6    12    11    1
     7    13    11    2
     8    13    15    1
     9    27    26    1
    10    11    10    1
    11    26    24    1
    12    23    22    1
    13    15    16    2
    14    25    24    1
    15    24    22    1
    16    10     9    1
    17    22    20    1
    18    16     9    1
    19    16    17    1
    20    20    19    1
    21    20    21    1
    22     9     8    2
    23    19    17    1
    24    17    18    1
    25     8     7    2
    26    18     7    1
    27    18     1    2
    28     7     5    1
    29     1     2    2
    30     5     6    2
    31     5     4    2
    32     2     4    2
    33     2     3    2
