@<TRIPOS>MOLECULE
2q9y_BTM_B_1.pdb
 14 14 0 0 0
SMALL
GASTEIGER

@<TRIPOS>ATOM
      1  N        -39.6830   -3.0680   15.8930 N.4   704  BTM704      0.3926
      2  C1       -40.5330   -2.4500   14.7200 C.3   704  BTM704     -0.0456
      3  C2       -40.5870   -3.5210   17.0960 C.3   704  BTM704     -0.0726
      4  C3       -41.2090   -4.9480   17.0920 C.3   704  BTM704     -0.0244
      5  C4       -38.7370   -1.9680   16.4410 C.3   704  BTM704     -0.0726
      6  C5       -39.3560   -0.6670   17.0100 C.3   704  BTM704     -0.0244
      7  C6       -38.7970   -4.2710   15.4800 C.3   704  BTM704     -0.0726
      8  C7       -37.8150   -4.0700   14.3130 C.3   704  BTM704     -0.0244
      9  C8       -41.6120   -3.2600   13.9910 C.ar  704  BTM704     -0.0426
     10  C9       -42.9290   -2.7120   13.8810 C.ar  704  BTM704     -0.0063
     11  C10      -43.9710   -3.4160   13.2280 C.ar  704  BTM704     -0.0004
     12  C11      -43.7150   -4.6900   12.6700 C.ar  704  BTM704     -0.0000
     13  C12      -42.4150   -5.2590   12.7620 C.ar  704  BTM704     -0.0004
     14  C13      -41.3790   -4.5510   13.4140 C.ar  704  BTM704     -0.0063
@<TRIPOS>BOND
     1    12    13   ar
     2    12    11   ar
     3    13    14   ar
     4    11    10   ar
     5    14     9   ar
     6    10     9   ar
     7     9     2    1
     8     8     7    1
     9     2     1    1
    10     7     1    1
    11     1     5    1
    12     1     3    1
    13     5     6    1
    14     4     3    1
