@<TRIPOS>MOLECULE
2qa3_PMP_A_1.pdb
 16 16 0 0 0
SMALL
GASTEIGER

@<TRIPOS>ATOM
      1  N1        26.3750    5.1280  -14.3290 N.ar  700  PMP700     -0.2452
      2  C2        25.9250    6.0780  -15.1440 C.ar  700  PMP700      0.0978
      3  C2A       26.5530    6.3150  -16.4470 C.3   700  PMP700      0.0555
      4  C3        24.9270    6.8940  -14.7340 C.ar  700  PMP700      0.2063
      5  O3        24.4830    7.9020  -15.4860 O.3   700  PMP700     -0.2856
      6  C4        24.3690    6.6520  -13.4810 C.ar  700  PMP700      0.0369
      7  C4A       23.2910    7.5750  -13.0160 C.3   700  PMP700      0.1386
      8  N4A       22.0620    6.9180  -13.1660 N.3   700  PMP700     -0.1261
      9  C5        24.8330    5.6100  -12.7060 C.ar  700  PMP700      0.0275
     10  C6        25.7810    4.8000  -13.2050 C.ar  700  PMP700      0.0965
     11  C5A       24.3500    5.3540  -11.2990 C.3   700  PMP700      0.1816
     12  O4P       23.0490    4.9700  -11.2220 O.3   700  PMP700     -0.2653
     13  P         22.3370    4.8640   -9.8330 P.3   700  PMP700      0.5329
     14  O1P       23.3090    4.6170   -8.7950 O.3   700  PMP700     -0.1145
     15  O2P       21.3840    3.8280   -9.9060 O.2   700  PMP700     -0.2224
     16  O3P       21.7380    6.0960   -9.5700 O.3   700  PMP700     -0.1145
@<TRIPOS>BOND
     1     3     2    1
     2     5     4    1
     3     2     4   ar
     4     2     1   ar
     5     4     6   ar
     6     1    10   ar
     7     6     7    1
     8     6     9   ar
     9    10     9   ar
    10     8     7    1
    11     9    11    1
    12    11    12    1
    13    12    13    1
    14    15    13    2
    15    13    16    1
    16    13    14    1
