@<TRIPOS>MOLECULE
2qa3_PSZ_A_1.pdb
 24 25 0 0 0
SMALL
GASTEIGER

@<TRIPOS>ATOM
      1  O1T       23.2230   13.7170  -13.8280 O.co2 600  PSZ600     -0.2400
      2  C3A       23.8270   12.6310  -13.9950 C.2   600  PSZ600      0.3937
      3  O2T       24.7440   12.2730  -14.7700 O.co2 600  PSZ600     -0.2400
      4  C2T       23.3570   11.5450  -13.0860 C.ar  600  PSZ600      0.1106
      5  S         22.1650   11.7830  -11.8460 S.2   600  PSZ600     -0.0785
      6  C5T       22.1050   10.1750  -11.2060 C.ar  600  PSZ600      0.0517
      7  C4T       23.0340    9.5180  -12.0050 C.ar  600  PSZ600      0.0729
      8  C3T       23.7250   10.1990  -13.0150 C.ar  600  PSZ600      0.0297
      9  N4A       23.2940    8.1030  -11.7880 N.pl3 600  PSZ600     -0.2322
     10  C4A       22.9800    7.3520  -13.0150 C.3   600  PSZ600      0.1416
     11  C4        24.2140    6.6180  -13.4850 C.ar  600  PSZ600      0.0394
     12  C3        24.7680    6.8250  -14.8420 C.ar  600  PSZ600      0.2065
     13  O3        24.1840    7.6880  -15.7190 O.3   600  PSZ600     -0.2856
     14  C2        25.9830    6.0560  -15.2100 C.ar  600  PSZ600      0.0978
     15  C2A       26.5920    6.2260  -16.5770 C.3   600  PSZ600      0.0555
     16  N1        26.5420    5.2110  -14.3300 N.ar  600  PSZ600     -0.2452
     17  C6        26.0590    5.0060  -13.0920 C.ar  600  PSZ600      0.0965
     18  C5        24.9250    5.6570  -12.6100 C.ar  600  PSZ600      0.0278
     19  C5A       24.4270    5.3860  -11.2090 C.3   600  PSZ600      0.1816
     20  O4P       23.0280    5.1150  -11.2460 O.3   600  PSZ600     -0.2653
     21  P         22.2010    4.8970   -9.8820 P.3   600  PSZ600      0.5329
     22  O3P       21.5160    6.2240   -9.6570 O.3   600  PSZ600     -0.1145
     23  O1P       23.2630    4.5630   -8.8620 O.3   600  PSZ600     -0.1145
     24  O2P       21.2630    3.7580  -10.2020 O.2   600  PSZ600     -0.2224
@<TRIPOS>BOND
     1    15    14    1
     2    13    12    1
     3    14    12   ar
     4    14    16   ar
     5    12    11   ar
     6     3     2   ar
     7    16    17   ar
     8     2     1   ar
     9     2     4    1
    10    11    10    1
    11    11    18   ar
    12    17    18   ar
    13     4     8   ar
    14     4     5   ar
    15     8     7   ar
    16    10     9    1
    17    18    19    1
    18     7     9    1
    19     7     6   ar
    20     5     6   ar
    21    20    19    1
    22    20    21    1
    23    24    21    2
    24    21    22    1
    25    21    23    1
