@<TRIPOS>MOLECULE
2qa5_GDP_A_1.pdb
 28 30 0 0 0
SMALL
GASTEIGER

@<TRIPOS>ATOM
      1  PB        53.0130   21.6180   60.1830 P.3   316  GDP316      0.5373
      2  O1B       53.7230   22.8290   60.6980 O.3   316  GDP316     -0.1143
      3  O2B       52.7370   20.6960   61.3310 O.3   316  GDP316     -0.1143
      4  O3B       51.7360   22.0330   59.4990 O.2   316  GDP316     -0.2221
      5  O3A       53.9980   20.8740   59.1830 O.3   316  GDP316     -0.2261
      6  PA        53.5190   20.5180   57.7060 P.3   316  GDP316      0.2231
      7  O1A       52.8260   19.1860   57.7620 O.3   316  GDP316     -0.4370
      8  O2A       52.6160   21.5990   57.1620 O.2   316  GDP316     -0.5169
      9  O5'       54.9090   20.4330   56.8960 O.3   316  GDP316     -0.3111
     10  C5'       55.8140   19.3960   57.2570 C.3   316  GDP316      0.1813
     11  C4'       57.1490   19.4710   56.5320 C.3   316  GDP316      0.1799
     12  O4'       58.0820   18.6080   57.1970 O.3   316  GDP316     -0.3326
     13  C3'       57.0150   18.9710   55.1080 C.3   316  GDP316      0.2158
     14  O3'       57.3090   20.0230   54.1930 O.3   316  GDP316     -0.2175
     15  C2'       58.0440   17.8790   54.9660 C.3   316  GDP316      0.2310
     16  O2'       59.1820   18.4100   54.3020 O.3   316  GDP316     -0.2158
     17  C1'       58.4500   17.5010   56.3750 C.3   316  GDP316      0.2293
     18  N9        57.7430   16.2630   56.8130 N.pl3 316  GDP316     -0.2354
     19  C8        56.4220   16.0240   56.7180 C.3   316  GDP316      0.2246
     20  N7        56.0910   14.8100   57.2080 N.2   316  GDP316     -0.2322
     21  C5        57.2250   14.2350   57.6250 C.2   316  GDP316      0.2182
     22  C6        57.5910   12.9440   58.2500 C.1   316  GDP316      0.2372
     23  O6        56.7190   12.0800   58.4990 O.2   316  GDP316     -0.2069
     24  N1        58.8830   12.7250   58.5330 N.2   316  GDP316     -0.2485
     25  C2        59.8360   13.6350   58.2740 C.1   316  GDP316      0.2531
     26  N2        61.1140   13.3290   58.5900 N.pl3 316  GDP316     -0.0226
     27  N3        59.5670   14.8370   57.7060 N.2   316  GDP316     -0.3074
     28  C4        58.3070   15.1900   57.3670 C.2   316  GDP316      0.2300
@<TRIPOS>BOND
     1    14    13    1
     2    16    15    1
     3    15    13    1
     4    15    17    1
     5    13    11    1
     6    17    18    1
     7    17    12    1
     8    11    12    1
     9    11    10    1
    10    19    18    1
    11    19    20    1
    12    18    28    1
    13     9    10    1
    14     9     6    1
    15     8     6    2
    16    20    21    2
    17    28    21    1
    18    28    27    2
    19    21    22    1
    20     6     7    1
    21     6     5    1
    22    27    25    2
    23    22    23    2
    24    22    24    2
    25    25    24    2
    26    25    26    1
    27     5     1    1
    28     4     1    2
    29     1     2    1
    30     1     3    1
