@<TRIPOS>MOLECULE
2qa6_KN2_A_1.pdb
 18 20 0 0 0
SMALL
GASTEIGER

@<TRIPOS>ATOM
      1  OAC      -26.2920    5.0330   -7.7710 O.3     1  KN21       -0.2864
      2  CAN      -25.8340    4.9170   -6.4880 C.ar    1  KN21        0.2004
      3  CAH      -26.7860    5.1340   -5.4880 C.ar    1  KN21        0.0841
      4  CAL      -26.4400    5.0330   -4.1520 C.ar    1  KN21        0.1989
      5  OAA      -27.3840    5.2590   -3.1830 O.3     1  KN21       -0.2865
      6  CAD      -25.1240    4.7260   -3.8240 C.ar    1  KN21        0.0423
      7  CAE      -24.1540    4.4890   -4.8060 C.ar    1  KN21        0.0080
      8  CAO      -24.4970    4.5680   -6.1610 C.ar    1  KN21        0.0586
      9  CAP      -23.5680    4.3630   -7.1700 C.2     1  KN21        0.1071
     10  CAR      -22.1710    4.3120   -7.0960 C.2     1  KN21        0.0352
     11  CAG      -21.1920    4.3730   -6.1180 C.2     1  KN21       -0.0149
     12  CAF      -19.8410    4.2790   -6.4370 C.3     1  KN21        0.0953
     13  CAM      -19.4500    4.0970   -7.7680 C.2     1  KN21        0.1791
     14  OAB      -18.1290    3.9700   -8.1090 O.2     1  KN21       -0.2909
     15  CAI      -20.4060    4.0350   -8.7650 C.2     1  KN21        0.0587
     16  CAQ      -21.7530    4.1500   -8.4210 C.2     1  KN21        0.1069
     17  N1K      -22.8560    4.1030   -9.1710 N.2     1  KN21       -0.1479
     18  N1J      -23.8690    4.2350   -8.4600 N.2     1  KN21       -0.1479
@<TRIPOS>BOND
     1    17    18    1
     2    17    16    2
     3    15    16    1
     4    15    13    2
     5    18     9    2
     6    16    10    1
     7    14    13    1
     8     1     2    1
     9    13    12    1
    10     9    10    1
    11     9     8    1
    12    10    11    2
    13     2     8   ar
    14     2     3   ar
    15    12    11    1
    16     8     7   ar
    17     3     4   ar
    18     7     6   ar
    19     4     6   ar
    20     4     5    1
