@<TRIPOS>MOLECULE
2qa8_GEN_A_1.pdb
 20 22 0 0 0
SMALL
GASTEIGER

@<TRIPOS>ATOM
      1  C1        -8.5280   -3.6930   17.7920 C.ar  600  GEN600      0.0798
      2  C2        -8.4120   -4.3850   16.5910 C.ar  600  GEN600      0.2020
      3  O2        -9.3680   -4.2620   15.6460 O.3   600  GEN600     -0.2864
      4  C3        -7.3170   -5.2000   16.3650 C.ar  600  GEN600      0.0843
      5  C4        -6.3310   -5.3220   17.3440 C.ar  600  GEN600      0.2049
      6  O4        -5.2580   -6.1090   17.1170 O.3   600  GEN600     -0.2862
      7  C5        -6.4390   -4.6460   18.5570 C.ar  600  GEN600      0.1126
      8  C6        -5.3890   -4.7740   19.6300 C.ar  600  GEN600      0.2047
      9  O6        -4.3930   -5.5010   19.4830 O.2   600  GEN600     -0.2862
     10  C7        -5.5870   -4.0280   20.9010 C.ar  600  GEN600      0.0767
     11  C8        -6.7250   -3.2250   21.0020 C.ar  600  GEN600      0.1826
     12  O9        -7.6910   -3.1470   19.9650 O.2   600  GEN600     -0.4500
     13  C10       -7.5470   -3.8240   18.7750 C.ar  600  GEN600      0.1548
     14  C11       -4.6380   -3.9970   22.0520 C.ar  600  GEN600      0.0064
     15  C12       -5.1520   -3.7590   23.3200 C.ar  600  GEN600      0.0035
     16  C13       -4.3230   -3.6590   24.4040 C.ar  600  GEN600      0.0420
     17  C14       -2.9410   -3.7540   24.2590 C.ar  600  GEN600      0.1957
     18  O14       -2.1640   -3.6250   25.3760 O.3   600  GEN600     -0.2866
     19  C15       -2.4000   -3.9470   22.9830 C.ar  600  GEN600      0.0420
     20  C16       -3.2470   -4.0470   21.8820 C.ar  600  GEN600      0.0035
@<TRIPOS>BOND
     1     3     2    1
     2     4     2   ar
     3     4     5   ar
     4     2     1   ar
     5     6     5    1
     6     5     7   ar
     7     1    13   ar
     8     7    13   ar
     9     7     8   ar
    10    13    12   ar
    11     9     8    2
    12     8    10   ar
    13    12    11   ar
    14    10    11   ar
    15    10    14    1
    16    20    14   ar
    17    20    19   ar
    18    14    15   ar
    19    19    17   ar
    20    15    16   ar
    21    17    16   ar
    22    17    18    1
