@<TRIPOS>MOLECULE
2qa9_III_I_1.pdb
 34 34 0 0 0
SMALL
GASTEIGER

@<TRIPOS>ATOM
      1  N         -5.2000  -13.4150  -34.7980 N.3     1  ASP1       -0.1225
      2  CA        -4.4820  -13.2320  -33.5000 C.3     1  ASP1        0.1805
      3  C         -2.9560  -13.4610  -33.5720 C.2     1  ASP1        0.2598
      4  O         -2.4620  -14.1870  -34.4570 O.2     1  ASP1       -0.2718
      5  CB        -4.9950  -14.2410  -32.5130 C.3     1  ASP1        0.1424
      6  CG        -6.4720  -14.1150  -32.3580 C.2     1  ASP1        0.3668
      7  OD1       -6.9090  -13.0410  -31.8880 O.co2   1  ASP1       -0.2456
      8  OD2       -7.2080  -15.0460  -32.7380 O.co2   1  ASP1       -0.2456
      9  N         -2.2810  -12.7510  -32.6840 N.am    2  ALA2       -0.1966
     10  CA        -0.8110  -12.6010  -32.6650 C.3     2  ALA2        0.1728
     11  C         -0.3440  -12.8100  -31.2500 C.2     2  ALA2        0.2616
     12  O         -0.9730  -12.3920  -30.2680 O.2     2  ALA2       -0.2715
     13  CB        -0.4170  -11.2160  -33.0470 C.3     2  ALA2        0.0334
     14  N          0.8380  -13.3790  -31.1030 N.am    3  ILE3       -0.1963
     15  CA         1.3880  -13.5430  -29.7130 C.3     3  ILE3        0.1727
     16  C          1.8160  -12.1530  -29.3080 C.2     3  ILE3        0.2617
     17  O          2.2040  -11.2850  -30.0520 O.2     3  ILE3       -0.2715
     18  CB         2.6900  -14.5120  -29.8160 C.3     3  ILE3        0.0290
     19  CG1        3.7670  -13.8950  -30.6730 C.3     3  ILE3        0.0022
     20  CG2        2.3720  -15.8600  -30.1690 C.3     3  ILE3        0.0023
     21  CD1        5.1280  -14.3800  -30.2280 C.3     3  ILE3        0.0001
     22  N          1.7290  -11.9700  -27.9930 N.am    4  TYR4       -0.1938
     23  CA         2.3320  -10.7810  -27.3170 C.3     4  TYR4        0.2021
     24  C          3.6150  -11.1090  -26.6040 C.2     4  TYR4        0.3845
     25  O          4.0240  -10.2130  -25.7260 O.co2   4  TYR4       -0.2437
     26  CB         1.1940  -10.2400  -26.3870 C.3     4  TYR4        0.0596
     27  CG        -0.0180   -9.6950  -27.0900 C.ar    4  TYR4       -0.0197
     28  CD1        0.0660   -9.0460  -28.2840 C.ar    4  TYR4       -0.0009
     29  CD2       -1.3030   -9.8550  -26.5210 C.ar    4  TYR4       -0.0009
     30  CE1       -1.0850   -8.4940  -28.8970 C.ar    4  TYR4        0.0417
     31  CE2       -2.4440   -9.3300  -27.0880 C.ar    4  TYR4        0.0417
     32  CZ        -2.3520   -8.6730  -28.3230 C.ar    4  TYR4        0.1957
     33  OH        -3.3810   -7.9990  -29.0380 O.3     4  TYR4       -0.2866
     34  OXT        4.4040  -12.0450  -27.0420 O.co2   4  TYR4       -0.2437
@<TRIPOS>BOND
     1     1     2    1
     2     4     3    2
     3     3     2    1
     4     3     9   am
     5     2     5    1
     6    13    10    1
     7     8     6   ar
     8     9    10    1
     9    10    11    1
    10     5     6    1
    11     6     7   ar
    12    11    14   am
    13    11    12    2
    14    14    15    1
    15    19    21    1
    16    19    18    1
    17    20    18    1
    18    17    16    2
    19    18    15    1
    20    15    16    1
    21    16    22   am
    22    33    32    1
    23    30    32   ar
    24    30    28   ar
    25    32    31   ar
    26    28    27   ar
    27    22    23    1
    28    23    24    1
    29    23    26    1
    30    27    29   ar
    31    27    26    1
    32    31    29   ar
    33    34    24   ar
    34    24    25   ar
