@<TRIPOS>MOLECULE
2qaa_TYR_A_1.pdb
 13 13 0 0 0
SMALL
GASTEIGER

@<TRIPOS>ATOM
      1  N         29.5160   -1.9420   53.5690 N.3     1  TYR1       -0.1242
      2  CA        28.7410   -1.5250   54.7050 C.3     1  TYR1        0.1878
      3  C         27.7080   -2.6070   55.0820 C.3     1  TYR1        0.4432
      4  O         27.2730   -2.7510   56.4120 O.2     1  TYR1       -0.2654
      5  CB        28.0230   -0.2000   54.3330 C.3     1  TYR1        0.0535
      6  CG        29.0140    0.9050   54.1510 C.ar    1  TYR1       -0.0203
      7  CD1       30.1940    0.8550   54.6960 C.ar    1  TYR1       -0.0009
      8  CD2       28.6360    2.0640   53.5190 C.ar    1  TYR1       -0.0009
      9  CE1       31.0790    1.9380   54.4780 C.ar    1  TYR1        0.0417
     10  CE2       29.4990    3.1530   53.2810 C.ar    1  TYR1        0.0417
     11  CZ        30.7020    3.1650   53.7560 C.ar    1  TYR1        0.1957
     12  OH        31.7160    4.2070   53.7090 O.3     1  TYR1       -0.2866
     13  OXT       27.9000   -4.0020   54.6690 O.2     1  TYR1       -0.2654
@<TRIPOS>BOND
     1    10     8   ar
     2    10    11   ar
     3     8     6   ar
     4     1     2    1
     5    12    11    1
     6    11     9   ar
     7     6     5    1
     8     6     7   ar
     9     5     2    1
    10     9     7   ar
    11    13     3    1
    12     2     3    1
    13     3     4    1
