@<TRIPOS>MOLECULE
2qab_EI1_A_1.pdb
 19 21 0 0 0
SMALL
GASTEIGER

@<TRIPOS>ATOM
      1  CAA       15.3240    0.8430   34.5750 C.3     1  EI11        0.0067
      2  CAK       15.1980    2.1720   35.3160 C.3     1  EI11        0.0459
      3  CAP       15.1070    3.3500   34.3300 C.ar    1  EI11        0.0620
      4  CAR       16.1660    3.8440   33.5910 C.ar    1  EI11        0.0361
      5  CAJ       17.5110    3.4980   33.4980 C.ar    1  EI11        0.0448
      6  CAN       18.3480    4.2070   32.6390 C.ar    1  EI11        0.1959
      7  OAC       19.6660    3.8570   32.5510 O.3     1  EI11       -0.2866
      8  CAH       17.8290    5.2630   31.8800 C.ar    1  EI11        0.0436
      9  CAI       16.4760    5.6110   31.9830 C.ar    1  EI11        0.0242
     10  CAQ       15.6460    4.8940   32.8480 C.ar    1  EI11        0.1026
     11  NAL       14.3490    4.9780   33.1580 N.ar    1  EI11       -0.1654
     12  NAS       14.0450    4.1080   33.9950 N.ar    1  EI11       -0.2340
     13  CAO       12.7900    3.9930   34.4760 C.2     1  EI11        0.0787
     14  CAF       12.5310    3.8120   35.8380 C.2     1  EI11        0.0012
     15  CAD       11.2170    3.7090   36.2970 C.3     1  EI11        0.0966
     16  CAM       10.1570    3.7990   35.3920 C.2     1  EI11        0.1776
     17  OAB        8.9890    3.7140   35.7670 O.2     1  EI11       -0.2910
     18  CAE       10.4160    3.9940   34.0430 C.2     1  EI11        0.0393
     19  CAG       11.7190    4.1010   33.5880 C.2     1  EI11        0.0218
@<TRIPOS>BOND
     1     8     9   ar
     2     8     6   ar
     3     9    10   ar
     4     7     6    1
     5     6     5   ar
     6    10    11   ar
     7    10     4   ar
     8    11    12   ar
     9     5     4   ar
    10    19    18    2
    11    19    13    1
    12     4     3   ar
    13    12     3   ar
    14    12    13    1
    15    18    16    1
    16     3     2    1
    17    13    14    2
    18     1     2    1
    19    16    17    2
    20    16    15    1
    21    14    15    1
