@<TRIPOS>MOLECULE
2qaf_U5P_A_1.pdb
 21 22 0 0 0
SMALL
GASTEIGER

@<TRIPOS>ATOM
      1  N1         8.3730  -17.0750  -22.0270 N.am  3000  U5P3000    -0.1766
      2  C2         7.2660  -16.4750  -22.4940 C.1   3000  U5P3000     0.2845
      3  N3         6.3660  -17.1410  -23.2690 N.2   3000  U5P3000    -0.2452
      4  C4         6.5310  -18.4500  -23.5770 C.1   3000  U5P3000     0.2182
      5  C5         7.6600  -19.1030  -23.1140 C.2   3000  U5P3000     0.1242
      6  C6         8.5630  -18.3650  -22.3390 C.2   3000  U5P3000     0.0929
      7  O2         7.0700  -15.2580  -22.2690 O.2   3000  U5P3000    -0.1918
      8  O4         5.6830  -19.0960  -24.2320 O.2   3000  U5P3000    -0.2085
      9  C1'        9.3400  -16.3720  -21.1510 C.3   3000  U5P3000     0.2401
     10  C2'       10.0020  -15.0680  -21.5950 C.3   3000  U5P3000     0.2319
     11  O2'       11.3110  -15.4050  -22.0810 O.3   3000  U5P3000    -0.2157
     12  C3'       10.0560  -14.2640  -20.3020 C.3   3000  U5P3000     0.2158
     13  C4'        8.7890  -14.6840  -19.5620 C.3   3000  U5P3000     0.1801
     14  O3'       11.1170  -14.8070  -19.4800 O.3   3000  U5P3000    -0.2175
     15  O4'        8.5110  -16.0040  -20.0410 O.3   3000  U5P3000    -0.3320
     16  C5'        7.6150  -13.7040  -19.7480 C.3   3000  U5P3000     0.1859
     17  O5'        7.9010  -12.5000  -19.0360 O.3   3000  U5P3000    -0.2675
     18  P          7.1020  -11.1130  -19.2220 P.3   3000  U5P3000     0.5327
     19  O1P        8.1680  -10.0960  -18.9410 O.3   3000  U5P3000    -0.1145
     20  O2P        6.4720  -11.0350  -20.5940 O.2   3000  U5P3000    -0.2224
     21  O3P        6.0480  -11.2030  -18.1550 O.3   3000  U5P3000    -0.1145
@<TRIPOS>BOND
     1     8     4    2
     2     4     3    2
     3     4     5    1
     4     3     2    2
     5     5     6    2
     6     2     7    2
     7     2     1   am
     8     6     1    1
     9    11    10    1
    10     1     9    1
    11    10     9    1
    12    10    12    1
    13     9    15    1
    14    20    18    2
    15    12    13    1
    16    12    14    1
    17    15    13    1
    18    16    13    1
    19    16    17    1
    20    18    17    1
    21    18    19    1
    22    18    21    1
