@<TRIPOS>MOLECULE
2qag_GTP_B_1.pdb
 32 34 0 0 0
SMALL
GASTEIGER

@<TRIPOS>ATOM
      1  PG        76.2720   78.1740   -9.9690 P.3   428  GTP428      0.5373
      2  O1G       75.6350   77.9010  -11.3110 O.2   428  GTP428     -0.2221
      3  O2G       75.3260   78.9790   -9.1110 O.3   428  GTP428     -0.1143
      4  O3G       77.5590   78.9400  -10.1640 O.3   428  GTP428     -0.1143
      5  O3B       76.5830   76.7640   -9.2580 O.3   428  GTP428     -0.2258
      6  PB        75.4360   75.6400   -9.1360 P.3   428  GTP428      0.2277
      7  O1B       74.6350   75.8650   -7.8770 O.3   428  GTP428     -0.4368
      8  O2B       74.5450   75.6410  -10.3560 O.2   428  GTP428     -0.5168
      9  O3A       76.2540   74.2580   -9.0190 O.3   428  GTP428     -0.2700
     10  PA        76.4940   73.3380  -10.3180 P.3   428  GTP428      0.2189
     11  O1A       75.5450   72.1640  -10.2920 O.3   428  GTP428     -0.4371
     12  O2A       76.3320   74.1400  -11.5880 O.2   428  GTP428     -0.5170
     13  O5'       78.0080   72.8160  -10.1540 O.3   428  GTP428     -0.3112
     14  C5'       78.3820   72.0500   -9.0310 C.3   428  GTP428      0.1813
     15  C4'       79.4980   71.0880   -9.4220 C.3   428  GTP428      0.1799
     16  O4'       80.1920   70.6740   -8.2600 O.3   428  GTP428     -0.3326
     17  C3'       78.9360   69.8470  -10.1010 C.3   428  GTP428      0.2158
     18  O3'       79.5040   69.7160  -11.3850 O.3   428  GTP428     -0.2175
     19  C2'       79.3600   68.6730   -9.2380 C.3   428  GTP428      0.2310
     20  O2'       80.1900   67.8150   -9.9870 O.3   428  GTP428     -0.2158
     21  C1'       80.1550   69.2700   -8.0850 C.3   428  GTP428      0.2293
     22  N9        79.4860   68.9510   -6.8090 N.pl3 428  GTP428     -0.2354
     23  C8        78.2870   69.4520   -6.3770 C.3   428  GTP428      0.2246
     24  N7        78.0110   68.9230   -5.1630 N.2   428  GTP428     -0.2322
     25  C5        79.0180   68.0910   -4.8140 C.2   428  GTP428      0.2182
     26  C6        79.2340   67.3050   -3.6900 C.1   428  GTP428      0.2372
     27  O6        78.4110   67.2930   -2.7760 O.2   428  GTP428     -0.2069
     28  N1        80.3780   66.5390   -3.6040 N.2   428  GTP428     -0.2485
     29  C2        81.2970   66.5590   -4.6330 C.1   428  GTP428      0.2531
     30  N2        82.4010   65.8210   -4.5510 N.pl3 428  GTP428     -0.0226
     31  N3        81.0750   67.3430   -5.7480 N.2   428  GTP428     -0.3074
     32  C4        79.9530   68.0980   -5.8400 C.2   428  GTP428      0.2300
@<TRIPOS>BOND
     1    12    10    2
     2    18    17    1
     3     2     1    2
     4     8     6    2
     5    10    11    1
     6    10    13    1
     7    10     9    1
     8     4     1    1
     9    13    14    1
    10    17    15    1
    11    17    19    1
    12    20    19    1
    13     1     5    1
    14     1     3    1
    15    15    14    1
    16    15    16    1
    17     5     6    1
    18    19    21    1
    19     6     9    1
    20     6     7    1
    21    16    21    1
    22    21    22    1
    23    22    23    1
    24    22    32    1
    25    23    24    1
    26    32    31    2
    27    32    25    1
    28    31    29    2
    29    24    25    2
    30    25    26    1
    31    29    30    1
    32    29    28    2
    33    26    28    2
    34    26    27    2
