@<TRIPOS>MOLECULE
2qag_GDP_A_1.pdb
 28 30 0 0 0
SMALL
GASTEIGER

@<TRIPOS>ATOM
      1  PB        92.3690   76.4150    8.6620 P.3   362  GDP362      0.5373
      2  O1B       92.5190   77.3760    9.8170 O.3   362  GDP362     -0.1143
      3  O2B       92.0180   77.1830    7.4100 O.2   362  GDP362     -0.2221
      4  O3B       93.6680   75.6760    8.4510 O.3   362  GDP362     -0.1143
      5  O3A       91.1980   75.3600    8.9910 O.3   362  GDP362     -0.2261
      6  PA        91.4180   74.2150   10.1010 P.3   362  GDP362      0.2231
      7  O1A       92.7130   73.4780    9.8550 O.2   362  GDP362     -0.5169
      8  O2A       91.3990   74.8110   11.4890 O.3   362  GDP362     -0.4370
      9  O5'       90.1590   73.2340    9.8890 O.3   362  GDP362     -0.3111
     10  C5'       90.2580   72.1070    9.0200 C.3   362  GDP362      0.1813
     11  C4'       89.0730   71.1790    9.2560 C.3   362  GDP362      0.1799
     12  O4'       88.5480   70.7470    7.9970 O.3   362  GDP362     -0.3326
     13  C3'       89.4960   69.9400   10.0330 C.3   362  GDP362      0.2158
     14  O3'       88.7270   69.8460   11.2370 O.3   362  GDP362     -0.2175
     15  C2'       89.1860   68.7520    9.1410 C.3   362  GDP362      0.2310
     16  O2'       88.2220   67.9110    9.7830 O.3   362  GDP362     -0.2158
     17  C1'       88.5890   69.3240    7.8620 C.3   362  GDP362      0.2293
     18  N9        89.4500   68.9600    6.7080 N.pl3 362  GDP362     -0.2354
     19  C8        90.5510   69.6240    6.3080 C.3   362  GDP362      0.2246
     20  N7        91.1110   69.0330    5.2210 N.2   362  GDP362     -0.2322
     21  C5        90.3560   67.9640    4.9080 C.2   362  GDP362      0.2182
     22  C6        90.3800   66.9040    3.8730 C.1   362  GDP362      0.2372
     23  O6        91.2780   66.8750    3.0030 O.2   362  GDP362     -0.2069
     24  N1        89.4130   65.9790    3.8970 N.2   362  GDP362     -0.2485
     25  C2        88.4330   65.9860    4.8220 C.1   362  GDP362      0.2531
     26  N2        87.4920   65.0120    4.7760 N.pl3 362  GDP362     -0.0226
     27  N3        88.3480   66.9260    5.7990 N.2   362  GDP362     -0.3074
     28  C4        89.2620   67.9200    5.8910 C.2   362  GDP362      0.2300
@<TRIPOS>BOND
     1    23    22    2
     2    22    24    2
     3    22    21    1
     4    24    25    2
     5    26    25    1
     6    25    27    2
     7    21    20    2
     8    21    28    1
     9    20    19    1
    10    27    28    2
    11    28    18    1
    12    19    18    1
    13    18    17    1
    14     3     1    2
    15    17    12    1
    16    17    15    1
    17    12    11    1
    18     4     1    1
    19     1     5    1
    20     1     2    1
    21     5     6    1
    22    10    11    1
    23    10     9    1
    24    15    16    1
    25    15    13    1
    26    11    13    1
    27     7     6    2
    28     9     6    1
    29    13    14    1
    30     6     8    1
