@<TRIPOS>MOLECULE
2qak_1UN_A_1.pdb
 40 43 0 0 0
SMALL
GASTEIGER

@<TRIPOS>ATOM
      1  C1       -12.9830   58.2140    4.1860 C.3   1001  1UN1001     0.0161
      2  C2       -13.5340   58.5820    5.5660 C.3   1001  1UN1001     0.0032
      3  C3       -14.6410   59.6420    5.5050 C.3   1001  1UN1001     0.0001
      4  C4       -15.6750   59.4170    4.3960 C.3   1001  1UN1001     0.0000
      5  C5       -15.0340   59.0110    3.0690 C.3   1001  1UN1001     0.0000
      6  C6       -14.1180   57.7990    3.2490 C.3   1001  1UN1001     0.0014
      7  N7       -12.3100   56.0060    5.1020 N.3   1001  1UN1001    -0.2643
      8  C8       -12.8230   56.3680    6.4330 C.3   1001  1UN1001     0.1365
      9  C9       -14.0090   57.3220    6.2790 C.3   1001  1UN1001     0.0254
     10  C10      -11.8850   57.1520    4.2850 C.3   1001  1UN1001     0.0725
     11  C11      -13.3190   55.1760    7.1780 C.2   1001  1UN1001     0.2558
     12  N12      -12.9440   55.0550    8.4660 N.am  1001  1UN1001    -0.2077
     13  C13      -13.4350   53.9960    9.3620 C.3   1001  1UN1001     0.0788
     14  C14      -12.9990   52.6250    8.8490 C.3   1001  1UN1001     0.0217
     15  C15      -14.9580   54.0180    9.4650 C.3   1001  1UN1001     0.0217
     16  C16      -12.8530   54.2090   10.7550 C.3   1001  1UN1001     0.0217
     17  O17      -14.0520   54.4080    6.5760 O.2   1001  1UN1001    -0.2719
     18  C18      -11.3960   54.8780    5.2460 C.3   1001  1UN1001     0.1075
     19  C19      -11.2790   54.2230    3.8680 C.3   1001  1UN1001     0.1885
     20  C20      -12.3220   53.1500    3.6260 C.3   1001  1UN1001     0.1383
     21  O21      -10.0030   53.6300    3.6640 O.3   1001  1UN1001    -0.2198
     22  N22      -12.2460   52.8620    2.2140 N.am  1001  1UN1001    -0.1999
     23  C23      -12.0840   51.8930    4.4510 C.3   1001  1UN1001     0.0864
     24  C24      -13.3030   52.9650    1.4170 C.2   1001  1UN1001     0.2646
     25  O25      -14.3620   53.4600    1.7690 O.2   1001  1UN1001    -0.2684
     26  C29      -13.1140   52.4470    0.0260 C.ar  1001  1UN1001     0.0542
     27  C30      -13.0660   51.0730   -0.2490 C.ar  1001  1UN1001     0.0045
     28  C31      -12.8600   50.6170   -1.5530 C.ar  1001  1UN1001     0.0034
     29  C32      -12.7090   51.5140   -2.6170 C.ar  1001  1UN1001     0.0417
     30  C33      -12.7440   52.8950   -2.4200 C.ar  1001  1UN1001     0.1919
     31  C34      -12.9520   53.4280   -1.0610 C.ar  1001  1UN1001     0.0215
     32  O38      -12.5970   53.7430   -3.4260 O.3   1001  1UN1001    -0.2869
     33  C39      -13.0030   54.9140   -0.7810 C.3   1001  1UN1001     0.0345
     34  S74      -13.5600   50.9390    4.6990 S.3   1001  1UN1001    -0.1118
     35  C77      -13.5100   49.7810    3.4510 C.ar  1001  1UN1001     0.0253
     36  C78      -14.6940   49.2840    2.9010 C.ar  1001  1UN1001     0.0061
     37  C79      -14.6820   48.3300    1.8800 C.ar  1001  1UN1001     0.0005
     38  C80      -13.4620   47.8690    1.3950 C.ar  1001  1UN1001     0.0000
     39  C81      -12.2690   48.3580    1.9300 C.ar  1001  1UN1001     0.0005
     40  C82      -12.2990   49.3140    2.9500 C.ar  1001  1UN1001     0.0061
@<TRIPOS>BOND
     1    32    30    1
     2    29    30   ar
     3    29    28   ar
     4    30    31   ar
     5    28    27   ar
     6    31    33    1
     7    31    26   ar
     8    27    26   ar
     9    26    24    1
    10    38    37   ar
    11    38    39   ar
    12    24    25    2
    13    24    22   am
    14    37    36   ar
    15    39    40   ar
    16    22    20    1
    17    36    35   ar
    18    40    35   ar
    19     5     6    1
    20     5     4    1
    21     6     1    1
    22    35    34    1
    23    20    19    1
    24    20    23    1
    25    21    19    1
    26    19    18    1
    27     1    10    1
    28     1     2    1
    29    10     7    1
    30     4     3    1
    31    23    34    1
    32     7    18    1
    33     7     8    1
    34     3     2    1
    35     2     9    1
    36     9     8    1
    37     8    11    1
    38    17    11    2
    39    11    12   am
    40    12    13    1
    41    14    13    1
    42    13    15    1
    43    13    16    1
