@<TRIPOS>MOLECULE
2qb2_PSZ_A_1.pdb
 24 25 0 0 0
SMALL
GASTEIGER

@<TRIPOS>ATOM
      1  O1T       23.0620   13.7010  -13.8490 O.co2 600  PSZ600     -0.2400
      2  C3A       23.7160   12.6450  -14.0140 C.2   600  PSZ600      0.3937
      3  O2T       24.6470   12.3280  -14.7900 O.co2 600  PSZ600     -0.2400
      4  C2T       23.3010   11.5400  -13.1010 C.ar  600  PSZ600      0.1106
      5  S         22.1700   11.7960  -11.8070 S.2   600  PSZ600     -0.0785
      6  C5T       22.1210   10.1910  -11.1590 C.ar  600  PSZ600      0.0517
      7  C4T       23.0050    9.5210  -11.9980 C.ar  600  PSZ600      0.0729
      8  C3T       23.6560   10.1910  -13.0420 C.ar  600  PSZ600      0.0297
      9  N4A       23.2560    8.1030  -11.7890 N.pl3 600  PSZ600     -0.2322
     10  C4A       22.9620    7.3630  -13.0260 C.3   600  PSZ600      0.1416
     11  C4        24.2020    6.6320  -13.4850 C.ar  600  PSZ600      0.0394
     12  C3        24.7550    6.8230  -14.8440 C.ar  600  PSZ600      0.2065
     13  O3        24.1650    7.6660  -15.7350 O.3   600  PSZ600     -0.2856
     14  C2        25.9780    6.0590  -15.1990 C.ar  600  PSZ600      0.0978
     15  C2A       26.5860    6.2120  -16.5680 C.3   600  PSZ600      0.0555
     16  N1        26.5430    5.2320  -14.3050 N.ar  600  PSZ600     -0.2452
     17  C6        26.0600    5.0430  -13.0640 C.ar  600  PSZ600      0.0965
     18  C5        24.9210    5.6910  -12.5930 C.ar  600  PSZ600      0.0278
     19  C5A       24.4240    5.4380  -11.1890 C.3   600  PSZ600      0.1816
     20  O4P       23.0510    5.0570  -11.2320 O.3   600  PSZ600     -0.2653
     21  P         22.2170    4.8480   -9.8700 P.3   600  PSZ600      0.5329
     22  O3P       21.5440    6.1810   -9.6480 O.3   600  PSZ600     -0.1145
     23  O1P       23.2730    4.5050   -8.8470 O.3   600  PSZ600     -0.1145
     24  O2P       21.2700    3.7170  -10.1930 O.2   600  PSZ600     -0.2224
@<TRIPOS>BOND
     1    15    14    1
     2    13    12    1
     3    14    12   ar
     4    14    16   ar
     5    12    11   ar
     6     3     2   ar
     7    16    17   ar
     8     2     1   ar
     9     2     4    1
    10    11    10    1
    11    11    18   ar
    12     4     8   ar
    13     4     5   ar
    14    17    18   ar
    15     8     7   ar
    16    10     9    1
    17    18    19    1
    18     7     9    1
    19     7     6   ar
    20     5     6   ar
    21    20    19    1
    22    20    21    1
    23    24    21    2
    24    21    22    1
    25    21    23    1
