@<TRIPOS>MOLECULE
2qb2_PMP_A_1.pdb
 16 16 0 0 0
SMALL
GASTEIGER

@<TRIPOS>ATOM
      1  N1        26.3210    5.0940  -14.3240 N.ar  700  PMP700     -0.2452
      2  C2        25.9420    6.1020  -15.1050 C.ar  700  PMP700      0.0978
      3  C2A       26.5780    6.3470  -16.4140 C.3   700  PMP700      0.0555
      4  C3        24.9020    6.9080  -14.7220 C.ar  700  PMP700      0.2063
      5  O3        24.5410    7.8890  -15.5470 O.3   700  PMP700     -0.2856
      6  C4        24.2900    6.6780  -13.4780 C.ar  700  PMP700      0.0369
      7  C4A       23.0930    7.4730  -13.0210 C.3   700  PMP700      0.1386
      8  N4A       21.9640    6.6240  -13.2130 N.3   700  PMP700     -0.1261
      9  C5        24.7940    5.6830  -12.6660 C.ar  700  PMP700      0.0275
     10  C6        25.7590    4.8610  -13.1530 C.ar  700  PMP700      0.0965
     11  C5A       24.3430    5.4390  -11.2540 C.3   700  PMP700      0.1816
     12  O4P       23.0850    4.9140  -11.2290 O.3   700  PMP700     -0.2653
     13  P         22.3680    4.8260   -9.8360 P.3   700  PMP700      0.5329
     14  O1P       23.3340    4.5920   -8.7720 O.3   700  PMP700     -0.1145
     15  O2P       21.3690    3.7870   -9.9000 O.2   700  PMP700     -0.2224
     16  O3P       21.7990    6.0810   -9.5890 O.3   700  PMP700     -0.1145
@<TRIPOS>BOND
     1     3     2    1
     2     5     4    1
     3     2     4   ar
     4     2     1   ar
     5     4     6   ar
     6     1    10   ar
     7     6     7    1
     8     6     9   ar
     9     8     7    1
    10    10     9   ar
    11     9    11    1
    12    11    12    1
    13    12    13    1
    14    15    13    2
    15    13    16    1
    16    13    14    1
