@<TRIPOS>MOLECULE
2qb3_PMP_A_1.pdb
 16 16 0 0 0
SMALL
GASTEIGER

@<TRIPOS>ATOM
      1  N1        26.3460    5.1150  -14.3740 N.ar  700  PMP700     -0.2452
      2  C2        25.9100    6.0910  -15.1250 C.ar  700  PMP700      0.0978
      3  C2A       26.5530    6.2830  -16.4380 C.3   700  PMP700      0.0555
      4  C3        24.9180    6.9100  -14.7340 C.ar  700  PMP700      0.2063
      5  O3        24.5420    7.9120  -15.5260 O.3   700  PMP700     -0.2856
      6  C4        24.3460    6.6930  -13.4880 C.ar  700  PMP700      0.0369
      7  C4A       23.2710    7.6230  -12.9820 C.3   700  PMP700      0.1386
      8  N4A       22.0610    6.9310  -13.1930 N.3   700  PMP700     -0.1261
      9  C5        24.8060    5.6670  -12.7030 C.ar  700  PMP700      0.0275
     10  C6        25.7840    4.8560  -13.2010 C.ar  700  PMP700      0.0965
     11  C5A       24.3370    5.4570  -11.2820 C.3   700  PMP700      0.1816
     12  O4P       23.0820    4.8860  -11.2050 O.3   700  PMP700     -0.2653
     13  P         22.2920    4.8510   -9.8280 P.3   700  PMP700      0.5329
     14  O1P       23.2920    4.6130   -8.7900 O.3   700  PMP700     -0.1145
     15  O2P       21.3060    3.8090   -9.9040 O.2   700  PMP700     -0.2224
     16  O3P       21.7260    6.1370   -9.5740 O.3   700  PMP700     -0.1145
@<TRIPOS>BOND
     1     3     2    1
     2     5     4    1
     3     2     4   ar
     4     2     1   ar
     5     4     6   ar
     6     1    10   ar
     7     6     7    1
     8     6     9   ar
     9    10     9   ar
    10     8     7    1
    11     9    11    1
    12    11    12    1
    13    12    13    1
    14    15    13    2
    15    13    16    1
    16    13    14    1
