@<TRIPOS>MOLECULE
2qb3_PSZ_A_1.pdb
 24 25 0 0 0
SMALL
GASTEIGER

@<TRIPOS>ATOM
      1  O1T       23.1270   13.7300  -13.9120 O.co2 600  PSZ600     -0.2400
      2  C3A       23.7540   12.6670  -14.0040 C.2   600  PSZ600      0.3937
      3  O2T       24.7380   12.3160  -14.6550 O.co2 600  PSZ600     -0.2400
      4  C2T       23.2040   11.5780  -13.1210 C.ar  600  PSZ600      0.1106
      5  S         22.2490   11.8190  -11.8040 S.2   600  PSZ600     -0.0785
      6  C5T       22.0960   10.1870  -11.2370 C.ar  600  PSZ600      0.0517
      7  C4T       22.8890    9.5470  -12.1160 C.ar  600  PSZ600      0.0729
      8  C3T       23.5120   10.2490  -13.1320 C.ar  600  PSZ600      0.0297
      9  N4A       23.0760    8.1380  -11.9530 N.pl3 600  PSZ600     -0.2322
     10  C4A       23.1370    7.5720  -13.2190 C.3   600  PSZ600      0.1416
     11  C4        24.2960    6.6940  -13.5000 C.ar  600  PSZ600      0.0394
     12  C3        24.8990    6.9180  -14.7900 C.ar  600  PSZ600      0.2065
     13  O3        24.4990    7.8860  -15.5680 O.3   600  PSZ600     -0.2856
     14  C2        25.9670    6.0580  -15.1320 C.ar  600  PSZ600      0.0978
     15  C2A       26.5930    6.2680  -16.4500 C.3   600  PSZ600      0.0555
     16  N1        26.3730    5.1320  -14.3660 N.ar  600  PSZ600     -0.2452
     17  C6        25.8540    4.8960  -13.1910 C.ar  600  PSZ600      0.0965
     18  C5        24.8090    5.6180  -12.6790 C.ar  600  PSZ600      0.0278
     19  C5A       24.3040    5.3320  -11.2920 C.3   600  PSZ600      0.1816
     20  O4P       23.0200    4.8780  -11.2050 O.3   600  PSZ600     -0.2653
     21  P         22.2820    4.8490   -9.8110 P.3   600  PSZ600      0.5329
     22  O3P       21.7330    6.1480   -9.6000 O.3   600  PSZ600     -0.1145
     23  O1P       23.3100    4.6120   -8.8020 O.3   600  PSZ600     -0.1145
     24  O2P       21.3080    3.8000   -9.9210 O.2   600  PSZ600     -0.2224
@<TRIPOS>BOND
     1    15    14    1
     2    13    12    1
     3    14    12   ar
     4    14    16   ar
     5    12    11   ar
     6     3     2   ar
     7    16    17   ar
     8     2     1   ar
     9     2     4    1
    10    11    10    1
    11    11    18   ar
    12    10     9    1
    13    17    18   ar
    14     8     4   ar
    15     8     7   ar
    16     4     5   ar
    17    18    19    1
    18     7     9    1
    19     7     6   ar
    20     5     6   ar
    21    19    20    1
    22    20    21    1
    23    24    21    2
    24    21    22    1
    25    21    23    1
