@<TRIPOS>MOLECULE
2qb4_DSM_A_1.pdb
 20 22 0 0 0
SMALL
GASTEIGER

@<TRIPOS>ATOM
      1  C18       29.7320   16.7330   24.8140 C.3   801  DSM801      0.1075
      2  N2        28.6660   17.6810   25.1830 N.3   801  DSM801     -0.2165
      3  C17       28.6800   18.8940   24.3090 C.3   801  DSM801      0.0905
      4  C16       27.9500   20.0630   24.9050 C.3   801  DSM801      0.0406
      5  C15       28.2770   21.3880   24.1610 C.3   801  DSM801      0.0970
      6  N1        27.6050   21.6280   22.8150 N.pl3 801  DSM801     -0.2868
      7  C14       26.3670   20.9660   22.4760 C.ar  801  DSM801      0.0515
      8  C1        25.1920   21.0480   23.2900 C.ar  801  DSM801      0.0148
      9  C2        24.0000   20.3710   22.9040 C.ar  801  DSM801      0.0013
     10  C3        23.9650   19.6660   21.6920 C.ar  801  DSM801      0.0001
     11  C4        25.1050   19.5970   20.9050 C.ar  801  DSM801      0.0012
     12  C13       26.3040   20.2630   21.2560 C.ar  801  DSM801      0.0136
     13  C5        27.4680   20.1410   20.3450 C.2   801  DSM801      0.0013
     14  C6        27.8670   21.4260   19.6340 C.2   801  DSM801      0.0013
     15  C12       28.2330   22.6640   20.5140 C.ar  801  DSM801      0.0136
     16  C11       28.1050   22.7310   21.9940 C.ar  801  DSM801      0.0515
     17  C7        28.7270   23.8080   19.8600 C.ar  801  DSM801      0.0012
     18  C8        29.0860   24.9740   20.5310 C.ar  801  DSM801      0.0001
     19  C9        28.9770   25.0560   21.9210 C.ar  801  DSM801      0.0013
     20  C10       28.4870   23.9440   22.6450 C.ar  801  DSM801      0.0148
@<TRIPOS>BOND
     1    14    13    2
     2    14    15    1
     3    17    15   ar
     4    17    18   ar
     5    13    12    1
     6    15    16   ar
     7    18    19   ar
     8    11    12   ar
     9    11    10   ar
    10    12     7   ar
    11    10     9   ar
    12    19    20   ar
    13    16    20   ar
    14    16     6    1
    15     7     6    1
    16     7     8   ar
    17     6     5    1
    18     9     8   ar
    19     5     4    1
    20     3     4    1
    21     3     2    1
    22     1     2    1
