@<TRIPOS>MOLECULE
2qb5_ADP_A_1.pdb
 27 29 0 0 0
SMALL
GASTEIGER

@<TRIPOS>ATOM
      1  PB        -2.2280   16.6970  -40.0160 P.3   557  ADP557      0.5373
      2  O1B       -1.1710   17.5170  -39.3720 O.3   557  ADP557     -0.1143
      3  O2B       -1.7520   15.4270  -40.6920 O.2   557  ADP557     -0.2221
      4  O3B       -3.4200   16.2450  -39.2180 O.3   557  ADP557     -0.1143
      5  PA        -3.0070   19.0990  -41.5640 P.3   557  ADP557      0.2231
      6  O1A       -2.2500   19.8920  -40.5390 O.3   557  ADP557     -0.4370
      7  O2A       -4.4670   19.3340  -41.8560 O.2   557  ADP557     -0.5169
      8  O3A       -2.8160   17.5380  -41.2670 O.3   557  ADP557     -0.2261
      9  O5'       -2.1930   19.1980  -42.9670 O.3   557  ADP557     -0.3111
     10  C5'       -0.8000   18.8900  -43.0580 C.3   557  ADP557      0.1813
     11  C4'       -0.0710   20.0910  -43.6860 C.3   557  ADP557      0.1821
     12  O4'       -0.6460   20.3850  -44.9900 O.3   557  ADP557     -0.3135
     13  C3'       -0.2330   21.3880  -42.8930 C.3   557  ADP557      0.2184
     14  O3'        0.8080   21.4800  -41.8820 O.3   557  ADP557     -0.2174
     15  C2'       -0.0770   22.4350  -43.9800 C.3   557  ADP557      0.2570
     16  O2'        1.3290   22.4920  -44.3260 O.3   557  ADP557     -0.2130
     17  C1'       -0.7290   21.7900  -45.1750 C.3   557  ADP557      0.3186
     18  N9        -2.1650   22.0840  -45.2980 N.pl3 557  ADP557     -0.1439
     19  C8        -3.1990   21.4290  -44.7220 C.3   557  ADP557      0.3377
     20  N7        -4.3480   21.9790  -45.1420 N.2   557  ADP557     -0.2095
     21  C5        -4.0650   22.9800  -46.0220 C.2   557  ADP557      0.2526
     22  C6        -4.8310   23.9310  -46.8610 C.2   557  ADP557      0.4393
     23  N6        -6.1860   23.9270  -46.8030 N.pl3 557  ADP557      0.2180
     24  N1        -4.1410   24.7990  -47.6460 N.2   557  ADP557      0.0021
     25  C2        -2.7810   24.7950  -47.6470 C.3   557  ADP557      0.5254
     26  N3        -2.0350   23.9280  -46.9310 N.2   557  ADP557     -0.0055
     27  C4        -2.6130   23.0160  -46.1360 C.2   557  ADP557      0.3518
@<TRIPOS>BOND
     1    25    24    1
     2    25    26    1
     3    24    22    2
     4    26    27    2
     5    22    23    1
     6    22    21    1
     7    27    21    1
     8    27    18    1
     9    21    20    2
    10    18    17    1
    11    18    19    1
    12    17    12    1
    13    17    15    1
    14    20    19    1
    15    12    11    1
    16    16    15    1
    17    15    13    1
    18    11    10    1
    19    11    13    1
    20    10     9    1
    21     9     5    1
    22    13    14    1
    23     7     5    2
    24     5     8    1
    25     5     6    1
    26     8     1    1
    27     3     1    2
    28     1     2    1
    29     1     4    1
