@<TRIPOS>MOLECULE
2qb8_ATP_A_1.pdb
 12 11 0 0 0
SMALL
GASTEIGER

@<TRIPOS>ATOM
      1  PG        43.2690  -16.3920   51.7810 P.3   501  ATP501      0.3991
      2  O1G       43.4520  -17.0950   53.1060 O.3   501  ATP501     -0.1422
      3  O2G       44.2020  -16.7060   50.6260 O.3   501  ATP501     -0.1422
      4  PB        43.5060  -13.6740   50.9680 P.3   501  ATP501      0.2291
      5  O1B       43.0250  -14.1690   49.6160 O.2   501  ATP501     -0.5168
      6  O2B       44.9350  -13.1930   51.1250 O.3   501  ATP501     -0.4368
      7  O3B       43.2730  -14.8100   52.0940 O.3   501  ATP501     -0.2509
      8  PA        40.9820  -12.5280   51.7750 P.3   501  ATP501      0.5373
      9  O1A       40.5910  -13.9630   51.5240 O.3   501  ATP501     -0.1143
     10  O2A       40.7830  -12.0780   53.2010 O.3   501  ATP501     -0.1143
     11  O3A       42.5710  -12.4530   51.4790 O.3   501  ATP501     -0.2258
     12  O5'       40.4350  -11.5320   50.7780 O.2   501  ATP501     -0.2221
@<TRIPOS>BOND
     1     5     4    2
     2     3     1    1
     3    12     8    2
     4     4     6    1
     5     4    11    1
     6     4     7    1
     7    11     8    1
     8     9     8    1
     9     8    10    1
    10     1     7    1
    11     1     2    1
