@<TRIPOS>MOLECULE
2qbl_CAM_A_1.pdb
 11 12 0 0 0
SMALL
GASTEIGER

@<TRIPOS>ATOM
      1  C1        17.3210   23.3670    7.5850 C.3   517  CAM517      0.0515
      2  C2        17.3120   23.5780    6.0570 C.2   517  CAM517      0.1498
      3  O         18.2100   23.7340    5.2320 O.2   517  CAM517     -0.2961
      4  C3        15.8320   23.3690    5.9290 C.3   517  CAM517      0.0645
      5  C4        15.1850   23.3350    7.3020 C.3   517  CAM517      0.0077
      6  C5        15.5700   21.8520    7.4640 C.3   517  CAM517      0.0009
      7  C6        17.0780   21.8730    7.8470 C.3   517  CAM517      0.0069
      8  C7        16.1080   24.1620    8.1970 C.3   517  CAM517      0.0066
      9  C8        16.1220   25.6350    7.8240 C.3   517  CAM517      0.0004
     10  C9        15.8860   23.8760    9.6780 C.3   517  CAM517      0.0004
     11  C10       18.6530   23.8240    8.1930 C.3   517  CAM517      0.0073
@<TRIPOS>BOND
     1     3     2    2
     2     4     2    1
     3     4     5    1
     4     2     1    1
     5     5     6    1
     6     5     8    1
     7     6     7    1
     8     1     7    1
     9     1    11    1
    10     1     8    1
    11     9     8    1
    12     8    10    1
