@<TRIPOS>MOLECULE
2qbl_HEM_A_1.pdb
 43 50 0 0 0
SMALL
GASTEIGER

@<TRIPOS>ATOM
      1 FE         12.3620   19.8310    9.3700 Fe    516  HEM516      0.0000
      2  CHA       11.8180   21.6510    6.4730 C.2   516  HEM516      0.0000
      3  CHB       12.1520   22.7350   11.1680 C.2   516  HEM516      0.0000
      4  CHC       13.4420   18.1790   12.1090 C.2   516  HEM516      0.0000
      5  CHD       13.0870   17.0790    7.4250 C.2   516  HEM516      0.0000
      6  NA        12.0060   21.7930    8.9090 N.2   516  HEM516      0.0000
      7  C1A       11.7560   22.3480    7.6810 C.2   516  HEM516      0.0000
      8  C2A       11.4810   23.7760    7.8090 C.2   516  HEM516      0.0000
      9  C3A       11.6160   24.0850    9.1200 C.2   516  HEM516      0.0000
     10  C4A       11.9190   22.8460    9.8030 C.2   516  HEM516      0.0000
     11  CMA       11.5860   25.4590    9.7610 C.3   516  HEM516      0.0000
     12  CAA       11.1860   24.6960    6.6330 C.3   516  HEM516      0.0000
     13  CBA       12.3210   25.6310    6.2460 C.3   516  HEM516      0.0000
     14  CGA       11.9500   26.5540    5.1030 C.2   516  HEM516      0.0000
     15  O1A       10.7470   26.8180    4.9180 O.co2 516  HEM516      0.0000
     16  O2A       12.8560   27.0390    4.3950 O.co2 516  HEM516      0.0000
     17  NB        12.7250   20.3400   11.2510 N.ar  516  HEM516      0.0000
     18  C1B       12.5370   21.5840   11.8500 C.ar  516  HEM516      0.0000
     19  C2B       12.7330   21.5040   13.2750 C.ar  516  HEM516      0.0000
     20  C3B       13.0670   20.2050   13.5660 C.ar  516  HEM516      0.0000
     21  C4B       13.0880   19.5010   12.2770 C.ar  516  HEM516      0.0000
     22  CMB       12.5340   22.6510   14.2800 C.3   516  HEM516      0.0000
     23  CAB       13.3090   19.6130   14.8160 C.3   516  HEM516      0.0000
     24  CBB       12.7420   19.9910   16.0270 C.3   516  HEM516      0.0000
     25  NC        13.1200   17.9900    9.7080 N.2   516  HEM516      0.0000
     26  C1C       13.4800   17.4740   10.9220 C.2   516  HEM516      0.0000
     27  C2C       13.8240   16.0840   10.8070 C.2   516  HEM516      0.0000
     28  C3C       13.7160   15.7370    9.4820 C.2   516  HEM516      0.0000
     29  C4C       13.3060   16.9570    8.7940 C.2   516  HEM516      0.0000
     30  CMC       14.2570   15.1880   11.9640 C.3   516  HEM516      0.0000
     31  CAC       13.9580   14.4960    8.8880 C.3   516  HEM516      0.0000
     32  CBC       13.6330   13.2860    9.4730 C.3   516  HEM516      0.0000
     33  ND        12.4160   19.4370    7.3580 N.ar  516  HEM516      0.0000
     34  C1D       12.6750   18.2130    6.7560 C.ar  516  HEM516      0.0000
     35  C2D       12.5180   18.3150    5.3180 C.ar  516  HEM516      0.0000
     36  C3D       12.2130   19.6090    5.0730 C.ar  516  HEM516      0.0000
     37  C4D       12.1400   20.3010    6.3300 C.ar  516  HEM516      0.0000
     38  CMD       12.6270   17.1820    4.3000 C.3   516  HEM516      0.0000
     39  CAD       12.0470   20.2830    3.7370 C.3   516  HEM516      0.0000
     40  CBD       10.6200   20.2720    3.2190 C.3   516  HEM516      0.0000
     41  CGD       10.4570   21.1370    1.9850 C.2   516  HEM516      0.0000
     42  O1D        9.4540   20.9760    1.2670 O.co2 516  HEM516      0.0000
     43  O2D       11.3360   21.9860    1.7340 O.co2 516  HEM516      0.0000
@<TRIPOS>BOND
     1    42    41   ar
     2    43    41   ar
     3    41    40    1
     4    40    39    1
     5    39    36    1
     6    38    35    1
     7    16    14   ar
     8    15    14   ar
     9    36    35   ar
    10    36    37   ar
    11    14    13    1
    12    35    34   ar
    13    13    12    1
    14    37     2    2
    15    37    33   ar
    16     2     7    1
    17    12     8    1
    18    34    33   ar
    19    34     5    2
    20    33     1    1
    21     5    29    1
    22     7     8    1
    23     7     6    2
    24     8     9    2
    25    29    28    1
    26    29    25    2
    27    31    32    1
    28    31    28    1
    29     6     1    1
    30     6    10    1
    31     9    11    1
    32     9    10    1
    33     1    25    1
    34     1    17    1
    35    28    27    2
    36    25    26    1
    37    10     3    2
    38    27    26    1
    39    27    30    1
    40    26     4    2
    41     3    18    1
    42    17    18   ar
    43    17    21   ar
    44    18    19   ar
    45     4    21    1
    46    21    20   ar
    47    19    20   ar
    48    19    22    1
    49    20    23    1
    50    23    24    1
