@<TRIPOS>MOLECULE
2qbm_HEM_A_1.pdb
 43 50 0 0 0
SMALL
GASTEIGER

@<TRIPOS>ATOM
      1 FE         12.7990   19.9070    9.4860 Fe    516  HEM516      0.0000
      2  CHA       12.1090   21.6630    6.5310 C.2   516  HEM516      0.0000
      3  CHB       12.3820   22.7470   11.3090 C.2   516  HEM516      0.0000
      4  CHC       13.4100   18.1350   12.3630 C.2   516  HEM516      0.0000
      5  CHD       13.5230   17.1020    7.6360 C.2   516  HEM516      0.0000
      6  NA        12.3490   21.8430    8.9930 N.2   516  HEM516      0.0000
      7  C1A       12.0700   22.3670    7.7500 C.2   516  HEM516      0.0000
      8  C2A       11.7630   23.7730    7.9170 C.2   516  HEM516      0.0000
      9  C3A       11.8210   24.0690    9.2440 C.2   516  HEM516      0.0000
     10  C4A       12.1790   22.8560    9.9400 C.2   516  HEM516      0.0000
     11  CMA       11.5880   25.4360    9.9370 C.3   516  HEM516      0.0000
     12  CAA       11.3730   24.6800    6.7290 C.3   516  HEM516      0.0000
     13  CBA       12.5080   25.5100    6.1250 C.3   516  HEM516      0.0000
     14  CGA       12.0400   26.5070    5.0640 C.2   516  HEM516      0.0000
     15  O1A       10.8060   26.7950    4.9050 O.co2 516  HEM516      0.0000
     16  O2A       12.9490   27.0570    4.3460 O.co2 516  HEM516      0.0000
     17  NB        12.9130   20.3830   11.5190 N.ar  516  HEM516      0.0000
     18  C1B       12.6460   21.6280   12.0430 C.ar  516  HEM516      0.0000
     19  C2B       12.7560   21.5150   13.4660 C.ar  516  HEM516      0.0000
     20  C3B       13.0380   20.2260   13.7770 C.ar  516  HEM516      0.0000
     21  C4B       13.1310   19.4840   12.5310 C.ar  516  HEM516      0.0000
     22  CMB       12.5770   22.7030   14.4430 C.3   516  HEM516      0.0000
     23  CAB       13.2720   19.5570   15.1530 C.2   516  HEM516      0.0000
     24  CBB       12.8160   20.0220   16.3270 C.2   516  HEM516      0.0000
     25  NC        13.3530   17.9760    9.9190 N.2   516  HEM516      0.0000
     26  C1C       13.5780   17.4520   11.1740 C.2   516  HEM516      0.0000
     27  C2C       14.0470   16.0910   11.0120 C.2   516  HEM516      0.0000
     28  C3C       14.0820   15.8000    9.7020 C.2   516  HEM516      0.0000
     29  C4C       13.6400   16.9770    8.9980 C.2   516  HEM516      0.0000
     30  CMC       14.4180   15.1670   12.1840 C.3   516  HEM516      0.0000
     31  CAC       14.5320   14.4970    9.0050 C.2   516  HEM516      0.0000
     32  CBC       13.9590   13.3290    9.3000 C.2   516  HEM516      0.0000
     33  ND        12.8040   19.4670    7.4110 N.ar  516  HEM516      0.0000
     34  C1D       13.1340   18.2040    6.9240 C.ar  516  HEM516      0.0000
     35  C2D       13.0160   18.2280    5.4800 C.ar  516  HEM516      0.0000
     36  C3D       12.5560   19.6320    5.1450 C.ar  516  HEM516      0.0000
     37  C4D       12.4660   20.3540    6.3980 C.ar  516  HEM516      0.0000
     38  CMD       13.2510   17.0580    4.4930 C.3   516  HEM516      0.0000
     39  CAD       12.2950   20.2270    3.7770 C.3   516  HEM516      0.0000
     40  CBD       10.8430   20.2710    3.3670 C.3   516  HEM516      0.0000
     41  CGD       10.7330   21.1140    2.1160 C.2   516  HEM516      0.0000
     42  O1D        9.7200   20.9440    1.3980 O.co2 516  HEM516      0.0000
     43  O2D       11.6110   22.0020    1.8380 O.co2 516  HEM516      0.0000
@<TRIPOS>BOND
     1    42    41   ar
     2    43    41   ar
     3    41    40    1
     4    40    39    1
     5    39    36    1
     6    16    14   ar
     7    38    35    1
     8    15    14   ar
     9    14    13    1
    10    36    35   ar
    11    36    37   ar
    12    35    34   ar
    13    13    12    1
    14    37     2    2
    15    37    33   ar
    16     2     7    1
    17    12     8    1
    18    34    33   ar
    19    34     5    2
    20    33     1    1
    21     5    29    1
    22     7     8    1
    23     7     6    2
    24     8     9    2
    25     6     1    1
    26     6    10    1
    27    29    28    1
    28    29    25    2
    29    31    32    2
    30    31    28    1
    31     9    11    1
    32     9    10    1
    33     1    25    1
    34     1    17    1
    35    28    27    2
    36    25    26    1
    37    10     3    2
    38    27    26    1
    39    27    30    1
    40    26     4    2
    41     3    18    1
    42    17    18   ar
    43    17    21   ar
    44    18    19   ar
    45     4    21    1
    46    21    20   ar
    47    19    20   ar
    48    19    22    1
    49    20    23    1
    50    23    24    2
