@<TRIPOS>MOLECULE
2qbm_CAM_A_1.pdb
 11 12 0 0 0
SMALL
GASTEIGER

@<TRIPOS>ATOM
      1  C1        17.6610   23.5260    7.4420 C.3   517  CAM517      0.0515
      2  C2        17.6520   23.8620    5.9850 C.2   517  CAM517      0.1498
      3  O         18.6360   24.0360    5.2800 O.2   517  CAM517     -0.2961
      4  C3        16.2030   23.8820    5.5230 C.3   517  CAM517      0.0645
      5  C4        15.5230   23.5360    6.8500 C.3   517  CAM517      0.0077
      6  C5        15.8010   22.0530    7.0560 C.3   517  CAM517      0.0009
      7  C6        17.2990   22.0410    7.4790 C.3   517  CAM517      0.0069
      8  C7        16.3900   24.2450    7.8980 C.3   517  CAM517      0.0066
      9  C8        16.4940   25.7780    7.7880 C.3   517  CAM517      0.0004
     10  C9        15.9240   23.9370    9.3300 C.3   517  CAM517      0.0004
     11  C10       18.9910   23.8060    8.1360 C.3   517  CAM517      0.0073
@<TRIPOS>BOND
     1     3     2    2
     2     4     2    1
     3     4     5    1
     4     2     1    1
     5     5     6    1
     6     5     8    1
     7     6     7    1
     8     1     7    1
     9     1     8    1
    10     1    11    1
    11     9     8    1
    12     8    10    1
