@<TRIPOS>MOLECULE
2qbn_CAM_A_1.pdb
 11 12 0 0 0
SMALL
GASTEIGER

@<TRIPOS>ATOM
      1  C1        19.2940   12.4640   40.2590 C.3   442  CAM442      0.0515
      2  C2        19.2110   13.9190   39.7070 C.2   442  CAM442      0.1498
      3  O         20.1170   14.6790   39.4750 O.2   442  CAM442     -0.2961
      4  C3        17.6940   14.1540   39.5340 C.3   442  CAM442      0.0645
      5  C4        17.0810   12.7780   40.0150 C.3   442  CAM442      0.0077
      6  C5        17.3790   11.7650   38.8240 C.3   442  CAM442      0.0009
      7  C6        18.9400   11.5340   38.9840 C.3   442  CAM442      0.0069
      8  C7        18.0230   12.2720   41.1500 C.3   442  CAM442      0.0066
      9  C8        18.0040   13.1280   42.4460 C.3   442  CAM442      0.0004
     10  C9        17.7530   10.7940   41.5570 C.3   442  CAM442      0.0004
     11  C10       20.6270   12.0950   40.9280 C.3   442  CAM442      0.0073
@<TRIPOS>BOND
     1     6     7    1
     2     6     5    1
     3     7     1    1
     4     3     2    2
     5     4     2    1
     6     4     5    1
     7     2     1    1
     8     5     8    1
     9     1    11    1
    10     1     8    1
    11     8    10    1
    12     8     9    1
