@<TRIPOS>MOLECULE
2qbn_HEM_A_1.pdb
 43 50 0 0 0
SMALL
GASTEIGER

@<TRIPOS>ATOM
      1 FE         14.1610    9.1040   37.8340 Fe    441  HEM441      0.0000
      2  CHA       13.5790   12.5010   38.1050 C.2   441  HEM441      0.0000
      3  CHB       14.1600    8.8350   41.2360 C.2   441  HEM441      0.0000
      4  CHC       15.2910    5.8780   37.5700 C.2   441  HEM441      0.0000
      5  CHD       14.7430    9.5330   34.4410 C.2   441  HEM441      0.0000
      6  NA        13.8520   10.3910   39.3430 N.2   441  HEM441      0.0000
      7  C1A       13.5350   11.7450   39.2660 C.2   441  HEM441      0.0000
      8  C2A       13.3090   12.3180   40.5950 C.2   441  HEM441      0.0000
      9  C3A       13.5140   11.2770   41.4590 C.2   441  HEM441      0.0000
     10  C4A       13.8730   10.0980   40.6810 C.2   441  HEM441      0.0000
     11  CMA       13.3530   11.3080   42.9770 C.3   441  HEM441      0.0000
     12  CAA       12.9480   13.7800   40.9280 C.3   441  HEM441      0.0000
     13  CBA       14.0780   14.5380   41.6330 C.3   441  HEM441      0.0000
     14  CGA       13.7150   15.9800   41.9590 C.2   441  HEM441      0.0000
     15  O1A       12.5250   16.2520   42.2150 O.co2 441  HEM441      0.0000
     16  O2A       14.6230   16.8440   41.9760 O.co2 441  HEM441      0.0000
     17  NB        14.6600    7.6530   39.1310 N.ar  441  HEM441      0.0000
     18  C1B       14.4970    7.6810   40.5200 C.ar  441  HEM441      0.0000
     19  C2B       14.6510    6.3690   41.0960 C.ar  441  HEM441      0.0000
     20  C3B       14.9700    5.5100   40.0530 C.ar  441  HEM441      0.0000
     21  C4B       14.9980    6.3480   38.8550 C.ar  441  HEM441      0.0000
     22  CMB       14.4600    6.0420   42.5780 C.3   441  HEM441      0.0000
     23  CAB       15.2450    4.1270   40.0560 C.3   441  HEM441      0.0000
     24  CBB       15.1130    3.2290   41.1130 C.3   441  HEM441      0.0000
     25  NC        14.8470    7.9350   36.3030 N.2   441  HEM441      0.0000
     26  C1C       15.2620    6.6210   36.3970 C.2   441  HEM441      0.0000
     27  C2C       15.6760    6.1140   35.1130 C.2   441  HEM441      0.0000
     28  C3C       15.5030    7.1240   34.2130 C.2   441  HEM441      0.0000
     29  C4C       14.9640    8.2590   34.9600 C.2   441  HEM441      0.0000
     30  CMC       16.1010    4.6680   34.8370 C.3   441  HEM441      0.0000
     31  CAC       15.7850    7.0940   32.8380 C.3   441  HEM441      0.0000
     32  CBC       16.8860    6.4600   32.2760 C.3   441  HEM441      0.0000
     33  ND        14.1580   10.6710   36.5480 N.ar  441  HEM441      0.0000
     34  C1D       14.4040   10.6670   35.1810 C.ar  441  HEM441      0.0000
     35  C2D       14.2710   11.9980   34.6230 C.ar  441  HEM441      0.0000
     36  C3D       13.9360   12.8320   35.6440 C.ar  441  HEM441      0.0000
     37  C4D       13.8850   12.0060   36.8370 C.ar  441  HEM441      0.0000
     38  CMD       14.5040   12.4040   33.1690 C.3   441  HEM441      0.0000
     39  CAD       13.7390   14.3520   35.6200 C.3   441  HEM441      0.0000
     40  CBD       12.2840   14.8080   35.5250 C.3   441  HEM441      0.0000
     41  CGD       12.1290   16.3120   35.6900 C.2   441  HEM441      0.0000
     42  O1D       11.0690   16.8430   35.2990 O.co2 441  HEM441      0.0000
     43  O2D       13.0610   16.9620   36.2200 O.co2 441  HEM441      0.0000
@<TRIPOS>BOND
     1    32    31    1
     2    31    28    1
     3    38    35    1
     4    28    29    1
     5    28    27    2
     6     5    29    1
     7     5    34    2
     8    35    34   ar
     9    35    36   ar
    10    30    27    1
    11    29    25    2
    12    27    26    1
    13    34    33   ar
    14    42    41   ar
    15    40    39    1
    16    40    41    1
    17    39    36    1
    18    36    37   ar
    19    41    43   ar
    20    25    26    1
    21    25     1    1
    22    26     4    2
    23    33    37   ar
    24    33     1    1
    25    37     2    2
    26     4    21    1
    27     1    17    1
    28     1     6    1
    29     2     7    1
    30    21    17   ar
    31    21    20   ar
    32    17    18   ar
    33     7     6    2
    34     7     8    1
    35     6    10    1
    36    20    23    1
    37    20    19   ar
    38    23    24    1
    39    18    19   ar
    40    18     3    1
    41     8    12    1
    42     8     9    2
    43    10     3    2
    44    10     9    1
    45    12    13    1
    46    19    22    1
    47     9    11    1
    48    13    14    1
    49    14    16   ar
    50    14    15   ar
