@<TRIPOS>MOLECULE
2qbo_CAM_A_1.pdb
 11 12 0 0 0
SMALL
GASTEIGER

@<TRIPOS>ATOM
      1  C1        19.8940   12.4830   40.1690 C.3   442  CAM442      0.0515
      2  C2        20.0540   13.9880   39.7590 C.2   442  CAM442      0.1498
      3  O         21.0900   14.6140   39.5340 O.2   442  CAM442     -0.2961
      4  C3        18.6160   14.4970   39.7080 C.3   442  CAM442      0.0645
      5  C4        17.7750   13.2050   40.0830 C.3   442  CAM442      0.0077
      6  C5        17.8420   12.3160   38.7750 C.3   442  CAM442      0.0009
      7  C6        19.3400   11.7920   38.8330 C.3   442  CAM442      0.0069
      8  C7        18.6520   12.4020   41.1010 C.3   442  CAM442      0.0066
      9  C8        18.8040   13.0920   42.4840 C.3   442  CAM442      0.0004
     10  C9        18.1330   10.9530   41.3550 C.3   442  CAM442      0.0004
     11  C10       21.1680   11.8140   40.7240 C.3   442  CAM442      0.0073
@<TRIPOS>BOND
     1     6     7    1
     2     6     5    1
     3     7     1    1
     4     3     2    2
     5     4     2    1
     6     4     5    1
     7     2     1    1
     8     5     8    1
     9     1    11    1
    10     1     8    1
    11     8    10    1
    12     8     9    1
