@<TRIPOS>MOLECULE
2qbo_HEM_A_1.pdb
 43 50 0 0 0
SMALL
GASTEIGER

@<TRIPOS>ATOM
      1 FE         14.6150    8.8980   37.8250 Fe    441  HEM441      0.0000
      2  CHA       14.0340   12.2800   38.1630 C.2   441  HEM441      0.0000
      3  CHB       14.3750    8.5280   41.1880 C.2   441  HEM441      0.0000
      4  CHC       15.4240    5.5810   37.4720 C.2   441  HEM441      0.0000
      5  CHD       15.1990    9.3610   34.4580 C.2   441  HEM441      0.0000
      6  NA        14.3060   10.1780   39.3850 N.2   441  HEM441      0.0000
      7  C1A       14.0230   11.5220   39.3310 C.2   441  HEM441      0.0000
      8  C2A       13.7010   12.0360   40.6690 C.2   441  HEM441      0.0000
      9  C3A       13.8200   10.9830   41.5280 C.2   441  HEM441      0.0000
     10  C4A       14.2180    9.8240   40.7110 C.2   441  HEM441      0.0000
     11  CMA       13.7100   11.0390   43.0470 C.3   441  HEM441      0.0000
     12  CAA       13.3180   13.4720   41.0120 C.3   441  HEM441      0.0000
     13  CBA       14.4380   14.2480   41.6960 C.3   441  HEM441      0.0000
     14  CGA       14.0800   15.7060   41.9260 C.2   441  HEM441      0.0000
     15  O1A       12.8880   16.0000   42.1500 O.co2 441  HEM441      0.0000
     16  O2A       14.9880   16.5600   41.8960 O.co2 441  HEM441      0.0000
     17  NB        14.7870    7.3520   39.0760 N.ar  441  HEM441      0.0000
     18  C1B       14.6390    7.3790   40.4450 C.ar  441  HEM441      0.0000
     19  C2B       14.8040    6.0410   41.0030 C.ar  441  HEM441      0.0000
     20  C3B       15.1290    5.2130   39.9710 C.ar  441  HEM441      0.0000
     21  C4B       15.0900    6.0270   38.7600 C.ar  441  HEM441      0.0000
     22  CMB       14.6460    5.6560   42.4670 C.3   441  HEM441      0.0000
     23  CAB       15.6160    3.9140   40.0330 C.2   441  HEM441      0.0000
     24  CBB       15.1110    2.8400   40.7260 C.2   441  HEM441      0.0000
     25  NC        15.2220    7.7030   36.2460 N.2   441  HEM441      0.0000
     26  C1C       15.4960    6.3450   36.3110 C.2   441  HEM441      0.0000
     27  C2C       15.8280    5.8310   34.9850 C.2   441  HEM441      0.0000
     28  C3C       15.7620    6.8920   34.1250 C.2   441  HEM441      0.0000
     29  C4C       15.3820    8.0620   34.9360 C.2   441  HEM441      0.0000
     30  CMC       16.1480    4.3880   34.6550 C.3   441  HEM441      0.0000
     31  CAC       15.9700    6.8840   32.7530 C.3   441  HEM441      0.0000
     32  CBC       17.1280    6.4440   32.1270 C.3   441  HEM441      0.0000
     33  ND        14.5860   10.4870   36.5640 N.ar  441  HEM441      0.0000
     34  C1D       14.8430   10.4900   35.2060 C.ar  441  HEM441      0.0000
     35  C2D       14.7070   11.8300   34.6700 C.ar  441  HEM441      0.0000
     36  C3D       14.3520   12.6570   35.6930 C.ar  441  HEM441      0.0000
     37  C4D       14.2970   11.8060   36.8750 C.ar  441  HEM441      0.0000
     38  CMD       14.9240   12.2820   33.2320 C.3   441  HEM441      0.0000
     39  CAD       14.1940   14.1800   35.6470 C.3   441  HEM441      0.0000
     40  CBD       12.7930   14.6950   35.3300 C.3   441  HEM441      0.0000
     41  CGD       12.6090   16.1800   35.6490 C.2   441  HEM441      0.0000
     42  O1D       11.5640   16.7450   35.2620 O.co2 441  HEM441      0.0000
     43  O2D       13.4950   16.7850   36.2920 O.co2 441  HEM441      0.0000
@<TRIPOS>BOND
     1    32    31    1
     2    31    28    1
     3    38    35    1
     4    28    29    1
     5    28    27    2
     6     5    29    1
     7     5    34    2
     8    30    27    1
     9    35    34   ar
    10    35    36   ar
    11    29    25    2
    12    27    26    1
    13    34    33   ar
    14    42    41   ar
    15    40    39    1
    16    40    41    1
    17    39    36    1
    18    41    43   ar
    19    36    37   ar
    20    25    26    1
    21    25     1    1
    22    26     4    2
    23    33    37   ar
    24    33     1    1
    25    37     2    2
    26     4    21    1
    27     1    17    1
    28     1     6    1
    29     2     7    1
    30    21    17   ar
    31    21    20   ar
    32    17    18   ar
    33     7     6    2
    34     7     8    1
    35     6    10    1
    36    20    23    1
    37    20    19   ar
    38    23    24    2
    39    18    19   ar
    40    18     3    1
    41     8    12    1
    42     8     9    2
    43    10     3    2
    44    10     9    1
    45    19    22    1
    46    12    13    1
    47     9    11    1
    48    13    14    1
    49    16    14   ar
    50    14    15   ar
