@<TRIPOS>MOLECULE
2qbp_527_A_1.pdb
 37 40 0 0 0
SMALL
GASTEIGER

@<TRIPOS>ATOM
      1  S1        44.5640   14.2390    0.6740 S.2   800  527800     -0.0768
      2  C2        44.7660   15.6490    1.7560 C.ar  800  527800      0.1437
      3  C3        45.6900   15.3960    2.6670 C.ar  800  527800      0.1583
      4  C4        46.2550   14.0410    2.5740 C.ar  800  527800      0.0752
      5  C5        45.8210   13.2870    1.5520 C.ar  800  527800      0.0389
      6  C6        44.0600   16.8790    1.4690 C.2   800  527800      0.3966
      7  O7        43.5980   16.8930    0.3080 O.co2 800  527800     -0.2399
      8  O8        43.9340   17.8230    2.2800 O.co2 800  527800     -0.2399
      9  C9        46.1250   11.9050    1.1290 C.ar  800  527800      0.0079
     10  C10       47.4420   11.3150    1.3100 C.ar  800  527800      0.0166
     11  C11       47.6400    9.9460    0.9420 C.ar  800  527800      0.0653
     12  C12       46.5390    9.1680    0.3780 C.ar  800  527800      0.0161
     13  C13       45.2230    9.7500    0.1790 C.ar  800  527800      0.0013
     14  C14       45.0420   11.1270    0.5390 C.ar  800  527800      0.0006
     15 BR19       47.3890   13.4840    3.9420 Br    800  527800     -0.0453
     16  O20       45.9800   16.2840    3.6070 O.3   800  527800     -0.4625
     17  C21       47.1930   16.9880    3.4380 C.3   800  527800      0.3186
     18  C22       47.4320   17.6890    4.7000 C.2   800  527800      0.4084
     19  O25       48.5780   18.1510    4.8510 O.co2 800  527800     -0.2415
     20  O26       46.5110   17.7930    5.5420 O.co2 800  527800     -0.2415
     21  N29       48.9040    9.4960    1.1630 N.pl3 800  527800     -0.2393
     22  C30       49.1900    8.1380    1.5130 C.3   800  527800      0.0953
     23  C31       50.7090    7.9840    1.5980 C.3   800  527800      0.0407
     24  C32       51.1460    6.6380    2.1280 C.3   800  527800      0.0972
     25  N33       50.3910    6.3890    3.3570 N.3   800  527800     -0.1590
     26  C34       48.9270    6.4400    3.3730 C.3   800  527800      0.0972
     27  C35       48.4990    7.7770    2.8260 C.3   800  527800      0.0407
     28  S46       51.1020    5.4460    4.5910 S.O2  800  527800      0.0481
     29  O47       50.2210    5.5670    5.7300 O.2   800  527800     -0.1570
     30  O48       52.4790    5.8920    4.6940 O.2   800  527800     -0.1570
     31  C49       50.8960    3.7760    3.9330 C.3   800  527800      0.1954
     32  C50       51.2570    2.7890    5.0020 C.ar  800  527800      0.0029
     33  C53       52.6630    2.4580    5.1260 C.ar  800  527800     -0.0025
     34  C54       53.0480    1.5950    6.2220 C.ar  800  527800     -0.0003
     35  C55       52.0250    1.0640    7.1210 C.ar  800  527800     -0.0000
     36  C56       50.6230    1.4160    6.9910 C.ar  800  527800     -0.0003
     37  C57       50.2150    2.2910    5.9050 C.ar  800  527800     -0.0025
@<TRIPOS>BOND
     1    13    12   ar
     2    13    14   ar
     3     7     6   ar
     4    12    11   ar
     5    14     9   ar
     6     1     5   ar
     7     1     2   ar
     8    11    21    1
     9    11    10   ar
    10     9    10   ar
    11     9     5    1
    12    21    22    1
    13     6     2    1
    14     6     8   ar
    15    22    23    1
    16    22    27    1
    17     5     4   ar
    18    23    24    1
    19     2     3   ar
    20    24    25    1
    21     4     3   ar
    22     4    15    1
    23     3    16    1
    24    27    26    1
    25    25    26    1
    26    25    28    1
    27    17    16    1
    28    17    18    1
    29    31    28    1
    30    31    32    1
    31    28    30    2
    32    28    29    2
    33    18    19   ar
    34    18    20   ar
    35    32    33   ar
    36    32    37   ar
    37    33    34   ar
    38    37    36   ar
    39    34    35   ar
    40    36    35   ar
