@<TRIPOS>MOLECULE
2qbq_4B3_A_1.pdb
 31 33 0 0 0
SMALL
GASTEIGER

@<TRIPOS>ATOM
      1  S1        44.6110   14.0460    0.5060 S.2   800  4B3800     -0.0768
      2  C2        44.7660   15.4390    1.5570 C.ar  800  4B3800      0.1437
      3  C3        45.6230   15.1800    2.5630 C.ar  800  4B3800      0.1583
      4  C4        46.1880   13.8140    2.5260 C.ar  800  4B3800      0.0752
      5  C5        45.7320   13.0860    1.4880 C.ar  800  4B3800      0.0389
      6  C6        44.0300   16.6790    1.2250 C.2   800  4B3800      0.3966
      7  O7        43.5770   16.7220    0.0620 O.co2 800  4B3800     -0.2399
      8  O8        43.8610   17.6020    2.0480 O.co2 800  4B3800     -0.2399
      9  C9        46.0430   11.6520    1.1530 C.ar  800  4B3800      0.0079
     10  C10       47.3940   11.1220    1.2180 C.ar  800  4B3800      0.0166
     11  C11       47.6340    9.7720    0.8020 C.ar  800  4B3800      0.0653
     12  C12       46.5410    8.9630    0.2800 C.ar  800  4B3800      0.0161
     13  C13       45.1890    9.4480    0.2030 C.ar  800  4B3800      0.0013
     14  C14       44.9770   10.8000    0.6540 C.ar  800  4B3800      0.0006
     15 BR1        47.4150   13.2710    3.8780 Br    800  4B3800     -0.0453
     16  O20       45.9150   16.0160    3.5510 O.3   800  4B3800     -0.4625
     17  C21       47.0570   16.8320    3.3680 C.3   800  4B3800      0.3186
     18  C22       47.4380   17.4450    4.7040 C.2   800  4B3800      0.4084
     19  O25       46.6490   17.4000    5.6750 O.co2 800  4B3800     -0.2415
     20  O26       48.5590   17.9810    4.7670 O.co2 800  4B3800     -0.2415
     21  N27       48.9250    9.3140    0.9620 N.pl3 800  4B3800     -0.2394
     22  C28       49.2920    7.9430    1.3340 C.3   800  4B3800      0.0925
     23  C30       50.8110    7.7520    1.2640 C.3   800  4B3800      0.0216
     24  C31       51.2020    6.3090    1.6550 C.3   800  4B3800      0.0017
     25  C32       50.5160    5.8480    2.9610 C.3   800  4B3800      0.0001
     26  C33       49.0100    6.1590    3.0880 C.3   800  4B3800      0.0017
     27  C34       48.7280    7.6260    2.7220 C.3   800  4B3800      0.0216
     28  C42       52.7280    6.2000    1.8710 C.3   800  4B3800      0.0001
     29  C46       50.8260    5.3220    0.5100 C.3   800  4B3800      0.0001
     30  C50       48.7000    5.9580    4.5790 C.3   800  4B3800      0.0001
     31  C54       48.0950    5.2090    2.2450 C.3   800  4B3800      0.0001
@<TRIPOS>BOND
     1     7     6   ar
     2    13    12   ar
     3    13    14   ar
     4    12    11   ar
     5     1     5   ar
     6     1     2   ar
     7    29    24    1
     8    14     9   ar
     9    11    21    1
    10    11    10   ar
    11    21    22    1
    12     9    10   ar
    13     9     5    1
    14     6     2    1
    15     6     8   ar
    16    23    22    1
    17    23    24    1
    18    22    27    1
    19     5     4   ar
    20     2     3   ar
    21    24    28    1
    22    24    25    1
    23    31    26    1
    24     4     3   ar
    25     4    15    1
    26     3    16    1
    27    27    26    1
    28    25    26    1
    29    26    30    1
    30    17    16    1
    31    17    18    1
    32    18    20   ar
    33    18    19   ar
