@<TRIPOS>MOLECULE
2qbr_910_A_1.pdb
 28 30 0 0 0
SMALL
GASTEIGER

@<TRIPOS>ATOM
      1  S1        44.9240   14.3230    0.6640 S.2   800  910800     -0.0768
      2  C2        45.0960   15.6460    1.7300 C.ar  800  910800      0.1437
      3  C3        45.9700   15.2890    2.7910 C.ar  800  910800      0.1583
      4  C4        46.4440   13.9560    2.6530 C.ar  800  910800      0.0752
      5  C5        45.9450   13.2820    1.5090 C.ar  800  910800      0.0389
      6  C6        44.4140   16.8590    1.4850 C.2   800  910800      0.3966
      7  O7        44.4470   17.7800    2.2990 O.co2 800  910800     -0.2399
      8  O8        43.7890   16.9570    0.4240 O.co2 800  910800     -0.2399
      9  C9        46.2010   11.8870    1.0260 C.ar  800  910800      0.0079
     10  C10       47.5180   11.3150    1.0600 C.ar  800  910800      0.0166
     11  C11       47.7370    9.9830    0.6010 C.ar  800  910800      0.0657
     12  C12       46.6290    9.2030    0.0970 C.ar  800  910800      0.0161
     13  C13       45.3100    9.7660    0.0560 C.ar  800  910800      0.0013
     14  C14       45.1080   11.1050    0.5240 C.ar  800  910800      0.0006
     15 BR19       47.6320   13.1870    3.9130 Br    800  910800     -0.0453
     16  O20       46.3660   16.1140    3.9000 O.3   800  910800     -0.4625
     17  C21       47.5820   16.8460    3.7100 C.3   800  910800      0.3186
     18  C22       47.9420   17.5920    4.9940 C.2   800  910800      0.4084
     19  O25       47.1630   17.5430    5.9630 O.co2 800  910800     -0.2415
     20  O26       49.0030   18.2220    5.0270 O.co2 800  910800     -0.2415
     21  N29       49.0320    9.5000    0.6690 N.pl3 800  910800     -0.2328
     22  C30       49.4040    8.0820    0.8060 C.3   800  910800      0.1385
     23  C31       49.4490    7.6120    2.2450 C.ar  800  910800     -0.0007
     24  C34       48.2330    7.1950    2.8950 C.ar  800  910800     -0.0026
     25  C35       48.2680    6.7450    4.2530 C.ar  800  910800     -0.0003
     26  C36       49.5260    6.7190    4.9440 C.ar  800  910800     -0.0000
     27  C37       50.7460    7.1350    4.3000 C.ar  800  910800     -0.0003
     28  C38       50.7060    7.5850    2.9370 C.ar  800  910800     -0.0026
@<TRIPOS>BOND
     1    13    12   ar
     2    13    14   ar
     3    12    11   ar
     4     8     6   ar
     5    14     9   ar
     6    11    21    1
     7    11    10   ar
     8     1     5   ar
     9     1     2   ar
    10    21    22    1
    11    22    23    1
    12     9    10   ar
    13     9     5    1
    14     6     2    1
    15     6     7   ar
    16     5     4   ar
    17     2     3   ar
    18    23    24   ar
    19    23    28   ar
    20     4     3   ar
    21     4    15    1
    22     3    16    1
    23    24    25   ar
    24    28    27   ar
    25    17    16    1
    26    17    18    1
    27    25    26   ar
    28    27    26   ar
    29    18    20   ar
    30    18    19   ar
