@<TRIPOS>MOLECULE
2qbs_024_A_1.pdb
 27 29 0 0 0
SMALL
GASTEIGER

@<TRIPOS>ATOM
      1  S1        44.6510   14.0740    0.6210 S.2   800  024800     -0.0768
      2  C2        44.7900   15.4820    1.5710 C.ar  800  024800      0.1437
      3  C3        45.6940   15.2460    2.6400 C.ar  800  024800      0.1583
      4  C4        46.2290   13.9270    2.6200 C.ar  800  024800      0.0752
      5  C5        45.7340   13.1350    1.5470 C.ar  800  024800      0.0389
      6  C6        44.0570   16.6430    1.2480 C.2   800  024800      0.3966
      7  O7        43.4980   16.6800    0.1500 O.co2 800  024800     -0.2399
      8  O8        43.9810   17.5810    2.0360 O.co2 800  024800     -0.2399
      9  C9        46.0160   11.7110    1.1830 C.ar  800  024800      0.0079
     10  C10       47.2610   11.0370    1.4450 C.ar  800  024800      0.0166
     11  C11       47.4050    9.6640    1.0720 C.ar  800  024800      0.0653
     12  C12       46.3290    8.9560    0.4400 C.ar  800  024800      0.0161
     13  C13       45.0950    9.6130    0.1730 C.ar  800  024800      0.0013
     14  C14       44.9490   10.9800    0.5490 C.ar  800  024800      0.0006
     15 BR19       47.4770   13.3320    3.9450 Br    800  024800     -0.0453
     16  O20       46.0630   16.1740    3.6490 O.3   800  024800     -0.4625
     17  C21       47.2490   16.9320    3.4120 C.3   800  024800      0.3186
     18  C22       47.6510   17.5920    4.7270 C.2   800  024800      0.4084
     19  O25       46.8770   17.5250    5.6970 O.co2 800  024800     -0.2415
     20  O26       48.7320   18.1660    4.7830 O.co2 800  024800     -0.2415
     21  N27       48.6210    8.9650    1.3420 N.pl3 800  024800     -0.2394
     22  C28       49.1550    7.7650    1.8570 C.3   800  024800      0.0925
     23  C30       50.6800    7.8220    2.0380 C.3   800  024800      0.0216
     24  C31       51.1580    6.4520    2.5800 C.3   800  024800      0.0018
     25  C32       50.4280    6.0460    3.8930 C.3   800  024800      0.0001
     26  C33       48.8790    6.1190    3.7780 C.3   800  024800      0.0018
     27  C34       48.4240    7.4700    3.1930 C.3   800  024800      0.0216
@<TRIPOS>BOND
     1     7     6   ar
     2    13    12   ar
     3    13    14   ar
     4    12    11   ar
     5    14     9   ar
     6     1     5   ar
     7     1     2   ar
     8    11    21    1
     9    11    10   ar
    10     9    10   ar
    11     9     5    1
    12     6     2    1
    13     6     8   ar
    14    21    22    1
    15     5     4   ar
    16     2     3   ar
    17    22    23    1
    18    22    27    1
    19    23    24    1
    20    24    25    1
    21     4     3   ar
    22     4    15    1
    23     3    16    1
    24    27    26    1
    25    17    16    1
    26    17    18    1
    27    26    25    1
    28    18    20   ar
    29    18    19   ar
