@<TRIPOS>MOLECULE
2qbt_PMP_A_1.pdb
 16 16 0 0 0
SMALL
GASTEIGER

@<TRIPOS>ATOM
      1  N1        26.3610    4.9450  -14.3630 N.ar  700  PMP700     -0.2452
      2  C2        25.9850    5.9520  -15.2230 C.ar  700  PMP700      0.0978
      3  C2A       26.6060    6.0790  -16.5820 C.3   700  PMP700      0.0555
      4  C3        25.0820    6.9130  -14.7840 C.ar  700  PMP700      0.2063
      5  O3        24.7550    7.9430  -15.6120 O.3   700  PMP700     -0.2856
      6  C4        24.4920    6.7880  -13.5200 C.ar  700  PMP700      0.0369
      7  C4A       23.3810    7.7300  -13.1110 C.3   700  PMP700      0.1386
      8  N4A       22.1280    7.0650  -13.4360 N.3   700  PMP700     -0.1261
      9  C5        24.9000    5.7610  -12.6690 C.ar  700  PMP700      0.0275
     10  C6        25.7420    4.7740  -13.1570 C.ar  700  PMP700      0.0965
     11  C5A       24.4510    5.6970  -11.2220 C.3   700  PMP700      0.1816
     12  O4P       23.1930    5.0480  -11.1410 O.3   700  PMP700     -0.2653
     13  P         22.4370    4.9930   -9.7300 P.3   700  PMP700      0.5329
     14  O1P       23.3740    4.6100   -8.6130 O.3   700  PMP700     -0.1145
     15  O2P       21.3730    3.9340   -9.8720 O.2   700  PMP700     -0.2224
     16  O3P       21.7900    6.3210   -9.4530 O.3   700  PMP700     -0.1145
@<TRIPOS>BOND
     1     3     2    1
     2     5     4    1
     3     2     4   ar
     4     2     1   ar
     5     4     6   ar
     6     1    10   ar
     7     6     7    1
     8     6     9   ar
     9     8     7    1
    10    10     9   ar
    11     9    11    1
    12    11    12    1
    13    12    13    1
    14    15    13    2
    15    13    16    1
    16    13    14    1
