@<TRIPOS>MOLECULE
2qbt_PSZ_A_1.pdb
 24 25 0 0 0
SMALL
GASTEIGER

@<TRIPOS>ATOM
      1  O1T       23.1880   13.6530  -13.9720 O.co2 600  PSZ600     -0.2400
      2  C3A       23.7890   12.5670  -13.9980 C.2   600  PSZ600      0.3937
      3  O2T       24.7580   12.3950  -14.7560 O.co2 600  PSZ600     -0.2400
      4  C2T       23.3560   11.4520  -13.1060 C.ar  600  PSZ600      0.1106
      5  S         22.2930   11.8510  -11.7870 S.2   600  PSZ600     -0.0785
      6  C5T       22.1600   10.2360  -11.1520 C.ar  600  PSZ600      0.0517
      7  C4T       22.9560    9.4770  -12.0200 C.ar  600  PSZ600      0.0729
      8  C3T       23.6310   10.0870  -13.0900 C.ar  600  PSZ600      0.0297
      9  N4A       23.0920    8.0410  -11.7740 N.pl3 600  PSZ600     -0.2322
     10  C4A       22.9070    7.2470  -12.9950 C.3   600  PSZ600      0.1416
     11  C4        24.1720    6.5080  -13.4080 C.ar  600  PSZ600      0.0394
     12  C3        24.8410    6.8910  -14.6830 C.ar  600  PSZ600      0.2065
     13  O3        24.3360    7.8830  -15.4590 O.3   600  PSZ600     -0.2856
     14  C2        26.0700    6.1580  -15.0890 C.ar  600  PSZ600      0.0978
     15  C2A       26.7830    6.5140  -16.3690 C.3   600  PSZ600      0.0555
     16  N1        26.5490    5.1830  -14.3060 N.ar  600  PSZ600     -0.2452
     17  C6        25.9710    4.8100  -13.1500 C.ar  600  PSZ600      0.0965
     18  C5        24.8110    5.3930  -12.6380 C.ar  600  PSZ600      0.0278
     19  C5A       24.3110    4.8490  -11.3110 C.3   600  PSZ600      0.1816
     20  O4P       22.8960    4.6680  -11.2280 O.3   600  PSZ600     -0.2653
     21  P         22.1810    4.6010   -9.7820 P.3   600  PSZ600      0.5329
     22  O3P       21.4320    5.9030   -9.6490 O.3   600  PSZ600     -0.1145
     23  O1P       23.2990    4.4360   -8.7790 O.3   600  PSZ600     -0.1145
     24  O2P       21.2830    3.3940   -9.8900 O.2   600  PSZ600     -0.2224
@<TRIPOS>BOND
     1    15    14    1
     2    13    12    1
     3    14    12   ar
     4    14    16   ar
     5     3     2   ar
     6    12    11   ar
     7    16    17   ar
     8     2     1   ar
     9     2     4    1
    10    11    10    1
    11    11    18   ar
    12    17    18   ar
    13     4     8   ar
    14     4     5   ar
    15     8     7   ar
    16    10     9    1
    17    18    19    1
    18     7     9    1
    19     7     6   ar
    20     5     6   ar
    21    19    20    1
    22    20    21    1
    23    24    21    2
    24    21    22    1
    25    21    23    1
