@<TRIPOS>MOLECULE
2qbu_SAH_B_1.pdb
 26 28 0 0 0
SMALL
GASTEIGER

@<TRIPOS>ATOM
      1  N        -23.9480   37.0590    1.5440 N.3   501  SAH501     -0.1208
      2  CA       -24.1450   37.4690    0.1270 C.3   501  SAH501      0.1952
      3  CB       -23.3240   36.5830   -0.8190 C.3   501  SAH501      0.0422
      4  CG       -21.8440   36.9270   -0.9690 C.3   501  SAH501      0.0597
      5  SD       -21.0200   35.7910   -2.1240 S.3   501  SAH501     -0.1375
      6  C        -25.6320   37.3640   -0.2130 C.2   501  SAH501      0.3819
      7  O        -26.4350   36.9130    0.5730 O.co2 501  SAH501     -0.2441
      8  OXT      -26.0730   37.7170   -1.2930 O.co2 501  SAH501     -0.2441
      9  C5'      -20.6820   37.0290   -3.4100 C.3   501  SAH501      0.0899
     10  C4'      -21.5490   36.7020   -4.6100 C.3   501  SAH501      0.1630
     11  O4'      -22.8610   37.1320   -4.3130 O.3   501  SAH501     -0.3153
     12  C3'      -21.1630   37.3380   -5.9390 C.3   501  SAH501      0.2168
     13  O3'      -20.2190   36.5700   -6.6580 O.3   501  SAH501     -0.2175
     14  C2'      -22.5120   37.3730   -6.6410 C.3   501  SAH501      0.2569
     15  O2'      -22.8050   36.1490   -7.3200 O.3   501  SAH501     -0.2130
     16  C1'      -23.5010   37.5790   -5.4900 C.3   501  SAH501      0.3185
     17  N9       -23.9040   39.0040   -5.2880 N.pl3 501  SAH501     -0.1439
     18  C8       -23.7890   39.7480   -4.1380 C.3   501  SAH501      0.3377
     19  N7       -24.2980   40.9890   -4.3490 N.2   501  SAH501     -0.2095
     20  C5       -24.7040   41.0510   -5.6240 C.2   501  SAH501      0.2526
     21  C6       -25.2890   42.0690   -6.3540 C.2   501  SAH501      0.4393
     22  N6       -25.5290   43.2510   -5.7810 N.pl3 501  SAH501      0.2180
     23  N1       -25.6270   41.8140   -7.6600 N.2   501  SAH501      0.0021
     24  C2       -25.3980   40.5970   -8.2590 C.3   501  SAH501      0.5254
     25  N3       -24.8180   39.5900   -7.5310 N.2   501  SAH501     -0.0055
     26  C4       -24.4820   39.8150   -6.2270 C.2   501  SAH501      0.3518
@<TRIPOS>BOND
     1    24    23    1
     2    24    25    1
     3    23    21    2
     4    25    26    2
     5    15    14    1
     6    13    12    1
     7    14    12    1
     8    14    16    1
     9    21    22    1
    10    21    20    1
    11    26    20    1
    12    26    17    1
    13    12    10    1
    14    20    19    2
    15    16    17    1
    16    16    11    1
    17    17    18    1
    18    10    11    1
    19    10     9    1
    20    19    18    1
    21     9     5    1
    22     5     4    1
    23     8     6   ar
    24     4     3    1
    25     3     2    1
    26     6     2    1
    27     6     7   ar
    28     2     1    1
