@<TRIPOS>MOLECULE
2qby_ADP_A_1.pdb
 27 29 0 0 0
SMALL
GASTEIGER

@<TRIPOS>ATOM
      1  PB       -26.0610   40.8190   38.5160 P.3     8  ADP8        0.5373
      2  O1B      -27.0440   39.6640   38.4750 O.3     8  ADP8       -0.1143
      3  O2B      -26.6270   42.2220   38.4140 O.3     8  ADP8       -0.1143
      4  O3B      -24.8080   40.5670   37.6960 O.2     8  ADP8       -0.2221
      5  PA       -25.9830   39.6770   41.0960 P.3     8  ADP8        0.2231
      6  O1A      -27.2710   40.1250   41.7210 O.3     8  ADP8       -0.4370
      7  O2A      -25.8780   38.3190   40.4280 O.2     8  ADP8       -0.5169
      8  O3A      -25.6030   40.8570   40.0620 O.3     8  ADP8       -0.2261
      9  O5'      -24.8200   39.8090   42.1970 O.3     8  ADP8       -0.3111
     10  C5'      -23.9540   38.7050   42.4530 C.3     8  ADP8        0.1813
     11  C4'      -23.7360   38.7710   43.9470 C.3     8  ADP8        0.1821
     12  O4'      -24.1870   40.0710   44.3650 O.3     8  ADP8       -0.3135
     13  C3'      -24.5980   37.7110   44.6480 C.3     8  ADP8        0.2184
     14  O3'      -23.8010   36.9010   45.5520 O.3     8  ADP8       -0.2174
     15  C2'      -25.6320   38.4810   45.4550 C.3     8  ADP8        0.2570
     16  O2'      -25.6940   37.9340   46.7880 O.3     8  ADP8       -0.2130
     17  C1'      -25.0450   39.8880   45.5040 C.3     8  ADP8        0.3186
     18  N9       -26.0730   40.9520   45.6760 N.pl3   8  ADP8       -0.1439
     19  C8       -26.4610   41.8870   44.7850 C.3     8  ADP8        0.3377
     20  N7       -27.4080   42.7100   45.3140 N.2     8  ADP8       -0.2095
     21  C5       -27.6260   42.3030   46.5890 C.2     8  ADP8        0.2526
     22  C6       -28.4830   42.7180   47.7370 C.2     8  ADP8        0.4393
     23  N6       -29.3240   43.7730   47.6240 N.pl3   8  ADP8        0.2180
     24  N1       -28.3960   42.0140   48.8900 N.2     8  ADP8        0.0021
     25  C2       -27.5630   40.9650   49.0220 C.3     8  ADP8        0.5254
     26  N3       -26.7490   40.5300   48.0420 N.2     8  ADP8       -0.0055
     27  C4       -26.7370   41.1470   46.8220 C.2     8  ADP8        0.3518
@<TRIPOS>BOND
     1     4     1    2
     2     3     1    1
     3     2     1    1
     4     1     8    1
     5     8     5    1
     6     7     5    2
     7     5     6    1
     8     5     9    1
     9     9    10    1
    10    10    11    1
    11    11    12    1
    12    11    13    1
    13    12    17    1
    14    13    15    1
    15    13    14    1
    16    19    20    1
    17    19    18    1
    18    20    21    2
    19    15    17    1
    20    15    16    1
    21    17    18    1
    22    18    27    1
    23    21    27    1
    24    21    22    1
    25    27    26    2
    26    23    22    1
    27    22    24    2
    28    26    25    1
    29    24    25    1
