@<TRIPOS>MOLECULE
2qc1_MAN_B_1.pdb
 11 11 0 0 0
SMALL
GASTEIGER

@<TRIPOS>ATOM
      1  C1        -4.1640   -8.3950    8.1670 C.3   309  MAN309      0.1777
      2  C2        -3.0630   -7.6770    8.9570 C.3   309  MAN309      0.2141
      3  C3        -1.6960   -8.2820    8.6110 C.3   309  MAN309      0.2173
      4  C4        -1.7100   -9.7880    8.8890 C.3   309  MAN309      0.2142
      5  C5        -2.8650  -10.4500    8.1210 C.3   309  MAN309      0.1810
      6  C6        -3.0170  -11.9210    8.4630 C.3   309  MAN309      0.2141
      7  O2        -3.3060   -7.8300   10.3690 O.3   309  MAN309     -0.2176
      8  O3        -0.6840   -7.6610    9.3900 O.3   309  MAN309     -0.2175
      9  O4        -0.4700  -10.3620    8.4920 O.3   309  MAN309     -0.2176
     10  O5        -4.1260   -9.8020    8.4390 O.3   309  MAN309     -0.3481
     11  O6        -4.2130  -12.4540    7.9130 O.3   309  MAN309     -0.2176
@<TRIPOS>BOND
     1    11     6    1
     2     5    10    1
     3     5     6    1
     4     5     4    1
     5     1    10    1
     6     1     2    1
     7     9     4    1
     8     3     4    1
     9     3     2    1
    10     3     8    1
    11     2     7    1
