@<TRIPOS>MOLECULE
2qc6_G12_A_1.pdb
 15 16 0 0 0
SMALL
GASTEIGER

@<TRIPOS>ATOM
      1 BR2        20.6500    8.4710   20.9160 Br      1  G121       -0.0426
      2  C9        21.6920    7.9380   19.4270 C.ar    1  G121        0.1066
      3  C8        22.6210    6.7740   19.4650 C.ar    1  G121        0.3517
      4  O15       22.7870    6.0880   20.4980 O.2     1  G121       -0.2439
      5  O7        23.3140    6.4420   18.3370 O.2     1  G121       -0.4201
      6  C10       21.5510    8.6930   18.1730 C.ar    1  G121       -0.0064
      7  C13       20.6180    9.8670   18.0820 C.3     1  G121        0.0319
      8  C5        22.3540    8.2480   17.0190 C.ar    1  G121        0.0321
      9  C6        23.1930    7.1450   17.1660 C.ar    1  G121        0.1576
     10  C4        23.9390    6.7120   16.0900 C.ar    1  G121        0.1079
     11 BR1        25.0610    5.2040   16.3110 Br      1  G121       -0.0425
     12  C1        22.2670    8.9130   15.8060 C.ar    1  G121        0.0061
     13  C2        23.0180    8.4700   14.7310 C.ar    1  G121        0.0427
     14  C3        23.8530    7.3710   14.8820 C.ar    1  G121        0.2048
     15  O11       24.5830    6.9360   13.8450 O.3     1  G121       -0.2859
@<TRIPOS>BOND
     1    15    14    1
     2    13    14   ar
     3    13    12   ar
     4    14    10   ar
     5    12     8   ar
     6    10    11    1
     7    10     9   ar
     8     8     9   ar
     9     8     6   ar
    10     9     5   ar
    11     7     6    1
    12     6     2   ar
    13     5     3   ar
    14     2     3   ar
    15     2     1    1
    16     3     4    2
