@<TRIPOS>MOLECULE
2qc8_ADP_A_1.pdb
 27 29 0 0 0
SMALL
GASTEIGER

@<TRIPOS>ATOM
      1  PB       -63.7450   35.5710  -26.7510 P.3   501  ADP501      0.5373
      2  O1B      -63.3990   34.3950  -27.6210 O.2   501  ADP501     -0.2221
      3  O2B      -65.2400   35.8520  -26.6710 O.3   501  ADP501     -0.1143
      4  O3B      -62.8890   36.7630  -27.1540 O.3   501  ADP501     -0.1143
      5  PA       -62.5890   34.0710  -24.5760 P.3   501  ADP501      0.2231
      6  O1A      -63.5000   33.2000  -23.7800 O.3   501  ADP501     -0.4370
      7  O2A      -61.6880   33.4360  -25.6090 O.2   501  ADP501     -0.5169
      8  O3A      -63.3900   35.3350  -25.1790 O.3   501  ADP501     -0.2261
      9  O5'      -61.6710   34.7160  -23.4260 O.3   501  ADP501     -0.3111
     10  C5'      -62.1360   35.7210  -22.5450 C.3   501  ADP501      0.1813
     11  C4'      -60.9650   36.0540  -21.6250 C.3   501  ADP501      0.1821
     12  O4'      -61.1920   37.2370  -20.8260 O.3   501  ADP501     -0.3135
     13  C3'      -60.6940   34.9320  -20.6370 C.3   501  ADP501      0.2184
     14  O3'      -59.2860   34.7700  -20.5040 O.3   501  ADP501     -0.2174
     15  C2'      -61.2880   35.4340  -19.3460 C.3   501  ADP501      0.2570
     16  O2'      -60.7360   34.8620  -18.1560 O.3   501  ADP501     -0.2130
     17  C1'      -60.9580   36.9030  -19.4500 C.3   501  ADP501      0.3186
     18  N9       -61.7020   37.7580  -18.4960 N.pl3 501  ADP501     -0.1439
     19  C8       -62.8940   37.5540  -17.9020 C.3   501  ADP501      0.3377
     20  N7       -63.2130   38.6020  -17.0950 N.2   501  ADP501     -0.2095
     21  C5       -62.2160   39.4840  -17.1580 C.2   501  ADP501      0.2526
     22  C6       -61.9040   40.7850  -16.5680 C.2   501  ADP501      0.4393
     23  N6       -62.7470   41.3740  -15.7090 N.pl3 501  ADP501      0.2180
     24  N1       -60.7430   41.3660  -16.9050 N.2   501  ADP501      0.0021
     25  C2       -59.8780   40.8010  -17.7590 C.3   501  ADP501      0.5254
     26  N3       -60.1070   39.6210  -18.3520 N.2   501  ADP501     -0.0055
     27  C4       -61.2270   38.9280  -18.0840 C.2   501  ADP501      0.3518
@<TRIPOS>BOND
     1     2     1    2
     2     4     1    1
     3     1     3    1
     4     1     8    1
     5     7     5    2
     6     8     5    1
     7     5     6    1
     8     5     9    1
     9     9    10    1
    10    10    11    1
    11    11    12    1
    12    11    13    1
    13    12    17    1
    14    13    14    1
    15    13    15    1
    16    17    15    1
    17    17    18    1
    18    15    16    1
    19    18    27    1
    20    18    19    1
    21    26    27    2
    22    26    25    1
    23    27    21    1
    24    19    20    1
    25    25    24    1
    26    21    20    2
    27    21    22    1
    28    24    22    2
    29    22    23    1
