@<TRIPOS>MOLECULE
2qc8_P3S_A_1.pdb
 15 14 0 0 0
SMALL
GASTEIGER

@<TRIPOS>ATOM
      1  O3A      -61.7980   33.7150  -29.5680 O.3   601  P3S601     -0.1237
      2  PA       -62.2810   34.6630  -30.6880 P.3   601  P3S601      0.4896
      3  O1A      -63.7620   34.2950  -31.0620 O.2   601  P3S601     -0.2328
      4  O2A      -62.1330   36.1060  -30.2840 O.3   601  P3S601     -0.1237
      5  NE       -61.4170   34.1600  -31.9450 N.3   601  P3S601     -0.0523
      6  SD       -61.9810   34.4240  -33.4570 S.3   601  P3S601      0.0022
      7  OE       -62.6250   35.7610  -33.5060 O.3   601  P3S601     -0.1552
      8  CE       -63.0330   33.0690  -33.9550 C.3   601  P3S601      0.0974
      9  CG       -60.6020   34.2750  -34.5970 C.3   601  P3S601      0.0859
     10  CB       -59.5170   35.3020  -34.2210 C.3   601  P3S601      0.0443
     11  CA       -58.5030   35.3560  -35.3550 C.3   601  P3S601      0.1953
     12  N        -57.8270   34.0450  -35.4540 N.3   601  P3S601     -0.1208
     13  C        -57.4840   36.5130  -35.1660 C.2   601  P3S601      0.3819
     14  OT       -56.5650   36.5880  -36.0240 O.co2 601  P3S601     -0.2441
     15  O        -57.6430   37.2920  -34.1750 O.co2 601  P3S601     -0.2441
@<TRIPOS>BOND
     1    14    13   ar
     2    12    11    1
     3    11    13    1
     4    11    10    1
     5    13    15   ar
     6     9    10    1
     7     9     6    1
     8     8     6    1
     9     7     6    1
    10     6     5    1
    11     5     2    1
    12     3     2    2
    13     2     4    1
    14     2     1    1
