@<TRIPOS>MOLECULE
2qca_DGP_A_1.pdb
 23 25 0 0 0
SMALL
GASTEIGER

@<TRIPOS>ATOM
      1  P         14.8480   19.4440   28.3970 P.3   200  DGP200      0.5327
      2  OP1       15.7460   20.1210   29.4220 O.3   200  DGP200     -0.1145
      3  OP2       14.0300   18.4140   29.0610 O.3   200  DGP200     -0.1145
      4  OP3       15.5770   18.9780   27.1860 O.2   200  DGP200     -0.2224
      5  O5'       13.9350   20.6650   27.9620 O.3   200  DGP200     -0.2675
      6  C5'       14.2930   21.7600   27.1450 C.3   200  DGP200      0.1858
      7  C4'       13.0980   22.5950   26.7590 C.3   200  DGP200      0.1774
      8  O4'       13.5490   23.5490   25.7860 O.3   200  DGP200     -0.3347
      9  C3'       11.9720   21.8480   26.1040 C.3   200  DGP200      0.1857
     10  O3'       10.7610   22.4510   26.5820 O.3   200  DGP200     -0.2203
     11  C2'       12.0700   22.2020   24.6330 C.3   200  DGP200      0.0865
     12  C1'       12.6460   23.6000   24.7160 C.3   200  DGP200      0.1981
     13  N9        13.4250   24.0030   23.5460 N.pl3 200  DGP200     -0.2374
     14  C8        14.3870   23.3210   22.8550 C.3   200  DGP200      0.2245
     15  N7        14.9420   24.0860   21.9220 N.2   200  DGP200     -0.2322
     16  C5        14.1680   25.2800   21.9540 C.2   200  DGP200      0.2182
     17  C6        14.3040   26.4540   21.1510 C.1   200  DGP200      0.2372
     18  O6        15.0750   26.6680   20.2330 O.2   200  DGP200     -0.2069
     19  N1        13.3980   27.4200   21.5770 N.2   200  DGP200     -0.2485
     20  C2        12.5180   27.2860   22.6210 C.1   200  DGP200      0.2531
     21  N2        11.7410   28.3470   22.8380 N.pl3 200  DGP200     -0.0226
     22  N3        12.4200   26.2280   23.3300 N.2   200  DGP200     -0.3074
     23  C4        13.3350   25.2820   23.0450 C.2   200  DGP200      0.2299
@<TRIPOS>BOND
     1    18    17    2
     2    17    19    2
     3    17    16    1
     4    19    20    2
     5    15    16    2
     6    15    14    1
     7    16    23    1
     8    20    21    1
     9    20    22    2
    10    14    13    1
    11    23    22    2
    12    23    13    1
    13    13    12    1
    14    11    12    1
    15    11     9    1
    16    12     8    1
    17     8     7    1
    18     9    10    1
    19     9     7    1
    20     7     6    1
    21     6     5    1
    22     4     1    2
    23     5     1    1
    24     1     3    1
    25     1     2    1
