@<TRIPOS>MOLECULE
2qcb_KYS_A_1.pdb
 37 40 0 0 0
SMALL
GASTEIGER

@<TRIPOS>ATOM
      1  O56       14.2940   29.4460   -8.2430 O.2   400  KYS400      0.0000
      2  C54       15.4900   29.3700   -8.5070 C.1   400  KYS400      0.0000
      3  N55       16.4880   29.5120   -7.6340 N.2   400  KYS400      0.0000
      4  C50       17.7960   29.3680   -8.2260 C.3   400  KYS400      0.0000
      5  C51       18.5420   28.1500   -7.6980 C.3   400  KYS400      0.0000
      6  S52       17.9470   26.7570   -8.6170 S.3   400  KYS400      0.0000
      7  N53       16.0310   29.1560   -9.7090 N.2   400  KYS400      0.0000
      8  C49       17.4830   29.1190   -9.7020 C.3   400  KYS400      0.0000
      9  C48       18.0920   27.7630  -10.0760 C.3   400  KYS400      0.0000
     10  C47       17.4540   27.1000  -11.3050 C.3   400  KYS400      0.0000
     11  C46       18.3220   26.0150  -11.9430 C.3   400  KYS400      0.0000
     12  C45       17.6910   25.3640  -13.1740 C.3   400  KYS400      0.0000
     13  C40       18.6120   24.3060  -13.8020 C.3   400  KYS400      0.0000
     14  C39       19.8890   24.9190  -14.3490 C.2   400  KYS400      0.0000
     15  O41       19.7770   25.9320  -15.0420 O.2   400  KYS400      0.0000
     16  N19       21.0750   24.3760  -14.0290 N.am  400  KYS400      0.0000
     17  C21       22.2280   24.9610  -14.4550 C.ar  400  KYS400      0.0000
     18  C22       22.4240   26.1940  -14.2040 C.ar  400  KYS400      0.0000
     19  C23       23.5360   26.8690  -14.5940 C.ar  400  KYS400      0.0000
     20  C20       23.1970   24.3050  -15.1220 C.ar  400  KYS400      0.0000
     21  C24       24.3120   24.9700  -15.5060 C.ar  400  KYS400      0.0000
     22  C33       24.4770   26.2930  -15.2180 C.ar  400  KYS400      0.0000
     23  S30       25.7660   27.1230  -15.6880 S.O2  400  KYS400      0.0000
     24  O31       26.1340   28.1700  -14.7120 O.2   400  KYS400      0.0000
     25  O32       26.8980   26.1890  -15.8850 O.2   400  KYS400      0.0000
     26  N26       25.2950   27.8790  -17.0780 N.3   400  KYS400      0.0000
     27 RU1        26.6440   29.2310  -18.1000 Ru    400  KYS400      0.0000
     28 CL2        28.4770   28.0230  -17.3980 Cl    400  KYS400      0.0000
     29  C6        25.7660   31.0110  -17.2230 C.ar  400  KYS400      0.0000
     30  C7        27.1500   31.0980  -17.1080 C.ar  400  KYS400      0.0000
     31  C8        27.9610   30.9590  -18.2320 C.ar  400  KYS400      0.0000
     32  C9        27.3960   30.7330  -19.4830 C.ar  400  KYS400      0.0000
     33  C10       25.9170   30.6350  -19.5970 C.ar  400  KYS400      0.0000
     34  C5        25.1520   30.7740  -18.4510 C.ar  400  KYS400      0.0000
     35  C28       24.7920   26.8520  -18.0350 C.3   400  KYS400      0.0000
     36  C29       25.1420   27.1840  -19.4930 C.3   400  KYS400      0.0000
     37  N27       26.5300   27.6450  -19.5080 N.3   400  KYS400      0.0000
@<TRIPOS>BOND
     1    33    32   ar
     2    33    34   ar
     3    37    36    1
     4    37    27    1
     5    36    35    1
     6    32    31   ar
     7    34    29   ar
     8    31    30   ar
     9    27    29    1
    10    27    26    1
    11    35    26    1
    12    29    30   ar
    13    26    23    1
    14    25    23    2
    15    23    22    1
    16    23    24    2
    17    21    22   ar
    18    21    20   ar
    19    22    19   ar
    20    20    17   ar
    21    15    14    2
    22    19    18   ar
    23    17    18   ar
    24    17    16    1
    25    14    16   am
    26    14    13    1
    27    13    12    1
    28    12    11    1
    29    11    10    1
    30    10     9    1
    31     9     8    1
    32     9     6    1
    33     7     8    1
    34     7     2    2
    35     8     4    1
    36     6     5    1
    37     2     1    2
    38     2     3    2
    39     4     5    1
    40     4     3    1
