@<TRIPOS>MOLECULE
2qcd_U5P_A_1.pdb
 21 22 0 0 0
SMALL
GASTEIGER

@<TRIPOS>ATOM
      1  N1         5.2910    5.8290   26.1390 N.am    1  U5P1       -0.1766
      2  C2         4.5940    6.8840   25.5330 C.1     1  U5P1        0.2845
      3  N3         4.0870    6.7260   24.3030 N.2     1  U5P1       -0.2452
      4  C4         4.2050    5.5850   23.6380 C.1     1  U5P1        0.2182
      5  C5         4.8690    4.5360   24.2320 C.2     1  U5P1        0.1242
      6  C6         5.4020    4.6740   25.4810 C.2     1  U5P1        0.0929
      7  O2         4.4270    7.9780   26.1130 O.2     1  U5P1       -0.1918
      8  O4         3.7050    5.4560   22.5060 O.2     1  U5P1       -0.2085
      9  C1'        5.8390    5.9170   27.5120 C.3     1  U5P1        0.2401
     10  C2'        6.9060    6.9900   27.7280 C.3     1  U5P1        0.2319
     11  O2'        8.2000    6.4570   27.4890 O.3     1  U5P1       -0.2157
     12  C3'        6.7090    7.4060   29.1630 C.3     1  U5P1        0.2158
     13  C4'        5.2010    7.2440   29.3650 C.3     1  U5P1        0.1801
     14  O3'        7.4400    6.5520   30.0790 O.3     1  U5P1       -0.2175
     15  O4'        4.7870    6.2190   28.4460 O.3     1  U5P1       -0.3320
     16  C5'        4.4060    8.5190   29.0840 C.3     1  U5P1        0.1859
     17  O5'        4.6310    9.4360   30.1720 O.3     1  U5P1       -0.2675
     18  P          3.8850   10.8540   30.3520 P.3     1  U5P1        0.5327
     19  O1P        4.7500   11.4630   31.4290 O.3     1  U5P1       -0.1145
     20  O2P        3.8570   11.5040   29.0000 O.2     1  U5P1       -0.2224
     21  O3P        2.5210   10.3990   30.8430 O.3     1  U5P1       -0.1145
@<TRIPOS>BOND
     1     8     4    2
     2     4     5    1
     3     4     3    2
     4     5     6    2
     5     3     2    2
     6     6     1    1
     7     2     7    2
     8     2     1   am
     9     1     9    1
    10    11    10    1
    11     9    10    1
    12     9    15    1
    13    10    12    1
    14    15    13    1
    15    20    18    2
    16    16    13    1
    17    16    17    1
    18    12    13    1
    19    12    14    1
    20    17    18    1
    21    18    21    1
    22    18    19    1
