@<TRIPOS>MOLECULE
2qcf_5FU_A_1.pdb
 22 23 0 0 0
SMALL
GASTEIGER

@<TRIPOS>ATOM
      1  F5        16.3060    8.7520   33.7230 F     501  5FU501     -0.1891
      2  C5        15.9800    9.2210   34.9890 C.2   501  5FU501      0.2499
      3  C4        16.9390    9.4440   35.9280 C.1   501  5FU501      0.2454
      4  O4        18.1720    9.1820   35.7460 O.2   501  5FU501     -0.2062
      5  N3        16.5800    9.8720   37.1420 N.2   501  5FU501     -0.2430
      6  C2        15.2840   10.1580   37.4230 C.1   501  5FU501      0.2846
      7  O2        14.9760   10.5570   38.5550 O.2   501  5FU501     -0.1918
      8  C6        14.6790    9.5550   35.2410 C.2   501  5FU501      0.1222
      9  N1        14.3380    9.9890   36.4470 N.am  501  5FU501     -0.1744
     10  C1'       12.9200   10.2800   36.6940 C.3   501  5FU501      0.2401
     11  O4'       12.7930   11.6730   37.0280 O.3   501  5FU501     -0.3319
     12  C2'       12.2680    9.5120   37.8100 C.3   501  5FU501      0.2319
     13  O2'       11.6420    8.3250   37.3530 O.3   501  5FU501     -0.2157
     14  C3'       11.2490   10.4610   38.3510 C.3   501  5FU501      0.2158
     15  O3'       10.0380   10.3420   37.6040 O.3   501  5FU501     -0.2175
     16  C4'       11.8760   11.8080   38.1280 C.3   501  5FU501      0.1801
     17  C5'       12.6580   12.2880   39.3330 C.3   501  5FU501      0.1859
     18  O5'       11.6870   12.5960   40.3270 O.3   501  5FU501     -0.2675
     19  P         12.0870   13.2910   41.7190 P.3   501  5FU501      0.5327
     20  O1P       10.8150   13.1480   42.4880 O.3   501  5FU501     -0.1145
     21  O2P       13.2260   12.5200   42.3150 O.3   501  5FU501     -0.1145
     22  O3P       12.3990   14.7290   41.4060 O.2   501  5FU501     -0.2224
@<TRIPOS>BOND
     1     1     2    1
     2     2     8    2
     3     2     3    1
     4     8     9    1
     5     4     3    2
     6     3     5    2
     7     9    10    1
     8     9     6   am
     9    10    11    1
    10    10    12    1
    11    11    16    1
    12     5     6    2
    13    13    12    1
    14     6     7    2
    15    15    14    1
    16    12    14    1
    17    16    14    1
    18    16    17    1
    19    17    18    1
    20    18    19    1
    21    22    19    2
    22    19    21    1
    23    19    20    1
