@<TRIPOS>MOLECULE
2qcg_5BU_A_1.pdb
 22 23 0 0 0
SMALL
GASTEIGER

@<TRIPOS>ATOM
      1  P          3.7020   13.3990   29.8730 P.3     1  5BU1        0.5327
      2  OP1        4.5670   14.1280   30.8970 O.3     1  5BU1       -0.1145
      3  OP2        3.7400   14.1180   28.5130 O.2     1  5BU1       -0.2224
      4  OP3        2.3300   13.1380   30.3440 O.3     1  5BU1       -0.1145
      5  O5'        4.4390   11.9460   29.7280 O.3     1  5BU1       -0.2675
      6  C5'        4.0100   10.9210   28.7840 C.3     1  5BU1        0.1859
      7  C4'        4.9730    9.6690   28.8810 C.3     1  5BU1        0.1801
      8  O4'        4.5350    8.7520   27.8940 O.3     1  5BU1       -0.3320
      9  C3'        6.4700    9.9660   28.6340 C.3     1  5BU1        0.2158
     10  O3'        7.3430    9.2230   29.5220 O.3     1  5BU1       -0.2175
     11  C2'        6.6990    9.5020   27.2300 C.3     1  5BU1        0.2319
     12  O2'        8.0300    9.0690   26.9530 O.3     1  5BU1       -0.2157
     13  C1'        5.6830    8.4430   27.0230 C.3     1  5BU1        0.2401
     14  N1         5.1920    8.3840   25.6570 N.am    1  5BU1       -0.1762
     15  C2         4.4250    9.4100   25.0670 C.1     1  5BU1        0.2845
     16  O2         4.1200   10.5070   25.7090 O.2     1  5BU1       -0.1918
     17  N3         3.9620    9.2240   23.7700 N.2     1  5BU1       -0.2447
     18  C4         4.2740    8.0900   23.0710 C.1     1  5BU1        0.2238
     19  O4         3.7840    8.0350   21.8660 O.2     1  5BU1       -0.2080
     20  C5         5.1010    7.0890   23.7020 C.2     1  5BU1        0.1452
     21  C6         5.5280    7.2770   24.9800 C.2     1  5BU1        0.0989
     22 BR          5.7240    5.4100   22.9170 Br      1  5BU1       -0.0340
@<TRIPOS>BOND
     1    19    18    2
     2    22    20    1
     3    18    20    1
     4    18    17    2
     5    20    21    2
     6    17    15    2
     7    21    14    1
     8    15    14   am
     9    15    16    2
    10    14    13    1
    11    12    11    1
    12    13    11    1
    13    13     8    1
    14    11     9    1
    15     8     7    1
    16     3     1    2
    17     9     7    1
    18     9    10    1
    19     6     7    1
    20     6     5    1
    21     5     1    1
    22     1     4    1
    23     1     2    1
