@<TRIPOS>MOLECULE
2qch_5IU_A_1.pdb
 21 22 0 0 0
SMALL
GASTEIGER

@<TRIPOS>ATOM
      1  N1        21.2840   -3.7430   14.1590 N.am    1  5IU1       -0.1786
      2  C2        20.8880   -4.5450   13.0540 C.1     1  5IU1        0.2845
      3  N3        19.8940   -4.1490   12.2420 N.2     1  5IU1       -0.2448
      4  C4        19.2450   -2.9970   12.4450 C.1     1  5IU1        0.2229
      5  C5        19.6450   -2.1470   13.5910 C.2     1  5IU1        0.1405
      6  C6        20.6730   -2.5820   14.4000 C.2     1  5IU1        0.0979
      7  O2        21.4530   -5.6340   12.8130 O.2     1  5IU1       -0.1918
      8  O4        18.3210   -2.6420   11.6820 O.2     1  5IU1       -0.2081
      9  I5        18.6970   -0.3230   14.0010 I       1  5IU1       -0.0273
     10  C1'       22.3730   -4.1010   15.0770 C.3     1  5IU1        0.2090
     11  C2'       21.9530   -5.1240   16.1150 C.3     1  5IU1        0.0874
     12  C3'       23.2430   -5.8540   16.4020 C.3     1  5IU1        0.1857
     13  C4'       24.0620   -5.7090   15.1250 C.3     1  5IU1        0.1774
     14  O3'       23.9050   -5.2430   17.5130 O.3     1  5IU1       -0.2203
     15  O4'       23.4910   -4.6430   14.3740 O.3     1  5IU1       -0.3339
     16  C5'       24.0100   -6.9530   14.2580 C.3     1  5IU1        0.1858
     17  O5'       25.0300   -7.8580   14.6550 O.3     1  5IU1       -0.2675
     18  P         25.3940   -9.1000   13.7050 P.3     1  5IU1        0.5327
     19  OP1       26.1230  -10.0170   14.6500 O.3     1  5IU1       -0.1145
     20  OP2       26.2430   -8.4860   12.6210 O.2     1  5IU1       -0.2224
     21  OP3       24.0460   -9.5930   13.2480 O.3     1  5IU1       -0.1145
@<TRIPOS>BOND
     1     8     4    2
     2     3     4    2
     3     3     2    2
     4     4     5    1
     5    20    18    2
     6     7     2    2
     7     2     1   am
     8    21    18    1
     9     5     9    1
    10     5     6    2
    11    18    19    1
    12    18    17    1
    13     1     6    1
    14     1    10    1
    15    16    17    1
    16    16    13    1
    17    15    10    1
    18    15    13    1
    19    10    11    1
    20    13    12    1
    21    11    12    1
    22    12    14    1
