@<TRIPOS>MOLECULE
2qch_UMP_A_1.pdb
 20 21 0 0 0
SMALL
GASTEIGER

@<TRIPOS>ATOM
      1  N1        21.1350   -3.8980   14.1590 N.am    2  UMP2       -0.1790
      2  C2        20.8530   -4.8360   13.1790 C.1     2  UMP2        0.2844
      3  N3        19.9270   -4.5560   12.1930 N.2     2  UMP2       -0.2452
      4  C4        19.3110   -3.3210   12.1740 C.1     2  UMP2        0.2182
      5  C5        19.6050   -2.3800   13.1510 C.2     2  UMP2        0.1242
      6  C6        20.5200   -2.6810   14.1290 C.2     2  UMP2        0.0928
      7  O2        21.3900   -5.9400   13.1700 O.2     2  UMP2       -0.1918
      8  O4        18.4880   -3.0480   11.3070 O.2     2  UMP2       -0.2085
      9  C1'       22.1330   -4.0970   15.2290 C.3     2  UMP2        0.2090
     10  C2'       21.8830   -5.2280   16.2070 C.3     2  UMP2        0.0874
     11  C3'       23.2920   -5.6370   16.5610 C.3     2  UMP2        0.1857
     12  C4'       24.1100   -5.3390   15.3100 C.3     2  UMP2        0.1774
     13  O3'       23.7420   -4.8530   17.6390 O.3     2  UMP2       -0.2203
     14  O4'       23.3780   -4.3610   14.6130 O.3     2  UMP2       -0.3339
     15  C5'       24.3020   -6.5150   14.3530 C.3     2  UMP2        0.1858
     16  O5'       24.8130   -7.6350   15.0320 O.3     2  UMP2       -0.2675
     17  P         25.3750   -8.9320   14.2610 P.3     2  UMP2        0.5327
     18  OP1       25.9820   -9.7560   15.3670 O.3     2  UMP2       -0.1145
     19  OP2       26.4000   -8.5390   13.2280 O.2     2  UMP2       -0.2224
     20  OP3       24.3000   -9.6650   13.5630 O.3     2  UMP2       -0.1145
@<TRIPOS>BOND
     1     8     4    2
     2     4     3    2
     3     4     5    1
     4     3     2    2
     5     5     6    2
     6     7     2    2
     7     2     1   am
     8    19    17    2
     9    20    17    1
    10     6     1    1
    11     1     9    1
    12    17    16    1
    13    17    18    1
    14    15    16    1
    15    15    12    1
    16    14     9    1
    17    14    12    1
    18     9    10    1
    19    12    11    1
    20    10    11    1
    21    11    13    1
