@<TRIPOS>MOLECULE
2qci_065_B_1.pdb
 40 44 0 0 0
SMALL
GASTEIGER

@<TRIPOS>ATOM
      1  C2        20.8400   27.7190   14.8590 C.ar  404  065404      0.1765
      2  O39       21.6910   28.7780   14.7140 O.3   404  065404     -0.4346
      3  C40       22.8830   28.3380   15.2960 C.3   404  065404      0.4294
      4  O41       22.7950   27.0160   15.6590 O.3   404  065404     -0.4346
      5  C3        21.4950   26.6740   15.5020 C.ar  404  065404      0.1778
      6  C4        20.8310   25.4920   15.8160 C.ar  404  065404      0.0601
      7  C5        19.4920   25.4100   15.5140 C.ar  404  065404      0.1254
      8  C6        18.8300   26.4640   14.9140 C.ar  404  065404      0.0232
      9  C7        19.4910   27.6260   14.5510 C.ar  404  065404      0.0416
     10  S8        18.5740   23.9820   15.9900 S.O2  404  065404      0.0635
     11  O9        17.4610   23.8250   15.0450 O.2   404  065404     -0.1528
     12  O10       19.5680   22.8740   16.1660 O.2   404  065404     -0.1528
     13  N11       17.9300   24.2880   17.4810 N.3   404  065404     -0.1529
     14  C12       18.8760   24.6140   18.5330 C.3   404  065404      0.0958
     15  C13       18.5550   23.9310   19.8740 C.3   404  065404      0.0178
     16  C14       18.6020   22.4090   19.7060 C.3   404  065404      0.0015
     17  C15       19.5810   24.3970   20.9050 C.3   404  065404      0.0015
     18  C16       16.6630   24.9780   17.5220 C.3   404  065404      0.1304
     19  C17       15.5430   24.0880   18.0700 C.3   404  065404      0.1898
     20  O18       14.3940   24.9240   18.3420 O.3   404  065404     -0.2197
     21  C19       15.1500   22.9820   17.0800 C.3   404  065404      0.1347
     22  N20       14.2320   22.0960   17.8230 N.am  404  065404     -0.1675
     23  C21       14.5290   20.8540   18.1790 C.2   404  065404      0.4211
     24  O22       15.6110   20.2990   17.9270 O.2   404  065404     -0.2246
     25  O23       13.5420   20.2390   18.8530 O.3   404  065404     -0.4345
     26  C24       13.7100   18.8430   19.0980 C.3   404  065404      0.2048
     27  C25       13.0490   18.5810   20.4530 C.3   404  065404      0.1884
     28  O26       11.6250   18.6180   20.2230 O.3   404  065404     -0.3265
     29  C27       11.4250   18.0190   18.9200 C.3   404  065404      0.2388
     30  O28       10.4990   18.8570   18.2260 O.3   404  065404     -0.3304
     31  C29       11.1900   19.5520   17.1940 C.3   404  065404      0.1451
     32  C30       12.4200   18.7000   16.8530 C.3   404  065404      0.0409
     33  C31       12.7440   18.0470   18.1970 C.3   404  065404      0.1016
     34  C32       14.4090   23.5000   15.8530 C.3   404  065404      0.0508
     35  C33       12.6770   21.9440   14.7860 C.ar  404  065404     -0.0042
     36  C34       12.3100   20.8880   13.9760 C.ar  404  065404     -0.0003
     37  C35       13.2880   20.1540   13.3220 C.ar  404  065404     -0.0000
     38  C36       14.6070   20.5540   13.4630 C.ar  404  065404     -0.0003
     39  C37       14.9840   21.6270   14.2710 C.ar  404  065404     -0.0042
     40  C38       14.0140   22.3400   14.9510 C.ar  404  065404     -0.0204
@<TRIPOS>BOND
     1    37    38   ar
     2    37    36   ar
     3    38    39   ar
     4    36    35   ar
     5    39    40   ar
     6     9     1   ar
     7     9     8   ar
     8     2     1    1
     9     2     3    1
    10    35    40   ar
    11     1     5   ar
    12     8     7   ar
    13    40    34    1
    14    11    10    2
    15     3     4    1
    16     5     4    1
    17     5     6   ar
    18     7     6   ar
    19     7    10    1
    20    34    21    1
    21    10    12    2
    22    10    13    1
    23    32    31    1
    24    32    33    1
    25    21    22    1
    26    21    19    1
    27    31    30    1
    28    13    18    1
    29    13    14    1
    30    18    19    1
    31    22    23   am
    32    24    23    2
    33    19    20    1
    34    23    25    1
    35    33    29    1
    36    33    26    1
    37    30    29    1
    38    14    15    1
    39    25    26    1
    40    29    28    1
    41    26    27    1
    42    16    15    1
    43    15    17    1
    44    28    27    1
