@<TRIPOS>MOLECULE
2qcl_OMP_A_1.pdb
 24 25 0 0 0
SMALL
GASTEIGER

@<TRIPOS>ATOM
      1  P          3.1380   10.7440   30.1660 P.3     1  OMP1        0.5327
      2  O1P        3.0780   11.3890   28.8200 O.2     1  OMP1       -0.2224
      3  O2P        4.0840   11.3950   31.1600 O.3     1  OMP1       -0.1145
      4  O3P        1.7860   10.3600   30.7360 O.3     1  OMP1       -0.1145
      5  O5'        3.8590    9.3070   29.9930 O.3     1  OMP1       -0.2675
      6  C5'        3.5160    8.3620   28.9760 C.3     1  OMP1        0.1859
      7  C4'        4.3960    7.1180   29.1480 C.3     1  OMP1        0.1801
      8  O4'        4.0360    6.1480   28.1590 O.3     1  OMP1       -0.3322
      9  C3'        5.8650    7.4230   28.9070 C.3     1  OMP1        0.2158
     10  O3'        6.6940    6.4670   29.5870 O.3     1  OMP1       -0.2175
     11  C2'        6.0140    7.1930   27.4210 C.3     1  OMP1        0.2316
     12  O2'        7.3500    6.8980   27.0310 O.3     1  OMP1       -0.2157
     13  C1'        5.1120    5.9940   27.2170 C.3     1  OMP1        0.2365
     14  N1         4.6240    5.8450   25.8340 N.am    1  OMP1       -0.1902
     15  C2         3.8390    6.8360   25.2000 C.1     1  OMP1        0.2807
     16  O2         3.5630    7.8980   25.7750 O.2     1  OMP1       -0.1922
     17  N3         3.3680    6.6550   23.9460 N.2     1  OMP1       -0.2496
     18  C4         3.5940    5.5510   23.2270 C.1     1  OMP1        0.1946
     19  O4         3.1200    5.4370   22.0790 O.2     1  OMP1       -0.2133
     20  C5         4.3690    4.5320   23.7600 C.3     1  OMP1        0.1677
     21  C6         4.7070    4.5840   25.2160 C.3     1  OMP1        0.2074
     22  C7         4.5000    3.3280   26.0010 C.2     1  OMP1        0.3844
     23  O71        5.2930    2.3730   25.8600 O.co2   1  OMP1       -0.2438
     24  O72        3.5510    3.2430   26.8200 O.co2   1  OMP1       -0.2438
@<TRIPOS>BOND
     1    19    18    2
     2    18    20    1
     3    18    17    2
     4    20    21    1
     5    17    15    2
     6    15    16    2
     7    15    14   am
     8    21    14    1
     9    21    22    1
    10    14    13    1
    11    23    22   ar
    12    22    24   ar
    13    12    11    1
    14    13    11    1
    15    13     8    1
    16    11     9    1
    17     8     7    1
    18     2     1    2
    19     9     7    1
    20     9    10    1
    21     6     7    1
    22     6     5    1
    23     5     1    1
    24     1     4    1
    25     1     3    1
