@<TRIPOS>MOLECULE
2qcm_JW5_A_1.pdb
 23 24 0 0 0
SMALL
GASTEIGER

@<TRIPOS>ATOM
      1  O2        15.2590   10.7090   38.9130 O.2   482  JW5482     -0.1919
      2  C2        15.5750   10.2460   37.7900 C.1   482  JW5482      0.2843
      3  N3        16.8910    9.9770   37.5880 N.2   482  JW5482     -0.2452
      4  C4        17.3280    9.4630   36.4090 C.1   482  JW5482      0.2180
      5  O4        18.5790    9.2320   36.2390 O.2   482  JW5482     -0.2085
      6  C5        16.4040    9.2210   35.4240 C.2   482  JW5482      0.1211
      7  C6        15.0430    9.5150   35.6400 C.2   482  JW5482      0.0885
      8  C7        14.1920    9.5190   34.3960 C.3   482  JW5482      0.2248
      9  O7        13.7420   10.8970   34.1670 O.3   482  JW5482     -0.2137
     10  N1        14.6580   10.0320   36.8330 N.am  482  JW5482     -0.1794
     11  C1'       13.2350   10.3560   37.0710 C.3   482  JW5482      0.2398
     12  O4'       13.0990   11.7820   37.3680 O.3   482  JW5482     -0.3320
     13  C2'       12.5510    9.6100   38.2170 C.3   482  JW5482      0.2319
     14  O2'       11.9540    8.3790   37.7670 O.3   482  JW5482     -0.2157
     15  C3'       11.4990   10.5890   38.6820 C.3   482  JW5482      0.2158
     16  O3'       10.2720   10.4520   37.9310 O.3   482  JW5482     -0.2175
     17  C4'       12.1590   11.9410   38.4380 C.3   482  JW5482      0.1801
     18  C5'       12.8750   12.4720   39.6790 C.3   482  JW5482      0.1859
     19  O5'       11.9090   12.7420   40.6690 O.3   482  JW5482     -0.2675
     20  P         12.2380   13.4220   42.0980 P.3   482  JW5482      0.5327
     21  O1P       10.9660   13.2580   42.8590 O.3   482  JW5482     -0.1145
     22  O3P       12.5760   14.8690   41.7820 O.2   482  JW5482     -0.2224
     23  O2P       13.4140   12.6790   42.6710 O.3   482  JW5482     -0.1145
@<TRIPOS>BOND
     1     9     8    1
     2     8     7    1
     3     6     7    2
     4     6     4    1
     5     7    10    1
     6     5     4    2
     7     4     3    2
     8    10    11    1
     9    10     2   am
    10    11    12    1
    11    11    13    1
    12    12    17    1
    13     3     2    2
    14    14    13    1
    15     2     1    2
    16    16    15    1
    17    13    15    1
    18    17    15    1
    19    17    18    1
    20    18    19    1
    21    19    20    1
    22    22    20    2
    23    20    23    1
    24    20    21    1
