@<TRIPOS>MOLECULE
2qcn_U5P_A_1.pdb
 21 22 0 0 0
SMALL
GASTEIGER

@<TRIPOS>ATOM
      1  N1         4.7580    8.1560   25.5670 N.am  501  U5P501     -0.1766
      2  C2         3.9130    9.1390   25.0880 C.1   501  U5P501      0.2845
      3  N3         3.2860    8.9940   23.8940 N.2   501  U5P501     -0.2452
      4  C4         3.4370    7.8620   23.1820 C.1   501  U5P501      0.2182
      5  C5         4.2900    6.8320   23.6200 C.2   501  U5P501      0.1242
      6  C6         4.9360    7.0150   24.8610 C.2   501  U5P501      0.0929
      7  O2         3.8110   10.1960   25.7340 O.2   501  U5P501     -0.1918
      8  O4         2.8110    7.7530   22.0920 O.2   501  U5P501     -0.2085
      9  C1'        5.3380    8.3500   26.9270 C.3   501  U5P501      0.2401
     10  C2'        6.2120    9.5450   27.1830 C.3   501  U5P501      0.2319
     11  O2'        7.5620    9.0750   27.1210 O.3   501  U5P501     -0.2157
     12  C3'        5.8870    9.9140   28.6380 C.3   501  U5P501      0.2158
     13  C4'        4.4050    9.5960   28.7600 C.3   501  U5P501      0.1801
     14  O3'        6.5960    9.1030   29.6070 O.3   501  U5P501     -0.2175
     15  O4'        4.1740    8.5460   27.7950 O.3   501  U5P501     -0.3320
     16  C5'        3.5230   10.8500   28.5840 C.3   501  U5P501      0.1859
     17  O5'        3.6750   11.5750   29.8220 O.3   501  U5P501     -0.2675
     18  P          2.9570   13.0290   29.9640 P.3   501  U5P501      0.5327
     19  O1P        1.5070   12.8200   30.4270 O.3   501  U5P501     -0.1145
     20  O2P        3.0090   13.8390   28.7100 O.2   501  U5P501     -0.2224
     21  O3P        3.8050   13.6890   31.0480 O.3   501  U5P501     -0.1145
@<TRIPOS>BOND
     1     8     4    2
     2     4     5    1
     3     4     3    2
     4     5     6    2
     5     3     2    2
     6     6     1    1
     7     2     1   am
     8     2     7    2
     9     1     9    1
    10     9    10    1
    11     9    15    1
    12    11    10    1
    13    10    12    1
    14    15    13    1
    15    16    13    1
    16    16    17    1
    17    12    13    1
    18    12    14    1
    19    20    18    2
    20    17    18    1
    21    18    19    1
    22    18    21    1
