@<TRIPOS>MOLECULE
2qct_561_A_1.pdb
 34 38 0 0 0
SMALL
GASTEIGER

@<TRIPOS>ATOM
      1  C1        -2.6520 -198.3270   25.4020 C.ar  295  561295      0.0393
      2  C2        -2.1180 -197.6130   26.5970 C.ar  295  561295      0.1487
      3  C3        -4.0670 -198.7920   25.2070 C.ar  295  561295      0.0130
      4  C4        -4.9010 -198.4790   26.2560 C.ar  295  561295      0.1188
      5  C5        -3.0960 -197.2590   27.7620 C.ar  295  561295      0.0797
      6  C6        -1.5360 -198.5070   24.5420 C.ar  295  561295      0.0571
      7  C7        -4.4850 -197.6390   27.6930 C.ar  295  561295      0.2051
      8  C8        -0.4330 -197.8610   25.2630 C.ar  295  561295      0.1808
      9  O1        -5.2550 -197.2400   28.8660 O.3   295  561295     -0.2862
     10  O2        -0.8230 -197.3150   26.5360 O.2   295  561295     -0.4503
     11  C21       -6.0100 -198.7320   26.2530 C.2   295  561295      0.3909
     12  O4        -6.9810 -199.1150   25.1590 O.co2 295  561295     -0.2404
     13  O5        -6.7830 -198.6050   27.1230 O.co2 295  561295     -0.2404
     14  C9        -1.5320 -199.0820   23.3990 C.2   295  561295      0.1003
     15  N3        -1.0640 -198.7810   22.1700 N.2   295  561295     -0.1495
     16  N1        -0.3420 -199.9210   21.7900 N.pl3 295  561295     -0.0628
     17  N2        -0.3300 -200.9850   22.7260 N.3   295  561295     -0.1630
     18  C10       -1.0510 -200.4870   23.7410 C.3   295  561295      0.1426
     19  C31        2.0950 -202.0170   22.5080 C.3   295  561295      0.0288
     20  C32        1.6050 -203.4820   22.5920 C.3   295  561295      0.0887
     21  C33        0.8470 -201.1800   22.7490 C.3   295  561295      0.0964
     22  C34        2.6580 -204.3300   22.2500 C.2   295  561295      0.2456
     23  O11        3.8820 -204.1860   22.4370 O.2   295  561295     -0.2730
     24  N11        2.2820 -205.5490   21.7540 N.am  295  561295     -0.1792
     25  C41        3.8480 -209.1300   18.0650 C.ar  295  561295      0.0000
     26  C42        2.2080 -206.7790   20.7460 C.ar  295  561295      0.0733
     27  C43        0.5550 -208.4290   19.8360 C.ar  295  561295      0.0013
     28  C44        0.9120 -207.3290   20.7350 C.ar  295  561295      0.0166
     29  C45        3.2060 -207.4110   19.8460 C.ar  295  561295      0.0153
     30  C46        2.9080 -208.4930   18.9490 C.ar  295  561295      0.0013
     31  C47        1.5170 -209.0080   18.9770 C.ar  295  561295      0.0001
     32  C48        4.5670 -206.9800   19.7600 C.ar  295  561295      0.0013
     33  C49        5.5160 -207.5640   18.9090 C.ar  295  561295      0.0000
     34  C50        5.1700 -208.6570   18.0370 C.ar  295  561295      0.0000
@<TRIPOS>BOND
     1    34    25   ar
     2    34    33   ar
     3    25    30   ar
     4    33    32   ar
     5    30    31   ar
     6    30    29   ar
     7    31    27   ar
     8    32    29   ar
     9    27    28   ar
    10    29    26   ar
    11    28    26   ar
    12    26    24    1
    13    24    22   am
    14    16    15    1
    15    16    17    1
    16    15    14    2
    17    22    23    2
    18    22    20    1
    19    19    20    1
    20    19    21    1
    21    17    21    1
    22    17    18    1
    23    14    18    1
    24    14     6    1
    25     6     8   ar
    26     6     1   ar
    27    12    11   ar
    28     3     1   ar
    29     3     4   ar
    30     8    10   ar
    31     1     2   ar
    32    11     4    1
    33    11    13   ar
    34     4     7   ar
    35    10     2   ar
    36     2     5   ar
    37     7     5   ar
    38     7     9    1
