@<TRIPOS>MOLECULE
2qd1_PP9_A_1.pdb
 42 46 0 0 0
SMALL
GASTEIGER

@<TRIPOS>ATOM
      1  CHA        9.2190   15.6230   -8.4850 C.2   701  PP9701      0.0981
      2  CHB        4.9240   15.9770   -6.4440 C.2   701  PP9701      0.1301
      3  CHC        4.0370   11.4120   -7.2930 C.2   701  PP9701      0.1301
      4  CHD        8.3410   11.0050   -9.3810 C.2   701  PP9701      0.0981
      5  NA         6.9880   15.3710   -7.5540 N.2   701  PP9701     -0.3673
      6  C1A        8.1420   16.1180   -7.7790 C.2   701  PP9701      0.1469
      7  C2A        8.0190   17.4220   -7.1870 C.2   701  PP9701      0.0143
      8  C3A        6.8160   17.4880   -6.6450 C.2   701  PP9701      0.0336
      9  C4A        6.1760   16.2570   -6.8590 C.1   701  PP9701      0.0084
     10  CMA        6.2600   18.7220   -5.9100 C.3   701  PP9701      0.0412
     11  CAA        8.9200   18.6090   -7.1520 C.3   701  PP9701      0.0411
     12  CBA        9.6450   18.4670   -5.8220 C.3   701  PP9701      0.1188
     13  CGA        9.3640   19.1890   -4.6060 C.2   701  PP9701      0.3652
     14  O1A        8.8260   20.2840   -4.6610 O.co2 701  PP9701     -0.2456
     15  O2A        9.6490   18.6200   -3.5640 O.co2 701  PP9701     -0.2456
     16  NB         4.8410   13.6850   -7.0690 N.2   701  PP9701     -0.3327
     17  C1B        4.2660   14.8230   -6.5470 C.1   701  PP9701      0.0183
     18  C2B        2.9300   14.6130   -6.1280 C.2   701  PP9701      0.0407
     19  C3B        2.6380   13.3310   -6.3660 C.2   701  PP9701      0.0404
     20  C4B        3.8420   12.7410   -6.9400 C.1   701  PP9701      0.0183
     21  CMB        1.9870   15.6420   -5.5090 C.3   701  PP9701      0.0418
     22  CAB        1.3040   12.6730   -6.0310 C.3   701  PP9701      0.0364
     23  CBB        0.6190   11.8280   -7.0900 C.3   701  PP9701      0.0058
     24  NC         6.2930   11.5930   -8.1960 N.2   701  PP9701     -0.3673
     25  C1C        5.1760   10.8470   -7.8490 C.1   701  PP9701      0.0084
     26  C2C        5.3510    9.4680   -8.2100 C.2   701  PP9701      0.0336
     27  C3C        6.5390    9.3510   -8.8140 C.2   701  PP9701      0.0138
     28  C4C        7.1230   10.6670   -8.8170 C.2   701  PP9701      0.1469
     29  CMC        4.3970    8.3040   -7.9550 C.3   701  PP9701      0.0412
     30  CAC        7.1360    8.0430   -9.3270 C.3   701  PP9701      0.0293
     31  CBC        7.2680    6.8550   -8.3830 C.3   701  PP9701      0.0051
     32  ND         8.4230   13.3380   -8.7660 N.2   701  PP9701     -0.3338
     33  C1D        8.9580   12.2340   -9.3940 C.1   701  PP9701      0.0112
     34  C2D       10.1100   12.6070  -10.1710 C.2   701  PP9701      0.0402
     35  C3D       10.4460   13.8620   -9.8210 C.2   701  PP9701      0.0404
     36  C4D        9.3640   14.3410   -8.9950 C.1   701  PP9701      0.0112
     37  CMD       10.8590   11.7670  -11.2140 C.3   701  PP9701      0.0418
     38  CAD       11.5560   14.6760  -10.4680 C.3   701  PP9701      0.0482
     39  CBD       12.5090   15.4840   -9.6390 C.3   701  PP9701      0.1194
     40  CGD       13.9120   15.5570  -10.1610 C.2   701  PP9701      0.3652
     41  O1D       14.1280   15.1500  -11.3040 O.co2 701  PP9701     -0.2456
     42  O2D       14.8010   16.0260   -9.4440 O.co2 701  PP9701     -0.2456
@<TRIPOS>BOND
     1    41    40   ar
     2    37    34    1
     3    38    35    1
     4    38    39    1
     5    34    35    2
     6    34    33    1
     7    40    39    1
     8    40    42   ar
     9    35    36    1
    10    33     4    2
    11    33    32    2
    12     4    28    1
    13    30    27    1
    14    30    31    1
    15    36    32    2
    16    36     1    2
    17    28    27    1
    18    28    24    2
    19    27    26    2
    20     1     6    1
    21    26    29    1
    22    26    25    1
    23    24    25    2
    24    25     3    2
    25     6     5    2
    26     6     7    1
    27     5     9    2
    28     3    20    1
    29     7    11    1
    30     7     8    2
    31    11    12    1
    32    23    22    1
    33    16    20    2
    34    16    17    2
    35    20    19    2
    36     9     8    1
    37     9     2    2
    38     8    10    1
    39    17     2    1
    40    17    18    2
    41    19    18    1
    42    19    22    1
    43    18    21    1
    44    12    13    1
    45    14    13   ar
    46    13    15   ar
