@<TRIPOS>MOLECULE
2qd2_HEM_A_1.pdb
 43 50 0 0 0
SMALL
GASTEIGER

@<TRIPOS>ATOM
      1 FE         36.6640   28.4830   19.2230 Fe    602  HEM602      0.0000
      2  CHA       38.5920   31.1790   18.3710 C.2   602  HEM602      0.0000
      3  CHB       36.8640   27.3500   16.0850 C.2   602  HEM602      0.0000
      4  CHC       34.7410   25.7830   20.0830 C.2   602  HEM602      0.0000
      5  CHD       36.4480   29.5960   22.3590 C.2   602  HEM602      0.0000
      6  NA        37.5250   29.0990   17.5450 N.ar  602  HEM602      0.0000
      7  C1A       38.3040   30.2680   17.3520 C.ar  602  HEM602      0.0000
      8  C2A       38.7420   30.3860   16.0120 C.ar  602  HEM602      0.0000
      9  C3A       38.2440   29.3010   15.3840 C.ar  602  HEM602      0.0000
     10  C4A       37.4990   28.5000   16.3250 C.ar  602  HEM602      0.0000
     11  CMA       38.4000   28.9110   13.8930 C.3   602  HEM602      0.0000
     12  CAA       39.5820   31.4590   15.3430 C.3   602  HEM602      0.0000
     13  CBA       38.7680   32.7160   15.0620 C.3   602  HEM602      0.0000
     14  CGA       38.5590   33.0170   13.5940 C.2   602  HEM602      0.0000
     15  O1A       37.4940   33.6150   13.2270 O.co2 602  HEM602      0.0000
     16  O2A       39.4200   32.7080   12.8280 O.co2 602  HEM602      0.0000
     17  NB        35.9620   26.8780   18.2320 N.2   602  HEM602      0.0000
     18  C1B       36.1250   26.5460   16.9570 C.2   602  HEM602      0.0000
     19  C2B       35.4800   25.3030   16.5760 C.2   602  HEM602      0.0000
     20  C3B       34.8570   24.8530   17.7900 C.2   602  HEM602      0.0000
     21  C4B       35.1670   25.8330   18.7600 C.2   602  HEM602      0.0000
     22  CMB       35.4830   24.6650   15.2250 C.3   602  HEM602      0.0000
     23  CAB       34.1000   23.6410   17.9030 C.2   602  HEM602      0.0000
     24  CBB       34.5040   22.4820   17.4870 C.2   602  HEM602      0.0000
     25  NC        35.7880   27.8600   20.9020 N.ar  602  HEM602      0.0000
     26  C1C       35.0290   26.7150   21.0520 C.ar  602  HEM602      0.0000
     27  C2C       34.5310   26.6020   22.4330 C.ar  602  HEM602      0.0000
     28  C3C       35.0180   27.7120   23.1350 C.ar  602  HEM602      0.0000
     29  C4C       35.8110   28.4590   22.0890 C.ar  602  HEM602      0.0000
     30  CMC       33.6480   25.4830   22.9750 C.3   602  HEM602      0.0000
     31  CAC       34.8090   28.0330   24.4430 C.2   602  HEM602      0.0000
     32  CBC       35.4640   28.1860   25.5380 C.2   602  HEM602      0.0000
     33  ND        37.3890   30.0820   20.1880 N.2   602  HEM602      0.0000
     34  C1D       37.1830   30.3500   21.4860 C.2   602  HEM602      0.0000
     35  C2D       37.8550   31.6030   21.9080 C.2   602  HEM602      0.0000
     36  C3D       38.4820   32.0620   20.7730 C.2   602  HEM602      0.0000
     37  C4D       38.1710   31.0940   19.6820 C.2   602  HEM602      0.0000
     38  CMD       37.7950   32.1610   23.3400 C.3   602  HEM602      0.0000
     39  CAD       39.2860   33.3330   20.7100 C.3   602  HEM602      0.0000
     40  CBD       38.3710   34.3430   20.0620 C.3   602  HEM602      0.0000
     41  CGD       37.5970   35.2070   20.8990 C.2   602  HEM602      0.0000
     42  O1D       36.3690   35.3340   20.6510 O.co2 602  HEM602      0.0000
     43  O2D       38.1660   35.8590   21.8010 O.co2 602  HEM602      0.0000
@<TRIPOS>BOND
     1    16    14   ar
     2    15    14   ar
     3    14    13    1
     4    11     9    1
     5    13    12    1
     6    22    19    1
     7    12     8    1
     8     9     8   ar
     9     9    10   ar
    10     8     7   ar
    11     3    10    2
    12     3    18    1
    13    10     6   ar
    14    19    18    1
    15    19    20    2
    16    18    17    2
    17     7     6   ar
    18     7     2    2
    19    24    23    2
    20     6     1    1
    21    20    23    1
    22    20    21    1
    23    17    21    1
    24    17     1    1
    25     2    37    1
    26    21     4    2
    27     1    33    1
    28     1    25    1
    29    37    33    2
    30    37    36    1
    31    40    39    1
    32    40    41    1
    33     4    26    1
    34    33    34    1
    35    42    41   ar
    36    39    36    1
    37    36    35    2
    38    41    43   ar
    39    25    26   ar
    40    25    29   ar
    41    26    27   ar
    42    34    35    1
    43    34     5    2
    44    35    38    1
    45    29     5    1
    46    29    28   ar
    47    27    30    1
    48    27    28   ar
    49    28    31    1
    50    31    32    2
