@<TRIPOS>MOLECULE
2qd3_HEM_B_1.pdb
 43 50 0 0 0
SMALL
GASTEIGER

@<TRIPOS>ATOM
      1  CHA       39.1140   33.7600   19.0530 C.2   925  HEM925      0.0000
      2  CHB       37.3260   29.8460   17.2790 C.2   925  HEM925      0.0000
      3  CHC       35.4440   28.7110   21.4660 C.2   925  HEM925      0.0000
      4  CHD       37.2590   32.7410   23.3000 C.2   925  HEM925      0.0000
      5  C1A       38.7810   32.7880   18.2220 C.ar  925  HEM925      0.0000
      6  C2A       39.1020   32.7590   16.8490 C.ar  925  HEM925      0.0000
      7  C3A       38.6270   31.6330   16.3570 C.ar  925  HEM925      0.0000
      8  C4A       37.9860   30.9710   17.4240 C.ar  925  HEM925      0.0000
      9  CMA       38.7340   31.1580   14.9270 C.3   925  HEM925      0.0000
     10  CAA       39.8520   33.8160   16.0710 C.3   925  HEM925      0.0000
     11  CBA       38.8010   34.7810   15.4840 C.3   925  HEM925      0.0000
     12  CGA       39.4300   35.8750   14.6730 C.2   925  HEM925      0.0000
     13  O1A       38.6390   36.7910   14.1020 O.co2 925  HEM925      0.0000
     14  O2A       40.6320   35.9390   14.5280 O.co2 925  HEM925      0.0000
     15  C1B       36.6780   29.2070   18.2750 C.2   925  HEM925      0.0000
     16  C2B       36.0320   27.9810   18.0230 C.2   925  HEM925      0.0000
     17  C3B       35.4980   27.5670   19.1500 C.2   925  HEM925      0.0000
     18  C4B       35.8550   28.6590   20.1600 C.2   925  HEM925      0.0000
     19  CMB       35.9720   27.2770   16.6970 C.3   925  HEM925      0.0000
     20  CAB       34.7290   26.2900   19.2750 C.2   925  HEM925      0.0000
     21  CBB       34.1740   25.8440   20.3760 C.2   925  HEM925      0.0000
     22  C1C       35.7810   29.7030   22.3410 C.ar  925  HEM925      0.0000
     23  C2C       35.3680   29.7390   23.6930 C.ar  925  HEM925      0.0000
     24  C3C       35.9150   30.8630   24.2530 C.ar  925  HEM925      0.0000
     25  C4C       36.6420   31.5290   23.1960 C.ar  925  HEM925      0.0000
     26  CMC       34.4920   28.7100   24.3950 C.3   925  HEM925      0.0000
     27  CAC       35.7680   31.3040   25.6720 C.2   925  HEM925      0.0000
     28  CBC       35.2560   32.4920   25.9950 C.2   925  HEM925      0.0000
     29  C1D       37.9190   33.3620   22.2630 C.2   925  HEM925      0.0000
     30  C2D       38.6270   34.6700   22.4160 C.2   925  HEM925      0.0000
     31  C3D       39.1840   34.9230   21.2380 C.2   925  HEM925      0.0000
     32  C4D       38.7960   33.7980   20.3660 C.2   925  HEM925      0.0000
     33  CMD       38.7050   35.5090   23.6730 C.3   925  HEM925      0.0000
     34  CAD       40.0570   36.1050   20.8150 C.3   925  HEM925      0.0000
     35  CBD       39.4020   36.9310   19.6820 C.3   925  HEM925      0.0000
     36  CGD       40.3040   38.0590   19.2370 C.2   925  HEM925      0.0000
     37  O1D       39.9030   38.8840   18.2570 O.co2 925  HEM925      0.0000
     38  O2D       41.3820   38.2190   19.7460 O.co2 925  HEM925      0.0000
     39  NA        38.1000   31.6650   18.5970 N.ar  925  HEM925      0.0000
     40  NB        36.6130   29.6000   19.5550 N.2   925  HEM925      0.0000
     41  NC        36.5820   30.7830   22.0460 N.ar  925  HEM925      0.0000
     42  ND        38.0860   32.8770   21.0370 N.2   925  HEM925      0.0000
     43 FE         37.4400   31.1730   20.3700 Fe    925  HEM925      0.0000
@<TRIPOS>BOND
     1    13    12   ar
     2    14    12   ar
     3    12    11    1
     4     9     7    1
     5    11    10    1
     6    10     6    1
     7     7     6   ar
     8     7     8   ar
     9    19    16    1
    10     6     5   ar
    11     2     8    2
    12     2    15    1
    13     8    39   ar
    14    16    15    1
    15    16    17    2
    16     5    39   ar
    17     5     1    2
    18    37    36   ar
    19    15    40    2
    20    39    43    1
    21     1    32    1
    22    17    20    1
    23    17    18    1
    24    36    35    1
    25    36    38   ar
    26    20    21    2
    27    40    18    1
    28    40    43    1
    29    35    34    1
    30    18     3    2
    31    32    42    2
    32    32    31    1
    33    43    42    1
    34    43    41    1
    35    34    31    1
    36    42    29    1
    37    31    30    2
    38     3    22    1
    39    41    22   ar
    40    41    25   ar
    41    29    30    1
    42    29     4    2
    43    22    23   ar
    44    30    33    1
    45    25     4    1
    46    25    24   ar
    47    23    24   ar
    48    23    26    1
    49    24    27    1
    50    27    28    2
