@<TRIPOS>MOLECULE
2qd5_PP9_A_1.pdb
 42 46 0 0 0
SMALL
GASTEIGER

@<TRIPOS>ATOM
      1  CHA        4.4000   15.1840   18.9070 C.2   901  PP9901      0.0981
      2  CHB        6.1230   18.7160   16.5010 C.2   901  PP9901      0.0981
      3  CHC        8.2500   20.4620   20.2940 C.2   901  PP9901      0.1304
      4  CHD        6.7190   16.9320   22.7790 C.2   901  PP9901      0.1304
      5  NA         5.4170   17.0280   17.8030 N.2   901  PP9901     -0.3338
      6  C1A        4.6000   15.8730   17.8080 C.1   901  PP9901      0.0112
      7  C2A        4.0170   15.6170   16.4670 C.2   901  PP9901      0.0404
      8  C3A        4.5920   16.7880   15.6780 C.2   901  PP9901      0.0402
      9  C4A        5.4660   17.6000   16.6920 C.1   901  PP9901      0.0112
     10  CMA        4.3950   17.2360   14.2080 C.3   901  PP9901      0.0418
     11  CAA        3.0450   14.5430   15.9750 C.3   901  PP9901      0.0482
     12  CBA        3.7350   13.0770   15.8610 C.3   901  PP9901      0.1194
     13  CGA        4.6980   12.9050   14.6720 C.2   901  PP9901      0.3652
     14  O1A        4.4540   13.7070   13.6330 O.co2 901  PP9901     -0.2456
     15  O2A        5.7320   11.7800   14.7870 O.co2 901  PP9901     -0.2456
     16  NB         7.1600   19.3250   18.4800 N.2   901  PP9901     -0.3670
     17  C1B        6.8810   19.5900   17.2180 C.2   901  PP9901      0.1472
     18  C2B        7.3580   20.8580   16.6720 C.2   901  PP9901      0.0181
     19  C3B        8.0520   21.4510   17.9190 C.2   901  PP9901      0.0555
     20  C4B        7.8390   20.3950   18.9480 C.1   901  PP9901      0.0125
     21  CMB        7.1780   21.4340   15.2890 C.3   901  PP9901      0.0344
     22  CAB        8.6990   22.7340   18.0060 C.2   901  PP9901      0.0093
     23  CBB        8.2520   23.9180   17.7300 C.2   901  PP9901      0.0007
     24  NC         7.4540   18.4950   21.2920 N.2   901  PP9901     -0.3324
     25  C1C        8.0970   19.6540   21.3350 C.1   901  PP9901      0.0186
     26  C2C        8.6780   20.0650   22.8780 C.2   901  PP9901      0.0448
     27  C3C        8.1860   18.9770   23.6880 C.2   901  PP9901      0.0626
     28  C4C        7.3860   18.0350   22.5250 C.1   901  PP9901      0.0223
     29  CMC        9.4370   21.3210   23.2720 C.3   901  PP9901      0.0422
     30  CAC        8.3090   18.8480   25.0480 C.2   901  PP9901      0.0099
     31  CBC        8.2810   18.0060   26.0010 C.2   901  PP9901      0.0007
     32  ND         5.7320   16.1160   20.8630 N.2   901  PP9901     -0.3673
     33  C1D        5.8990   16.0020   21.9130 C.1   901  PP9901      0.0085
     34  C2D        5.0800   14.7230   22.4700 C.2   901  PP9901      0.0336
     35  C3D        4.4330   14.3190   21.3100 C.2   901  PP9901      0.0143
     36  C4D        4.8580   15.2240   20.3140 C.2   901  PP9901      0.1469
     37  CMD        5.0290   14.2200   23.9270 C.3   901  PP9901      0.0412
     38  CAD        3.4780   13.1620   21.1980 C.3   901  PP9901      0.0411
     39  CBD        4.2880   11.8240   20.4880 C.3   901  PP9901      0.1188
     40  CGD        5.4370   11.3400   21.0260 C.2   901  PP9901      0.3652
     41  O1D        6.5680   11.4800   20.1840 O.co2 901  PP9901     -0.2456
     42  O2D        5.4090   11.1280   22.2950 O.co2 901  PP9901     -0.2456
@<TRIPOS>BOND
     1    14    13   ar
     2    10     8    1
     3    13    15   ar
     4    13    12    1
     5    21    18    1
     6     8     7    2
     7     8     9    1
     8    12    11    1
     9    11     7    1
    10     7     6    1
    11     2     9    2
    12     2    17    1
    13    18    17    1
    14    18    19    2
    15     9     5    2
    16    17    16    2
    17    23    22    2
    18     5     6    2
    19     6     1    2
    20    19    22    1
    21    19    20    1
    22    16    20    2
    23     1    36    1
    24    20     3    2
    25    41    40   ar
    26     3    25    1
    27    36    32    2
    28    36    35    1
    29    39    40    1
    30    39    38    1
    31    32    33    2
    32    40    42   ar
    33    38    35    1
    34    24    25    2
    35    24    28    2
    36    35    34    2
    37    25    26    2
    38    33    34    1
    39    33     4    2
    40    34    37    1
    41    28     4    1
    42    28    27    2
    43    26    29    1
    44    26    27    1
    45    27    30    1
    46    30    31    2
