@<TRIPOS>MOLECULE
2qd6_065_B_1.pdb
 40 44 0 0 0
SMALL
GASTEIGER

@<TRIPOS>ATOM
      1  C2        20.7040   27.8150   14.8190 C.ar  404  065404      0.1765
      2  O39       21.5710   28.8840   14.8050 O.3   404  065404     -0.4346
      3  C40       22.7630   28.3600   15.2250 C.3   404  065404      0.4294
      4  O41       22.6470   27.0410   15.6020 O.3   404  065404     -0.4346
      5  C3        21.3410   26.7170   15.3790 C.ar  404  065404      0.1778
      6  C4        20.6470   25.5580   15.6510 C.ar  404  065404      0.0601
      7  C5        19.2910   25.5100   15.3500 C.ar  404  065404      0.1254
      8  C6        18.6640   26.5800   14.7410 C.ar  404  065404      0.0232
      9  C7        19.3640   27.7480   14.4680 C.ar  404  065404      0.0416
     10  S8        18.3430   24.1200   15.8120 S.O2  404  065404      0.0635
     11  O9        17.2290   23.9410   14.8760 O.2   404  065404     -0.1528
     12  O10       19.2850   22.9470   15.8840 O.2   404  065404     -0.1528
     13  N11       17.7370   24.3310   17.3220 N.3   404  065404     -0.1529
     14  C12       18.6720   24.6690   18.3860 C.3   404  065404      0.0958
     15  C13       18.3590   24.0140   19.7370 C.3   404  065404      0.0178
     16  C14       18.3610   22.4870   19.6520 C.3   404  065404      0.0015
     17  C15       19.4110   24.4580   20.7680 C.3   404  065404      0.0015
     18  C16       16.4790   25.0530   17.3940 C.3   404  065404      0.1304
     19  C17       15.3580   24.1980   17.9770 C.3   404  065404      0.1898
     20  O18       14.1930   24.9630   18.2960 O.3   404  065404     -0.2197
     21  C19       14.9060   23.0750   17.0330 C.3   404  065404      0.1347
     22  N20       14.0350   22.1560   17.7600 N.am  404  065404     -0.1675
     23  C21       14.3470   20.9060   18.1100 C.2   404  065404      0.4211
     24  O22       15.3850   20.3300   17.7660 O.2   404  065404     -0.2246
     25  O23       13.3650   20.3480   18.8650 O.3   404  065404     -0.4345
     26  C24       13.4940   18.9400   19.1000 C.3   404  065404      0.2048
     27  C25       12.8650   18.6970   20.4760 C.3   404  065404      0.1884
     28  O26       11.4570   18.6830   20.2470 O.3   404  065404     -0.3265
     29  C27       11.2130   18.1780   18.9500 C.3   404  065404      0.2388
     30  O28       10.3050   19.0360   18.2460 O.3   404  065404     -0.3304
     31  C29       11.0060   19.6830   17.1850 C.3   404  065404      0.1451
     32  C30       12.1800   18.7660   16.8490 C.3   404  065404      0.0409
     33  C31       12.5370   18.1600   18.2020 C.3   404  065404      0.1016
     34  C32       14.1450   23.5660   15.7960 C.3   404  065404      0.0508
     35  C33       12.4210   21.9600   14.7350 C.ar  404  065404     -0.0042
     36  C34       12.0880   20.8690   13.9240 C.ar  404  065404     -0.0003
     37  C35       13.0880   20.1660   13.2600 C.ar  404  065404     -0.0000
     38  C36       14.3970   20.5960   13.4140 C.ar  404  065404     -0.0003
     39  C37       14.7190   21.7070   14.1880 C.ar  404  065404     -0.0042
     40  C38       13.7420   22.3960   14.8850 C.ar  404  065404     -0.0204
@<TRIPOS>BOND
     1    37    38   ar
     2    37    36   ar
     3    38    39   ar
     4    36    35   ar
     5    39    40   ar
     6     9     8   ar
     7     9     1   ar
     8    35    40   ar
     9     8     7   ar
    10     2     1    1
    11     2     3    1
    12     1     5   ar
    13    11    10    2
    14    40    34    1
    15     3     4    1
    16     7     6   ar
    17     7    10    1
    18     5     4    1
    19     5     6   ar
    20    34    21    1
    21    10    12    2
    22    10    13    1
    23    32    31    1
    24    32    33    1
    25    21    22    1
    26    21    19    1
    27    31    30    1
    28    13    18    1
    29    13    14    1
    30    18    19    1
    31    22    23   am
    32    24    23    2
    33    19    20    1
    34    23    25    1
    35    33    29    1
    36    33    26    1
    37    30    29    1
    38    14    15    1
    39    25    26    1
    40    29    28    1
    41    26    27    1
    42    16    15    1
    43    15    17    1
    44    28    27    1
