@<TRIPOS>MOLECULE
2qd7_065_B_1.pdb
 40 44 0 0 0
SMALL
GASTEIGER

@<TRIPOS>ATOM
      1  C2        15.7990   34.9010   17.7930 C.ar  404  065404      0.1765
      2  O39       15.2650   35.8150   18.6450 O.3   404  065404     -0.4346
      3  C40       15.8940   37.0150   18.3890 C.3   404  065404      0.4294
      4  O41       16.7990   36.8680   17.3670 O.3   404  065404     -0.4346
      5  C3        16.7810   35.5430   17.0400 C.ar  404  065404      0.1778
      6  C4        17.5590   34.8700   16.1090 C.ar  404  065404      0.0601
      7  C5        17.2820   33.5300   15.9640 C.ar  404  065404      0.1254
      8  C6        16.3260   32.9060   16.7240 C.ar  404  065404      0.0232
      9  C7        15.4960   33.5800   17.6090 C.ar  404  065404      0.0416
     10  S8        18.3310   32.5530   14.9410 S.O2  404  065404      0.0635
     11  O9        17.5450   31.4520   14.4340 O.2   404  065404     -0.1528
     12  O10       18.9800   33.4600   14.0140 O.2   404  065404     -0.1528
     13  N11       19.5450   31.9210   15.8580 N.3   404  065404     -0.1529
     14  C12       20.4050   32.8770   16.5370 C.3   404  065404      0.0958
     15  C13       21.8880   32.5200   16.5770 C.3   404  065404      0.0178
     16  C14       22.4580   32.4660   15.1510 C.3   404  065404      0.0015
     17  C15       22.6430   33.5450   17.4220 C.3   404  065404      0.0015
     18  C16       19.2780   30.6780   16.5480 C.3   404  065404      0.1304
     19  C17       20.1130   29.5170   15.9900 C.3   404  065404      0.1898
     20  O18       20.0080   28.4050   16.9070 O.3   404  065404     -0.2197
     21  C19       19.7050   29.0580   14.6090 C.3   404  065404      0.1347
     22  N20       20.6950   28.1640   14.0840 N.am  404  065404     -0.1675
     23  C21       21.5680   28.4800   13.1080 C.2   404  065404      0.4211
     24  O22       21.6490   29.5530   12.5210 O.2   404  065404     -0.2246
     25  O23       22.3930   27.4380   12.8720 O.3   404  065404     -0.4345
     26  C24       23.2150   27.5130   11.6860 C.3   404  065404      0.2048
     27  C25       24.5420   26.8680   12.0230 C.3   404  065404      0.1884
     28  O26       24.2740   25.4600   11.9680 O.3   404  065404     -0.3265
     29  C27       23.3070   25.2350   10.9570 C.3   404  065404      0.2388
     30  O28       22.2570   24.4470   11.5030 O.3   404  065404     -0.3304
     31  C29       21.0310   25.1440   11.5490 C.3   404  065404      0.1451
     32  C30       21.2000   26.3740   10.6240 C.3   404  065404      0.0409
     33  C31       22.6950   26.5770   10.5860 C.3   404  065404      0.1016
     34  C32       18.3500   28.3800   14.5140 C.3   404  065404      0.0508
     35  C33       17.8930   26.5890   12.7950 C.ar  404  065404     -0.0042
     36  C34       17.6510   26.2220   11.4790 C.ar  404  065404     -0.0003
     37  C35       17.4620   27.1500   10.4950 C.ar  404  065404     -0.0000
     38  C36       17.6060   28.5090   10.7860 C.ar  404  065404     -0.0003
     39  C37       17.8720   28.8930   12.1120 C.ar  404  065404     -0.0042
     40  C38       18.0130   27.9390   13.1060 C.ar  404  065404     -0.0204
@<TRIPOS>BOND
     1    37    38   ar
     2    37    36   ar
     3    33    32    1
     4    33    29    1
     5    33    26    1
     6    32    31    1
     7    38    39   ar
     8    29    30    1
     9    29    28    1
    10    36    35   ar
    11    30    31    1
    12    26    27    1
    13    26    25    1
    14    28    27    1
    15    39    40   ar
    16    24    23    2
    17    35    40   ar
    18    25    23    1
    19    40    34    1
    20    23    22   am
    21    12    10    2
    22    22    21    1
    23    11    10    2
    24    34    21    1
    25    21    19    1
    26    10    13    1
    27    10     7    1
    28    16    15    1
    29    13    14    1
    30    13    18    1
    31     7     6   ar
    32     7     8   ar
    33    19    18    1
    34    19    20    1
    35     6     5   ar
    36    14    15    1
    37    15    17    1
    38     8     9   ar
    39     5     4    1
    40     5     1   ar
    41     4     3    1
    42     9     1   ar
    43     1     2    1
    44     3     2    1
