@<TRIPOS>MOLECULE
2qd8_065_B_1.pdb
 40 44 0 0 0
SMALL
GASTEIGER

@<TRIPOS>ATOM
      1  C2        20.7090   27.7160   14.8540 C.ar  404  065404      0.1765
      2  O39       21.5860   28.7490   14.7200 O.3   404  065404     -0.4346
      3  C40       22.8190   28.2580   15.1430 C.3   404  065404      0.4294
      4  O41       22.6870   26.9580   15.5850 O.3   404  065404     -0.4346
      5  C3        21.3650   26.6280   15.4210 C.ar  404  065404      0.1778
      6  C4        20.6830   25.4480   15.6980 C.ar  404  065404      0.0601
      7  C5        19.3350   25.4000   15.4050 C.ar  404  065404      0.1254
      8  C6        18.6950   26.4650   14.7960 C.ar  404  065404      0.0232
      9  C7        19.3760   27.6400   14.5180 C.ar  404  065404      0.0416
     10  S8        18.4100   23.9910   15.8940 S.O2  404  065404      0.0635
     11  O9        17.2920   23.8100   14.9690 O.2   404  065404     -0.1528
     12  O10       19.3530   22.8500   16.0300 O.2   404  065404     -0.1528
     13  N11       17.7780   24.2250   17.3930 N.3   404  065404     -0.1529
     14  C12       18.7330   24.4620   18.4530 C.3   404  065404      0.0958
     15  C13       18.3290   23.8850   19.8230 C.3   404  065404      0.0178
     16  C14       18.2060   22.3750   19.7590 C.3   404  065404      0.0015
     17  C15       19.4010   24.2830   20.8460 C.3   404  065404      0.0015
     18  C16       16.5280   24.9640   17.4540 C.3   404  065404      0.1304
     19  C17       15.3760   24.0910   17.9560 C.3   404  065404      0.1898
     20  O18       14.2200   24.8620   18.2540 O.3   404  065404     -0.2197
     21  C19       14.9920   22.9510   17.0200 C.3   404  065404      0.1347
     22  N20       14.1330   22.0470   17.7640 N.am  404  065404     -0.1675
     23  C21       14.4210   20.7930   18.0960 C.2   404  065404      0.4211
     24  O22       15.4840   20.2190   17.8230 O.2   404  065404     -0.2246
     25  O23       13.4160   20.1810   18.7560 O.3   404  065404     -0.4345
     26  C24       13.6080   18.7930   19.0350 C.3   404  065404      0.2048
     27  C25       13.0130   18.5840   20.4330 C.3   404  065404      0.1884
     28  O26       11.5790   18.5830   20.2550 O.3   404  065404     -0.3265
     29  C27       11.3230   18.0010   18.9890 C.3   404  065404      0.2388
     30  O28       10.3890   18.8400   18.2990 O.3   404  065404     -0.3304
     31  C29       11.0500   19.4490   17.2120 C.3   404  065404      0.1451
     32  C30       12.2280   18.5370   16.8290 C.3   404  065404      0.0409
     33  C31       12.6220   17.9720   18.1950 C.3   404  065404      0.1016
     34  C32       14.2230   23.4030   15.7760 C.3   404  065404      0.0508
     35  C33       12.5820   21.7530   14.7410 C.ar  404  065404     -0.0042
     36  C34       12.2640   20.6450   13.9600 C.ar  404  065404     -0.0003
     37  C35       13.2560   19.9650   13.3040 C.ar  404  065404     -0.0000
     38  C36       14.5520   20.4170   13.4440 C.ar  404  065404     -0.0003
     39  C37       14.8770   21.5280   14.2140 C.ar  404  065404     -0.0042
     40  C38       13.8760   22.2150   14.8920 C.ar  404  065404     -0.0204
@<TRIPOS>BOND
     1    37    38   ar
     2    37    36   ar
     3    38    39   ar
     4    36    35   ar
     5    39    40   ar
     6     9     8   ar
     7     9     1   ar
     8     2     1    1
     9     2     3    1
    10    35    40   ar
    11     8     7   ar
    12     1     5   ar
    13    40    34    1
    14    11    10    2
    15     3     4    1
    16     7     6   ar
    17     7    10    1
    18     5     4    1
    19     5     6   ar
    20    34    21    1
    21    10    12    2
    22    10    13    1
    23    32    31    1
    24    32    33    1
    25    21    22    1
    26    21    19    1
    27    31    30    1
    28    13    18    1
    29    13    14    1
    30    18    19    1
    31    22    23   am
    32    24    23    2
    33    19    20    1
    34    23    25    1
    35    33    29    1
    36    33    26    1
    37    30    29    1
    38    14    15    1
    39    25    26    1
    40    29    28    1
    41    26    27    1
    42    16    15    1
    43    15    17    1
    44    28    27    1
