@<TRIPOS>MOLECULE
2qd9_LGF_A_1.pdb
 40 45 0 0 0
SMALL
GASTEIGER

@<TRIPOS>ATOM
      1  C13       -5.1970    0.8110   16.0660 C.ar  361  LGF361      0.1424
      2  C18       -1.1390   -1.6720   24.8540 C.3   361  LGF361      0.1887
      3  C16       -1.6310   -2.2060   23.4880 C.2   361  LGF361      0.2398
      4  C15       -3.1990    1.7070   17.1910 C.ar  361  LGF361      0.0075
      5  C19       -1.9510   -1.8190   25.9190 C.2   361  LGF361      0.0043
      6  C21        0.1860   -0.9190   24.9690 C.2   361  LGF361      0.2750
      7  C22       -0.2310   -0.6320   27.1240 C.1   361  LGF361      0.0905
      8  C23       -1.3700   -1.2650   27.1320 C.2   361  LGF361      0.0756
      9  C24       -1.9240   -1.2560   28.5060 C.2   361  LGF361      0.0735
     10  C11       -5.1530    0.8710   18.3680 C.ar  361  LGF361      0.1452
     11  C12       -5.8630    0.5360   17.1740 C.ar  361  LGF361      0.0593
     12  C27       -3.1870   -1.8730   29.0110 C.2   361  LGF361      0.2508
     13  F33       -5.7360    0.3790   14.9510 F     361  LGF361     -0.2041
     14  C14       -3.9000    1.3950   16.0670 C.ar  361  LGF361      0.0299
     15  F32       -5.7910    0.5110   19.5240 F     361  LGF361     -0.2040
     16  C10       -3.8760    1.3600   18.4250 C.ar  361  LGF361      0.0617
     17  C9        -3.2220    1.5840   19.7610 C.ar  361  LGF361      0.1459
     18  N8        -2.7010    2.6700   20.2160 N.ar  361  LGF361     -0.2255
     19  N5        -2.8910    0.5150   20.6160 N.ar  361  LGF361     -0.3115
     20  C6        -2.2000    1.0350   21.6110 C.ar  361  LGF361      0.0778
     21  C7        -2.0610    2.3530   21.4570 C.ar  361  LGF361      0.1149
     22  C4        -1.6440    0.2260   22.6970 C.3   361  LGF361      0.1390
     23  N3        -1.9080   -1.1750   22.4590 N.am  361  LGF361     -0.2712
     24  C2        -2.0920   -1.7360   21.0890 C.3   361  LGF361      0.1183
     25  C1        -3.2270   -0.9140   20.4330 C.3   361  LGF361      0.1287
     26  O17       -1.7520   -3.3570   23.1670 O.2   361  LGF361     -0.2739
     27  N26        0.0150   -0.2090   28.3880 N.2   361  LGF361     -0.1821
     28  C25       -1.0250   -0.5800   29.2420 C.2   361  LGF361      0.1145
     29  N20        0.5780   -0.4660   26.0620 N.2   361  LGF361     -0.3173
     30  O34        0.9070   -0.7750   23.8330 O.2   361  LGF361     -0.4497
     31  C35        2.1800   -0.0500   23.9140 C.3   361  LGF361      0.2550
     32  O28       -3.8580   -2.6410   28.3010 O.2   361  LGF361     -0.2816
     33  C29       -3.6340   -1.6020   30.4450 C.2   361  LGF361      0.2883
     34  O31       -3.4460   -0.4910   30.9570 O.2   361  LGF361     -0.2664
     35  N30       -4.2140   -2.5750   31.2580 N.am  361  LGF361     -0.2708
     36  C36       -3.6840   -3.8920   31.4860 C.3   361  LGF361      0.1266
     37  C37       -5.0400   -4.5980   31.4630 C.3   361  LGF361      0.1734
     38  O40       -5.5640   -4.6960   30.1400 O.3   361  LGF361     -0.2212
     39  C38       -5.8970   -3.7630   32.4010 C.3   361  LGF361      0.0562
     40  C39       -5.4650   -2.3350   31.9840 C.3   361  LGF361      0.0966
@<TRIPOS>BOND
     1    13     1    1
     2     1    14   ar
     3     1    11   ar
     4    14     4   ar
     5    11    10   ar
     6     4    16   ar
     7    10    16   ar
     8    10    15    1
     9    16    17    1
    10    17    18   ar
    11    17    19   ar
    12    18    21   ar
    13    25    19    1
    14    25    24    1
    15    19    20   ar
    16    24    23    1
    17    21    20   ar
    18    20    22    1
    19    23    22    1
    20    23     3   am
    21    26     3    2
    22     3     2    1
    23    30    31    1
    24    30     6    1
    25     2     6    1
    26     2     5    1
    27     6    29    2
    28     5     8    2
    29    29     7    2
    30     7     8    1
    31     7    27    2
    32     8     9    1
    33    32    12    2
    34    27    28    1
    35     9    12    1
    36     9    28    2
    37    12    33    1
    38    38    37    1
    39    33    34    2
    40    33    35   am
    41    35    36    1
    42    35    40    1
    43    37    36    1
    44    37    39    1
    45    40    39    1
