@<TRIPOS>MOLECULE
2qdg_2FP_A_1.pdb
 19 18 0 0 0
SMALL
GASTEIGER

@<TRIPOS>ATOM
      1  P6       -95.8490    7.3290   65.5980 P.3   400  2FP400      0.5327
      2  O6       -95.7160    6.4270   64.2730 O.3   400  2FP400     -0.2674
      3  C6       -94.4220    6.1150   63.7530 C.3   400  2FP400      0.1892
      4  C5       -94.5180    5.0690   62.6410 C.3   400  2FP400      0.2146
      5  O5       -95.5190    5.4680   61.7010 O.3   400  2FP400     -0.2176
      6  C4       -93.1690    4.9230   61.9320 C.3   400  2FP400      0.2148
      7  O4       -92.1610    4.5760   62.8860 O.3   400  2FP400     -0.2176
      8  C3       -93.2240    3.8750   60.8180 C.3   400  2FP400      0.1873
      9  O3       -93.4990    2.5890   61.3770 O.3   400  2FP400     -0.2202
     10  C2       -91.9000    3.8110   60.0540 C.3   400  2FP400      0.0683
     11  C1       -91.5580    4.9010   59.0320 C.3   400  2FP400      0.1565
     12  O1       -92.3880    6.0450   59.2560 O.3   400  2FP400     -0.2702
     13  O61      -97.1850    7.2450   66.2310 O.3   400  2FP400     -0.1145
     14  O62      -94.6710    6.8560   66.5890 O.3   400  2FP400     -0.1145
     15  O63      -95.4810    8.8360   65.1660 O.2   400  2FP400     -0.2224
     16  P1       -92.2580    7.3710   58.3480 P.3   400  2FP400      0.5326
     17  O11      -93.4460    8.2490   58.4520 O.3   400  2FP400     -0.1145
     18  O12      -90.9110    8.1200   58.8090 O.3   400  2FP400     -0.1145
     19  O13      -92.0140    6.8430   56.8460 O.2   400  2FP400     -0.2224
@<TRIPOS>BOND
     1    19    16    2
     2    16    17    1
     3    16    18    1
     4    16    12    1
     5    11    12    1
     6    11    10    1
     7    10     8    1
     8     8     9    1
     9     8     6    1
    10     5     4    1
    11     6     4    1
    12     6     7    1
    13     4     3    1
    14     3     2    1
    15     2     1    1
    16    15     1    2
    17     1    13    1
    18     1    14    1
