@<TRIPOS>MOLECULE
2qdh_M2P_A_1.pdb
 20 19 0 0 0
SMALL
GASTEIGER

@<TRIPOS>ATOM
      1  C1       -91.9900    5.3600  -21.5000 C.3   400  M2P400      0.1892
      2  C5       -94.5900    5.6420  -17.6740 C.3   400  M2P400      0.2147
      3  C6       -94.5380    6.5910  -16.4740 C.3   400  M2P400      0.1892
      4  C4       -93.2640    5.6450  -18.4380 C.3   400  M2P400      0.2174
      5  C3       -93.2160    4.4950  -19.4480 C.3   400  M2P400      0.2174
      6  C2       -91.9210    4.4610  -20.2640 C.3   400  M2P400      0.2147
      7  O12      -93.4570    8.5640  -22.3940 O.3   400  M2P400     -0.1145
      8  P1       -92.0110    7.8640  -22.2890 P.3   400  M2P400      0.5327
      9  O13      -91.8030    7.0720  -23.6760 O.2   400  M2P400     -0.2224
     10  O11      -90.9250    8.8280  -22.0080 O.3   400  M2P400     -0.1145
     11  O1       -92.1420    6.7360  -21.1480 O.3   400  M2P400     -0.2674
     12  O2       -90.8210    4.8810  -19.4510 O.3   400  M2P400     -0.2176
     13  O3       -93.3650    3.2460  -18.7690 O.3   400  M2P400     -0.2175
     14  O4       -92.1890    5.5050  -17.5040 O.3   400  M2P400     -0.2175
     15  O5       -95.6380    6.0530  -18.5570 O.3   400  M2P400     -0.2176
     16  O6       -95.6620    6.3910  -15.6120 O.3   400  M2P400     -0.2674
     17  P6       -95.6610    6.9810  -14.1120 P.3   400  M2P400      0.5327
     18  O62      -97.0760    6.5330  -13.4880 O.3   400  M2P400     -0.1145
     19  O63      -95.6910    8.5860  -14.2270 O.2   400  M2P400     -0.2224
     20  O61      -94.5210    6.4900  -13.3060 O.3   400  M2P400     -0.1145
@<TRIPOS>BOND
     1     9     8    2
     2     7     8    1
     3     8    10    1
     4     8    11    1
     5     1    11    1
     6     1     6    1
     7     6    12    1
     8     6     5    1
     9     5    13    1
    10     5     4    1
    11    15     2    1
    12     4     2    1
    13     4    14    1
    14     2     3    1
    15     3    16    1
    16    16    17    1
    17    19    17    2
    18    17    18    1
    19    17    20    1
