@<TRIPOS>MOLECULE
2qds_MCO_A_1.pdb
 14 14 0 0 0
SMALL
GASTEIGER

@<TRIPOS>ATOM
      1  O2        17.3450   45.1090   70.2520 O.co2 501  MCO501     -0.2438
      2  C9        16.9120   46.2830   70.2490 C.2   501  MCO501      0.3825
      3  O3        17.4880   47.2170   70.8770 O.co2 501  MCO501     -0.2438
      4  C8        15.6490   46.5700   69.4740 C.3   501  MCO501      0.1790
      5  C7        14.3780   46.4450   70.3130 C.3   501  MCO501      0.0332
      6  C6        14.0760   47.8380   70.8210 C.3   501  MCO501      0.0238
      7  C5        14.6650   48.7810   69.7860 C.3   501  MCO501      0.0939
      8  N         15.5780   47.9510   68.9910 N.am  501  MCO501     -0.2713
      9  C4        16.3000   48.3140   67.9310 C.2   501  MCO501      0.2264
     10  O1        17.0290   47.5260   67.3380 O.2   501  MCO501     -0.2748
     11  C2        16.1650   49.7410   67.4690 C.3   501  MCO501      0.0883
     12  C3        15.0560   49.7970   66.4280 C.3   501  MCO501      0.0105
     13  C1        17.4740   50.2910   66.9150 C.3   501  MCO501      0.0777
     14  S         18.4940   50.9320   68.2600 S.3   501  MCO501     -0.0816
@<TRIPOS>BOND
     1    12    11    1
     2    13    11    1
     3    13    14    1
     4    10     9    2
     5    11     9    1
     6     9     8   am
     7     8     4    1
     8     8     7    1
     9     4     2    1
    10     4     5    1
    11     7     6    1
    12     2     1   ar
    13     2     3   ar
    14     5     6    1
