@<TRIPOS>MOLECULE
2qdt_I38_A_1.pdb
 11 10 0 0 0
SMALL
GASTEIGER

@<TRIPOS>ATOM
      1  S         12.9820   31.5080   31.6640 S.3   501  I38501     -0.0816
      2  C1        13.5230   30.4940   30.4480 C.3   501  I38501      0.0783
      3  C2        12.5450   29.3450   30.2370 C.3   501  I38501      0.0993
      4  C3        12.4230   28.4640   31.4650 C.2   501  I38501      0.2427
      5  O3        12.9710   27.4010   31.4110 O.2   501  I38501     -0.2733
      6  N4        11.7410   28.8910   32.5400 N.am  501  I38501     -0.1956
      7  C5        11.4840   28.1320   33.7660 C.3   501  I38501      0.1978
      8  C51        9.9690   28.0440   33.9450 C.3   501  I38501      0.0356
      9  C6        12.1340   28.7300   35.0060 C.2   501  I38501      0.3842
     10  O62       12.5230   29.9380   34.9390 O.co2 501  I38501     -0.2437
     11  O61       12.2670   28.0220   36.0600 O.co2 501  I38501     -0.2437
@<TRIPOS>BOND
     1     3     2    1
     2     3     4    1
     3     2     1    1
     4     5     4    2
     5     4     6   am
     6     6     7    1
     7     7     8    1
     8     7     9    1
     9    10     9   ar
    10     9    11   ar
