@<TRIPOS>MOLECULE
2qe0_NAP_A_1.pdb
 48 52 0 0 0
SMALL
GASTEIGER

@<TRIPOS>ATOM
      1  PA       -95.2400   23.9390   18.7430 P.3   1476  NAP1476     0.2189
      2  O1A      -95.4140   25.3580   18.3180 O.3   1476  NAP1476    -0.4371
      3  O2A      -94.0250   23.2490   18.2700 O.2   1476  NAP1476    -0.5170
      4  O5B      -96.4700   23.0530   18.1540 O.3   1476  NAP1476    -0.3112
      5  C5B      -97.8870   23.1510   18.4930 C.3   1476  NAP1476     0.1813
      6  C4B      -98.5140   22.6370   17.1800 C.3   1476  NAP1476     0.1820
      7  O4B      -98.0550   23.4580   16.0290 O.3   1476  NAP1476    -0.3136
      8  C3B      -98.0160   21.2250   16.8400 C.3   1476  NAP1476     0.2157
      9  O3B      -99.1560   20.4120   16.7250 O.3   1476  NAP1476    -0.2175
     10  C2B      -97.1850   21.3590   15.5210 C.3   1476  NAP1476     0.2314
     11  O2B      -96.9430   20.1970   14.6700 O.3   1476  NAP1476    -0.2630
     12  C1B      -97.7980   22.5970   14.8790 C.3   1476  NAP1476     0.3158
     13  N9A      -96.8900   23.3580   14.0400 N.pl3 1476  NAP1476    -0.1439
     14  C8A      -95.4870   23.3980   14.0660 C.3   1476  NAP1476     0.3377
     15  N7A      -94.9910   24.2250   13.1320 N.2   1476  NAP1476    -0.2095
     16  C5A      -96.1020   24.7580   12.4580 C.2   1476  NAP1476     0.2526
     17  C6A      -96.2790   25.6890   11.3930 C.2   1476  NAP1476     0.4393
     18  N6A      -95.3270   26.3580   10.6540 N.pl3 1476  NAP1476     0.2180
     19  N1A      -97.5430   25.9570   11.0550 N.2   1476  NAP1476     0.0021
     20  C2A      -98.5900   25.3460   11.6710 C.3   1476  NAP1476     0.5254
     21  N3A      -98.5660   24.4490   12.6710 N.2   1476  NAP1476    -0.0055
     22  C4A      -97.2940   24.2040   13.0310 C.2   1476  NAP1476     0.3518
     23  O3       -95.3600   23.6680   20.3320 O.3   1476  NAP1476    -0.2703
     24  PN       -95.3370   22.3730   21.3220 P.3   1476  NAP1476     0.2189
     25  O1N      -93.8560   22.1640   21.6250 O.3   1476  NAP1476    -0.4371
     26  O2N      -96.2320   21.2420   20.7390 O.2   1476  NAP1476    -0.5170
     27  O5D      -96.0060   22.8510   22.7800 O.3   1476  NAP1476    -0.3112
     28  C5D      -96.4990   24.2200   22.9620 C.3   1476  NAP1476     0.1813
     29  C4D      -96.1680   24.8040   24.3620 C.3   1476  NAP1476     0.1799
     30  O4D      -94.7590   24.5710   24.4780 O.3   1476  NAP1476    -0.3327
     31  C3D      -96.3170   26.3230   24.6380 C.3   1476  NAP1476     0.2158
     32  O3D      -96.6400   26.6220   26.0360 O.3   1476  NAP1476    -0.2175
     33  C2D      -94.8720   26.7460   24.5120 C.3   1476  NAP1476     0.2309
     34  O2D      -94.6100   27.9550   25.1390 O.3   1476  NAP1476    -0.2158
     35  C1D      -94.1800   25.6150   25.2000 C.3   1476  NAP1476     0.2263
     36  N1N      -92.7370   25.4600   24.8450 N.pl3 1476  NAP1476    -0.2787
     37  C2N      -91.8370   26.5250   24.7180 C.3   1476  NAP1476     0.1244
     38  C3N      -90.4660   26.2730   24.3550 C.2   1476  NAP1476     0.0544
     39  C7N      -89.4380   27.4120   24.1640 C.2   1476  NAP1476     0.2818
     40  O7N      -88.2700   27.1780   23.7020 O.2   1476  NAP1476    -0.2670
     41  N7N      -89.8150   28.7030   24.5410 N.am  1476  NAP1476    -0.0839
     42  C4N      -90.1150   24.9280   24.1810 C.2   1476  NAP1476     0.0033
     43  C5N      -91.0280   23.8870   24.3530 C.2   1476  NAP1476     0.0157
     44  C6N      -92.3240   24.1770   24.6700 C.2   1476  NAP1476     0.0633
     45  P2B      -95.4810   19.3850   14.6450 P.3   1476  NAP1476     0.5328
     46  O1X      -94.5460   20.4950   14.2400 O.3   1476  NAP1476    -0.1145
     47  O2X      -95.5080   18.7210   15.9860 O.3   1476  NAP1476    -0.1145
     48  O3X      -95.4070   18.3620   13.5510 O.2   1476  NAP1476    -0.2224
@<TRIPOS>BOND
     1    18    17    1
     2    19    17    2
     3    19    20    1
     4    17    16    1
     5    20    21    1
     6    16    22    1
     7    16    15    2
     8    21    22    2
     9    22    13    1
    10    15    14    1
    11    48    45    2
    12    13    14    1
    13    13    12    1
    14    46    45    1
    15    45    11    1
    16    45    47    1
    17    11    10    1
    18    12    10    1
    19    12     7    1
    20    10     8    1
    21     7     6    1
    22     9     8    1
    23     8     6    1
    24     6     5    1
    25     4     5    1
    26     4     1    1
    27     3     1    2
    28     2     1    1
    29     1    23    1
    30    23    24    1
    31    26    24    2
    32    24    25    1
    33    24    27    1
    34    27    28    1
    35    28    29    1
    36    40    39    2
    37    39    38    1
    38    39    41   am
    39    42    43    1
    40    42    38    2
    41    43    44    2
    42    38    37    1
    43    29    30    1
    44    29    31    1
    45    30    35    1
    46    33    31    1
    47    33    34    1
    48    33    35    1
    49    31    32    1
    50    44    36    1
    51    37    36    1
    52    36    35    1
