@<TRIPOS>MOLECULE
2qe0_G3H_A_1.pdb
 10 9 0 0 0
SMALL
GASTEIGER

@<TRIPOS>ATOM
      1  O1      -100.3900   23.8330   28.1590 O.2   800  G3H800     -0.2854
      2  C1      -101.2480   24.5170   28.7190 C.2   800  G3H800      0.2426
      3  C2      -102.4470   23.9010   29.2240 C.3   800  G3H800      0.2459
      4  O2      -103.6750   24.6490   28.8930 O.3   800  G3H800     -0.2119
      5  C3      -102.5040   24.0060   30.7370 C.3   800  G3H800      0.1946
      6  O1P     -103.9630   23.3280   30.9930 O.3   800  G3H800     -0.2670
      7  O2P     -103.5950   21.8580   32.5720 O.2   800  G3H800     -0.2224
      8  O3P     -103.9090   24.0280   33.6170 O.3   800  G3H800     -0.1145
      9  O4P     -105.8310   22.5600   33.1760 O.3   800  G3H800     -0.1145
     10  P       -104.3720   23.0410   32.6800 P.3   800  G3H800      0.5327
@<TRIPOS>BOND
     1     1     2    2
     2     2     3    1
     3     4     3    1
     4     3     5    1
     5     5     6    1
     6     6    10    1
     7     7    10    2
     8    10     9    1
     9    10     8    1
