@<TRIPOS>MOLECULE
2qe2_452_A_1.pdb
 25 26 0 0 0
SMALL
GASTEIGER

@<TRIPOS>ATOM
      1  C1       -21.4520   -1.9140   11.4110 C.3   579  452579      0.0773
      2  C2       -20.0180   -1.7770   10.9480 C.2   579  452579      0.1748
      3  O1       -19.3240   -0.7910   11.3020 O.2   579  452579     -0.2913
      4  C3       -19.4170   -2.8700   10.0660 C.ar  579  452579      0.0518
      5  C4       -20.2920   -3.8840    9.5080 C.ar  579  452579      0.0346
      6  C5       -19.7590   -4.9380    8.6800 C.ar  579  452579      0.1508
      7  C6       -18.3590   -4.9810    8.4010 C.ar  579  452579      0.0863
      8  C7       -17.5190   -3.9830    8.9350 C.ar  579  452579      0.0298
      9  C8       -17.9970   -2.8980    9.7800 C.ar  579  452579      0.0696
     10  N1       -17.1370   -1.8910   10.3240 N.pl3 579  452579     -0.2276
     11  C9       -15.6860   -1.7200   10.1180 C.3   579  452579      0.1988
     12  C10      -14.8480   -2.6840   10.9710 C.2   579  452579      0.2676
     13  O2       -13.6350   -2.6810   10.8640 O.2   579  452579     -0.2711
     14  N2       -15.6210   -3.4730   11.8330 N.am  579  452579     -0.1775
     15  C11      -15.2180   -4.5090   12.7690 C.ar  579  452579      0.0798
     16  C12      -13.9460   -5.1950   12.6800 C.ar  579  452579      0.0168
     17  C13      -13.5770   -6.2010   13.5970 C.ar  579  452579      0.0013
     18  C14      -14.4540   -6.5730   14.6300 C.ar  579  452579      0.0003
     19  C15      -15.7120   -5.9430   14.7540 C.ar  579  452579      0.0079
     20  C16      -16.1300   -4.9100   13.8420 C.ar  579  452579      0.0951
     21  C17      -17.5100   -4.3020   14.0580 C.2   579  452579      0.3890
     22  O3       -18.1400   -4.6540   15.1100 O.co2 579  452579     -0.2405
     23  O4       -17.9400   -3.4950   13.1760 O.co2 579  452579     -0.2405
     24 CL1       -17.6590   -6.2270    7.4400 Cl    579  452579     -0.0799
     25  F1       -20.6130   -5.8790    8.1670 F     579  452579     -0.2033
@<TRIPOS>BOND
     1    24     7    1
     2    25     6    1
     3     7     6   ar
     4     7     8   ar
     5     6     5   ar
     6     8     9   ar
     7     5     4   ar
     8     9     4   ar
     9     9    10    1
    10     4     2    1
    11    11    10    1
    12    11    12    1
    13    13    12    2
    14     2     3    2
    15     2     1    1
    16    12    14   am
    17    14    15    1
    18    16    15   ar
    19    16    17   ar
    20    15    20   ar
    21    23    21   ar
    22    17    18   ar
    23    20    21    1
    24    20    19   ar
    25    21    22   ar
    26    18    19   ar
