@<TRIPOS>MOLECULE
2qe4_JJ3_A_1.pdb
 24 27 0 0 0
SMALL
GASTEIGER

@<TRIPOS>ATOM
      1  C1        -6.4620    8.4360   26.6260 C.ar  601  JJ3601      0.1954
      2  C2        -5.7230    8.3090   25.4190 C.ar  601  JJ3601      0.0432
      3  C3        -5.8470    7.1600   24.6240 C.ar  601  JJ3601      0.0441
      4  C4        -6.7340    6.0980   25.0240 C.ar  601  JJ3601      0.1333
      5  O5        -6.8220    4.9660   24.1960 O.3   601  JJ3601     -0.4753
      6  C6        -8.0640    4.2460   24.3750 C.3   601  JJ3601      0.1883
      7  C8        -8.3130    3.8660   25.8760 C.3   601  JJ3601      0.0485
      8  C10       -7.1390    3.0300   26.4960 C.3   601  JJ3601      0.0043
      9  C11       -7.0820    3.4560   27.9870 C.3   601  JJ3601      0.0005
     10  C12       -8.0280    4.6520   28.1620 C.3   601  JJ3601      0.0046
     11  C13       -8.4400    5.1430   26.7400 C.3   601  JJ3601      0.0292
     12  C15       -7.4740    6.2350   26.2470 C.ar  601  JJ3601      0.0145
     13  C16       -7.3310    7.4070   27.0320 C.ar  601  JJ3601      0.0407
     14  C17       -8.1190    2.9810   23.5130 C.ar  601  JJ3601      0.0174
     15  C18       -7.0150    2.5600   22.7320 C.ar  601  JJ3601      0.0025
     16  C19       -7.1120    1.3840   21.9550 C.ar  601  JJ3601      0.0418
     17  C20       -8.3140    0.6290   21.9650 C.ar  601  JJ3601      0.1957
     18  O21       -8.4260   -0.5050   21.2310 O.3   601  JJ3601     -0.2866
     19  C22       -9.4020    1.0510   22.7380 C.ar  601  JJ3601      0.0418
     20  C23       -9.3070    2.2150   23.5050 C.ar  601  JJ3601      0.0025
     21  C24       -5.0390    7.0700   23.3360 C.3   601  JJ3601      0.1718
     22  O25       -5.9120    6.8010   22.2240 O.3   601  JJ3601     -0.3462
     23  C26       -6.0140    8.0040   21.4600 C.3   601  JJ3601      0.1746
     24  O27       -6.3330    9.5520   27.3890 O.3   601  JJ3601     -0.2866
@<TRIPOS>BOND
     1    18    17    1
     2    23    22    1
     3    16    17   ar
     4    16    15   ar
     5    17    19   ar
     6    22    21    1
     7    15    14   ar
     8    19    20   ar
     9    21     3    1
    10    20    14   ar
    11    14     6    1
    12     5     6    1
    13     5     4    1
    14     6     7    1
    15     3     4   ar
    16     3     2   ar
    17     4    12   ar
    18     2     1   ar
    19     7     8    1
    20     7    11    1
    21    12    11    1
    22    12    13   ar
    23     8     9    1
    24     1    13   ar
    25     1    24    1
    26    11    10    1
    27     9    10    1
