@<TRIPOS>MOLECULE
2qe5_617_A_1.pdb
 21 22 0 0 0
SMALL
GASTEIGER

@<TRIPOS>ATOM
      1  C7         3.2820   73.7520  143.0960 C.2   579  617579      0.3890
      2  C1         2.2760   70.0090  142.8700 C.ar  579  617579      0.0003
      3  C8         0.3760   73.5760  146.2990 C.2   579  617579      0.2901
      4  O2         3.1090   74.7360  143.8940 O.co2 579  617579     -0.2405
      5  O1         4.0090   73.7910  142.0630 O.co2 579  617579     -0.2405
      6  C3         1.1850   70.9230  144.8390 C.ar  579  617579      0.0168
      7  N1         1.4540   73.3190  145.4130 N.am  579  617579     -0.1758
      8  C2         1.4380   69.8410  143.9810 C.ar  579  617579      0.0013
      9  O3        -0.5980   72.8700  146.5920 O.2   579  617579     -0.2689
     10  C4         1.7260   72.2170  144.5830 C.ar  579  617579      0.0798
     11  C5         2.6060   72.4050  143.4460 C.ar  579  617579      0.0951
     12  C6         2.8350   71.2790  142.5830 C.ar  579  617579      0.0079
     13  C9         0.5620   74.9580  146.9320 C.3   579  617579      0.2915
     14  O4         1.7550   75.6410  146.5180 O.3   579  617579     -0.4656
     15  C10        2.9980   75.4010  147.1320 C.ar  579  617579      0.1393
     16  C11        3.3880   74.2600  147.9460 C.ar  579  617579      0.0378
     17  C12        4.6950   74.1670  148.4900 C.ar  579  617579      0.0145
     18  C13        5.6220   75.2010  148.2420 C.ar  579  617579      0.0579
     19  C14        5.2530   76.3320  147.4500 C.ar  579  617579      0.0145
     20  C15        3.9580   76.4340  146.8990 C.ar  579  617579      0.0378
     21 CL1         7.1990   75.0940  148.8920 Cl    579  617579     -0.0822
@<TRIPOS>BOND
     1     5     1   ar
     2    12     2   ar
     3    12    11   ar
     4     2     8   ar
     5     1    11    1
     6     1     4   ar
     7    11    10   ar
     8     8     6   ar
     9    10     6   ar
    10    10     7    1
    11     7     3   am
    12     3     9    2
    13     3    13    1
    14    14    13    1
    15    14    15    1
    16    20    15   ar
    17    20    19   ar
    18    15    16   ar
    19    19    18   ar
    20    16    17   ar
    21    18    17   ar
    22    18    21    1
