@<TRIPOS>MOLECULE
2qe6_SAM_A_1.pdb
 27 29 0 0 0
SMALL
GASTEIGER

@<TRIPOS>ATOM
      1  N         -7.3670  -20.8730   39.6020 N.3   400  SAM400     -0.1159
      2  CA        -6.0170  -21.3660   40.0840 C.3   400  SAM400      0.2168
      3  C         -5.9380  -21.2160   41.5870 C.2   400  SAM400      0.3860
      4  O         -5.2120  -21.9530   42.2450 O.co2 400  SAM400     -0.2437
      5  OXT       -6.5840  -20.3280   42.1590 O.co2 400  SAM400     -0.2437
      6  CB        -4.7830  -20.6470   39.5060 C.2   400  SAM400      0.0097
      7  CG        -4.6420  -19.1580   39.8600 C.2   400  SAM400      0.0191
      8  SD        -3.2990  -18.2630   39.0110 S.3   400  SAM400     -0.1536
      9  CE        -2.6840  -19.6800   38.0690 C.3   400  SAM400      0.0636
     10  C5'       -4.3360  -17.5310   37.7280 C.3   400  SAM400      0.0847
     11  C4'       -4.6870  -18.3090   36.4530 C.3   400  SAM400      0.1625
     12  O4'       -5.6930  -17.5970   35.7250 O.3   400  SAM400     -0.3153
     13  C3'       -3.5120  -18.4780   35.4760 C.3   400  SAM400      0.2168
     14  O3'       -3.3460  -19.8340   35.1010 O.3   400  SAM400     -0.2175
     15  C2'       -3.8190  -17.5960   34.2760 C.3   400  SAM400      0.2569
     16  O2'       -3.2110  -18.0150   33.0480 O.3   400  SAM400     -0.2130
     17  C1'       -5.3430  -17.6160   34.3330 C.3   400  SAM400      0.3185
     18  N9        -5.8930  -16.4460   33.6470 N.pl3 400  SAM400     -0.1439
     19  C8        -5.7470  -15.0940   33.9540 C.3   400  SAM400      0.3377
     20  N7        -6.4470  -14.3680   33.0430 N.2   400  SAM400     -0.2095
     21  C5        -7.0440  -15.2490   32.1790 C.2   400  SAM400      0.2526
     22  C6        -7.8910  -15.0460   31.0790 C.2   400  SAM400      0.4393
     23  N6        -8.2120  -13.7770   30.7040 N.pl3 400  SAM400      0.2180
     24  N1        -8.3430  -16.1680   30.4060 N.2   400  SAM400      0.0021
     25  C2        -7.9870  -17.4750   30.7970 C.3   400  SAM400      0.5254
     26  N3        -7.1390  -17.6730   31.8830 N.2   400  SAM400     -0.0055
     27  C4        -6.6980  -16.5600   32.5550 C.2   400  SAM400      0.3518
@<TRIPOS>BOND
     1    24    25    1
     2    24    22    2
     3    23    22    1
     4    25    26    1
     5    22    21    1
     6    26    27    2
     7    21    27    1
     8    21    20    2
     9    27    18    1
    10    20    19    1
    11    16    15    1
    12    18    19    1
    13    18    17    1
    14    15    17    1
    15    15    13    1
    16    17    12    1
    17    14    13    1
    18    13    11    1
    19    12    11    1
    20    11    10    1
    21    10     8    1
    22     9     8    1
    23     8     7    1
    24     6     7    2
    25     6     2    1
    26     1     2    1
    27     2     3    1
    28     3     5   ar
    29     3     4   ar
