@<TRIPOS>MOLECULE
2qeh_SRO_A_1.pdb
 13 14 0 0 0
SMALL
GASTEIGER

@<TRIPOS>ATOM
      1  OH        16.5170  -13.4770   -4.0240 O.2   145  SRO145     -0.2869
      2  CZ3       17.3840  -12.4770   -4.3380 C.2   145  SRO145      0.1919
      3  CH2       16.9740  -11.1720   -4.0640 C.2   145  SRO145      0.0222
      4  CZ2       17.8170  -10.1210   -4.3620 C.3   145  SRO145      0.0751
      5  CE2       19.0430  -10.4360   -4.9170 C.2   145  SRO145      0.0633
      6  NE1       20.0770   -9.6880   -5.3470 N.2   145  SRO145     -0.2482
      7  CD1       21.0370  -10.5080   -5.8360 C.2   145  SRO145      0.0942
      8  CG        20.6210  -11.8280   -5.7250 C.2   145  SRO145     -0.0003
      9  CD2       19.3500  -11.7660   -5.1560 C.2   145  SRO145      0.0146
     10  CE3       18.5470  -12.7390   -4.8650 C.2   145  SRO145      0.0426
     11  CB        21.4420  -13.0290   -6.1670 C.3   145  SRO145      0.0485
     12  CA        22.9370  -12.6660   -6.1150 C.3   145  SRO145      0.1140
     13  NZ        23.7690  -13.8280   -6.4090 N.3   145  SRO145     -0.1310
@<TRIPOS>BOND
     1    13    12    1
     2    11    12    1
     3    11     8    1
     4     7     8    2
     5     7     6    1
     6     8     9    1
     7     6     5    2
     8     9     5    1
     9     9    10    2
    10     5     4    1
    11    10     2    1
    12     4     3    1
    13     2     3    2
    14     2     1    1
