@<TRIPOS>MOLECULE
2qei_CXX_A_1.pdb
 22 24 0 0 0
SMALL
GASTEIGER

@<TRIPOS>ATOM
      1  C1        26.1040   21.0500   23.4870 C.ar  801  CXX801      0.0262
      2  C2        24.8990   20.4530   23.1140 C.ar  801  CXX801      0.0589
      3  C3        24.7750   19.7330   21.9140 C.ar  801  CXX801      0.0115
      4  C4        25.9100   19.6400   21.1020 C.ar  801  CXX801      0.0021
      5  C5        28.2940   20.0580   20.4790 C.2   801  CXX801      0.0013
      6  C6        28.8720   21.3440   19.8360 C.2   801  CXX801      0.0013
      7  C8        30.0450   24.9120   20.8030 C.ar  801  CXX801      0.0001
      8  C9        29.8820   24.9680   22.1700 C.ar  801  CXX801      0.0013
      9  C10       29.3890   23.8650   22.8670 C.ar  801  CXX801      0.0148
     10  C11       29.0320   22.6480   22.2070 C.ar  801  CXX801      0.0515
     11  C13       27.1550   20.2280   21.4390 C.ar  801  CXX801      0.0137
     12  C14       27.2530   20.9400   22.6520 C.ar  801  CXX801      0.0524
     13  C17       29.6670   18.9570   24.4550 C.3   801  CXX801      0.0739
     14  C18       30.7670   16.8200   24.8580 C.3   801  CXX801      0.0897
     15  C7        29.7080   23.7330   20.1060 C.ar  801  CXX801      0.0012
     16  C12       29.1980   22.5640   20.7270 C.ar  801  CXX801      0.0136
     17  C15       29.0690   21.4360   24.4190 C.3   801  CXX801      0.0970
     18  C16       28.9600   20.1100   25.1630 C.3   801  CXX801      0.0391
     19  C19       28.3850   16.9790   25.2280 C.3   801  CXX801      0.0897
     20  N1        28.5200   21.5370   23.0120 N.pl3 801  CXX801     -0.2868
     21  N2        29.6790   17.7260   25.2830 N.3   801  CXX801     -0.2703
     22 CL2        23.5390   20.6230   24.1760 Cl    801  CXX801     -0.0822
@<TRIPOS>BOND
     1     6     5    2
     2     6    16    1
     3    15    16   ar
     4    15     7   ar
     5     5    11    1
     6    16    10   ar
     7     7     8   ar
     8     4    11   ar
     9     4     3   ar
    10    11    12   ar
    11     3     2   ar
    12     8     9   ar
    13    10     9   ar
    14    10    20    1
    15    12    20    1
    16    12     1   ar
    17    20    17    1
    18     2     1   ar
    19     2    22    1
    20    17    18    1
    21    13    18    1
    22    13    21    1
    23    14    21    1
    24    19    21    1
