@<TRIPOS>MOLECULE
2qen_ADP_A_1.pdb
 27 29 0 0 0
SMALL
GASTEIGER

@<TRIPOS>ATOM
      1  PB        19.1350   10.7660   27.9950 P.3   999  ADP999      0.5373
      2  O1B       17.7350   10.2110   27.8920 O.3   999  ADP999     -0.1143
      3  O2B       19.7470   11.0250   26.6360 O.2   999  ADP999     -0.2221
      4  O3B       19.3120   11.9270   28.9380 O.3   999  ADP999     -0.1143
      5  PA        21.2950    8.7550   28.1770 P.3   999  ADP999      0.2231
      6  O1A       21.0590    7.9970   26.8970 O.2   999  ADP999     -0.5169
      7  O2A       22.5020    9.6280   28.3240 O.3   999  ADP999     -0.4370
      8  O3A       19.9580    9.5570   28.6650 O.3   999  ADP999     -0.2261
      9  O5'       21.3100    7.6180   29.3270 O.3   999  ADP999     -0.3111
     10  C5'       21.8160    7.8440   30.6460 C.3   999  ADP999      0.1813
     11  C4'       22.8170    6.7270   30.9690 C.3   999  ADP999      0.1821
     12  O4'       22.1230    5.5220   31.3440 O.3   999  ADP999     -0.3135
     13  C3'       23.7090    6.2940   29.8060 C.3   999  ADP999      0.2184
     14  O3'       24.9460    6.9950   29.7720 O.3   999  ADP999     -0.2174
     15  C2'       24.0020    4.8590   30.1080 C.3   999  ADP999      0.2570
     16  O2'       24.8790    4.8780   31.2310 O.3   999  ADP999     -0.2130
     17  C1'       22.7260    4.3780   30.7300 C.3   999  ADP999      0.3186
     18  N9        21.7140    3.7490   29.8520 N.pl3 999  ADP999     -0.1439
     19  C8        20.6510    4.3800   29.3200 C.3   999  ADP999      0.3377
     20  N7        19.8610    3.5200   28.6340 N.2   999  ADP999     -0.2095
     21  C5        20.4260    2.3020   28.7230 C.2   999  ADP999      0.2526
     22  C6        20.1190    0.9440   28.2290 C.2   999  ADP999      0.4393
     23  N6        19.0160    0.7080   27.4830 N.pl3 999  ADP999      0.2180
     24  N1        20.9760   -0.0570   28.5540 N.2   999  ADP999      0.0021
     25  C2        22.0770    0.1640   29.2800 C.3   999  ADP999      0.5254
     26  N3        22.4100    1.3670   29.7850 N.2   999  ADP999     -0.0055
     27  C4        21.6440    2.4570   29.5390 C.2   999  ADP999      0.3518
@<TRIPOS>BOND
     1     3     1    2
     2     6     5    2
     3    23    22    1
     4     2     1    1
     5     1     8    1
     6     1     4    1
     7     5     7    1
     8     5     8    1
     9     5     9    1
    10    22    24    2
    11    22    21    1
    12    24    25    1
    13    20    21    2
    14    20    19    1
    15    21    27    1
    16    25    26    1
    17    19    18    1
    18     9    10    1
    19    27    26    2
    20    27    18    1
    21    14    13    1
    22    13    15    1
    23    13    11    1
    24    18    17    1
    25    15    17    1
    26    15    16    1
    27    10    11    1
    28    17    12    1
    29    11    12    1
