@<TRIPOS>MOLECULE
2qeo_LNR_A_1.pdb
 12 12 0 0 0
SMALL
GASTEIGER

@<TRIPOS>ATOM
      1  OAC       41.8950  -20.2470   -4.7430 O.3   200  LNR200     -0.2832
      2  CAJ       40.5960  -20.6600   -4.4970 C.ar  200  LNR200      0.2340
      3  CAG       40.2970  -21.9330   -3.9950 C.ar  200  LNR200      0.0436
      4  CAI       39.5190  -19.8200   -4.7280 C.ar  200  LNR200      0.2342
      5  OAB       39.7170  -18.5650   -5.2120 O.3   200  LNR200     -0.2831
      6  CAE       38.2330  -20.2710   -4.4470 C.ar  200  LNR200      0.0452
      7  CAF       38.0150  -21.4640   -3.9800 C.ar  200  LNR200      0.0017
      8  CAK       38.9680  -22.3060   -3.7420 C.ar  200  LNR200      0.0126
      9  CAL       38.6620  -23.6710   -3.1930 C.3   200  LNR200      0.1933
     10  OAD       38.2250  -24.5890   -4.2030 O.3   200  LNR200     -0.2167
     11  CAH       37.6540  -23.6510   -2.0340 C.3   200  LNR200      0.1466
     12  NAA       37.6990  -24.8690   -1.2240 N.3   200  LNR200     -0.1282
@<TRIPOS>BOND
     1     5     4    1
     2     1     2    1
     3     4     2   ar
     4     4     6   ar
     5     2     3   ar
     6     6     7   ar
     7    10     9    1
     8     3     8   ar
     9     7     8   ar
    10     8     9    1
    11     9    11    1
    12    11    12    1
