@<TRIPOS>MOLECULE
2qes_ADE_A_1.pdb
 10 11 0 0 0
SMALL
GASTEIGER

@<TRIPOS>ATOM
      1  N9        12.4910   20.9690    5.0990 N.2   501  ADE501     -0.1914
      2  C8        12.5710   21.4160    3.8650 C.3   501  ADE501      0.2618
      3  N7        12.2260   22.7050    3.7210 N.2   501  ADE501     -0.2267
      4  C5        11.8710   23.1300    4.9550 C.2   501  ADE501      0.2303
      5  C6        11.3220   24.3000    5.5640 C.2   501  ADE501      0.4393
      6  N6        11.0200   25.3320    4.6990 N.pl3 501  ADE501      0.2185
      7  N1        11.1630   24.3450    6.7370 N.2   501  ADE501     -0.0265
      8  C2        11.3760   23.2130    7.6180 C.3   501  ADE501      0.4008
      9  N3        11.8080   22.0590    7.1490 N.2   501  ADE501     -0.1640
     10  C4        12.0640   22.0250    5.8290 C.1   501  ADE501      0.0579
@<TRIPOS>BOND
     1     3     2    1
     2     3     4    2
     3     2     1    1
     4     6     5    1
     5     4     5    1
     6     4    10    1
     7     1    10    2
     8     5     7    2
     9    10     9    2
    10     7     8    1
    11     9     8    1
