@<TRIPOS>MOLECULE
2qet_ADE_A_1.pdb
 10 11 0 0 0
SMALL
GASTEIGER

@<TRIPOS>ATOM
      1  N9        18.2250   38.9030   -2.5730 N.2   501  ADE501     -0.1914
      2  C8        17.9700   39.7420   -3.5530 C.3   501  ADE501      0.2618
      3  N7        18.2280   39.2570   -4.7770 N.2   501  ADE501     -0.2267
      4  C5        18.7110   38.0090   -4.5830 C.2   501  ADE501      0.2303
      5  C6        19.2710   36.9490   -5.3600 C.2   501  ADE501      0.4393
      6  N6        19.4100   37.2110   -6.7080 N.pl3 501  ADE501      0.2185
      7  N1        19.5720   35.9250   -4.8450 N.2   501  ADE501     -0.0265
      8  C2        19.5290   35.7060   -3.4120 C.3   501  ADE501      0.4008
      9  N3        19.1010   36.6470   -2.5940 N.2   501  ADE501     -0.1640
     10  C4        18.6850   37.7840   -3.1790 C.1   501  ADE501      0.0579
@<TRIPOS>BOND
     1     6     5    1
     2     5     7    2
     3     5     4    1
     4     7     8    1
     5     3     4    2
     6     3     2    1
     7     4    10    1
     8     2     1    1
     9     8     9    1
    10    10     9    2
    11    10     1    2
