@<TRIPOS>MOLECULE
2qey_GTP_A_1.pdb
 32 34 0 0 0
SMALL
GASTEIGER

@<TRIPOS>ATOM
      1  PG        -1.5070   -2.1120   13.2800 P.3   2696  GTP2696     0.5373
      2  O1G       -2.5290   -3.2010   13.0800 O.3   2696  GTP2696    -0.1143
      3  O2G       -1.8340   -0.9410   12.3920 O.2   2696  GTP2696    -0.2221
      4  O3G       -0.1230   -2.6180   12.9560 O.3   2696  GTP2696    -0.1143
      5  O3B       -1.5200   -1.6720   14.8330 O.3   2696  GTP2696    -0.2258
      6  PB        -2.7830   -1.0300   15.6040 P.3   2696  GTP2696     0.2277
      7  O1B       -4.0700   -1.7540   15.3010 O.2   2696  GTP2696    -0.5168
      8  O2B       -2.9180    0.4400   15.3050 O.3   2696  GTP2696    -0.4368
      9  O3A       -2.3700   -1.2130   17.1490 O.3   2696  GTP2696    -0.2700
     10  PA        -2.2150   -2.6280   17.9110 P.3   2696  GTP2696     0.2189
     11  O1A       -3.1830   -3.6680   17.3970 O.2   2696  GTP2696    -0.5170
     12  O2A       -0.8040   -3.1520   17.8450 O.3   2696  GTP2696    -0.4371
     13  O5'       -2.6220   -2.2020   19.4080 O.3   2696  GTP2696    -0.3112
     14  C5'       -2.5690   -3.1250   20.4680 C.3   2696  GTP2696     0.1813
     15  C4'       -1.7950   -2.5170   21.6340 C.3   2696  GTP2696     0.1799
     16  O4'       -2.2920   -1.2280   21.9630 O.3   2696  GTP2696    -0.3326
     17  C3'       -1.9330   -3.3810   22.8770 C.3   2696  GTP2696     0.2158
     18  O3'       -0.6940   -3.3890   23.5500 O.3   2696  GTP2696    -0.2175
     19  C2'       -2.9530   -2.6370   23.7120 C.3   2696  GTP2696     0.2310
     20  O2'       -2.7460   -2.8710   25.0850 O.3   2696  GTP2696    -0.2158
     21  C1'       -2.7020   -1.1870   23.3180 C.3   2696  GTP2696     0.2293
     22  N9        -3.9020   -0.3480   23.5130 N.pl3 2696  GTP2696    -0.2354
     23  C8        -4.9430   -0.1520   22.6410 C.3   2696  GTP2696     0.2246
     24  N7        -5.8340    0.6940   23.2060 N.2   2696  GTP2696    -0.2322
     25  C5        -5.3750    1.0440   24.4290 C.2   2696  GTP2696     0.2182
     26  C6        -5.8810    1.8700   25.4300 C.1   2696  GTP2696     0.2372
     27  O6        -6.9530    2.4530   25.2700 O.2   2696  GTP2696    -0.2069
     28  N1        -5.1650    2.0370   26.6030 N.2   2696  GTP2696    -0.2485
     29  C2        -3.9590    1.3810   26.7810 C.1   2696  GTP2696     0.2531
     30  N2        -3.2590    1.5280   27.9020 N.pl3 2696  GTP2696    -0.0226
     31  N3        -3.4700    0.5600   25.7870 N.2   2696  GTP2696    -0.3074
     32  C4        -4.1620    0.3960   24.6310 C.2   2696  GTP2696     0.2300
@<TRIPOS>BOND
     1     3     1    2
     2     4     1    1
     3     2     1    1
     4     1     5    1
     5     5     6    1
     6     7     6    2
     7     8     6    1
     8     6     9    1
     9     9    10    1
    10    11    10    2
    11    12    10    1
    12    10    13    1
    13    13    14    1
    14    14    15    1
    15    15    16    1
    16    15    17    1
    17    16    21    1
    18    23    24    1
    19    23    22    1
    20    17    18    1
    21    17    19    1
    22    24    25    2
    23    21    22    1
    24    21    19    1
    25    22    32    1
    26    19    20    1
    27    25    32    1
    28    25    26    1
    29    32    31    2
    30    27    26    2
    31    26    28    2
    32    31    29    2
    33    28    29    2
    34    29    30    1
