@<TRIPOS>MOLECULE
2qf2_GDP_A_1.pdb
 28 30 0 0 0
SMALL
GASTEIGER

@<TRIPOS>ATOM
      1  PB        19.5020    1.0550    9.8720 P.3   702  GDP702      0.5373
      2  O1B       19.4970    1.9500    8.6580 O.2   702  GDP702     -0.2221
      3  O2B       20.6470    1.4950   10.7630 O.3   702  GDP702     -0.1143
      4  O3B       19.6380   -0.3960    9.4840 O.3   702  GDP702     -0.1143
      5  O3A       18.1170    1.2090   10.6810 O.3   702  GDP702     -0.2261
      6  PA        17.8210    2.3420   11.7830 P.3   702  GDP702      0.2231
      7  O1A       18.2050    1.8350   13.1490 O.3   702  GDP702     -0.4370
      8  O2A       18.5010    3.6410   11.4400 O.2   702  GDP702     -0.5169
      9  O5'       16.2200    2.4620   11.7270 O.3   702  GDP702     -0.3111
     10  C5'       15.5550    2.8950   10.5400 C.3   702  GDP702      0.1813
     11  C4'       14.1020    3.2100   10.8890 C.3   702  GDP702      0.1799
     12  O4'       13.4980    2.0500   11.4710 O.3   702  GDP702     -0.3326
     13  C3'       13.9750    4.3400   11.9090 C.3   702  GDP702      0.2158
     14  O3'       12.8900    5.1890   11.5160 O.3   702  GDP702     -0.2175
     15  C2'       13.6710    3.6250   13.2180 C.3   702  GDP702      0.2310
     16  O2'       12.8700    4.3950   14.1260 O.3   702  GDP702     -0.2158
     17  C1'       12.9540    2.3630   12.7540 C.3   702  GDP702      0.2293
     18  N9        13.1770    1.2670   13.7260 N.pl3 702  GDP702     -0.2354
     19  C8        14.3720    0.8420   14.1880 C.3   702  GDP702      0.2246
     20  N7        14.2200   -0.1790   15.0690 N.2   702  GDP702     -0.2322
     21  C5        12.8950   -0.4130   15.1810 C.2   702  GDP702      0.2182
     22  C6        12.0360   -1.3480   15.9470 C.1   702  GDP702      0.2372
     23  O6        12.5430   -2.1840   16.7270 O.2   702  GDP702     -0.2069
     24  N1        10.7030   -1.2720   15.7810 N.2   702  GDP702     -0.2485
     25  C2        10.1250   -0.3750   14.9470 C.1   702  GDP702      0.2531
     26  N2         8.7680   -0.3620   14.8330 N.pl3 702  GDP702     -0.0226
     27  N3        10.8510    0.5150   14.2170 N.2   702  GDP702     -0.3074
     28  C4        12.2110    0.5400   14.2890 C.2   702  GDP702      0.2300
@<TRIPOS>BOND
     1     2     1    2
     2     4     1    1
     3     1     5    1
     4     1     3    1
     5    10    11    1
     6    10     9    1
     7     5     6    1
     8    11    12    1
     9    11    13    1
    10     8     6    2
    11    12    17    1
    12    14    13    1
    13     9     6    1
    14     6     7    1
    15    13    15    1
    16    17    15    1
    17    17    18    1
    18    15    16    1
    19    18    19    1
    20    18    28    1
    21    19    20    1
    22    27    28    2
    23    27    25    2
    24    28    21    1
    25    26    25    1
    26    25    24    2
    27    20    21    2
    28    21    22    1
    29    24    22    2
    30    22    23    2
