@<TRIPOS>MOLECULE
2qf6_A56_A_1.pdb
 19 21 0 0 0
SMALL
GASTEIGER

@<TRIPOS>ATOM
      1  C1        18.6200   36.8770    9.1510 C.ar  256  A56256      0.0000
      2  C2        18.3500   38.1660    8.6320 C.ar  256  A56256      0.0000
      3  C3        18.2110   38.3420    7.2170 C.ar  256  A56256      0.0005
      4  C4        18.3410   37.2110    6.3240 C.ar  256  A56256      0.0008
      5  C5        18.6130   35.9200    6.8580 C.ar  256  A56256      0.0000
      6  C6        18.7510   35.7610    8.2650 C.ar  256  A56256      0.0000
      7  C7        17.9420   39.6250    6.6630 C.ar  256  A56256      0.0074
      8  C8        17.8060   39.7810    5.2610 C.ar  256  A56256      0.0459
      9  C9        17.9300   38.6800    4.3750 C.ar  256  A56256      0.0934
     10  C10       18.1980   37.3930    4.9100 C.ar  256  A56256      0.0126
     11 BR1        17.4550   41.5280    4.6950 Br    256  A56256     -0.0482
     12  C12       17.7950   38.7780    2.8950 C.1   256  A56256      0.1636
     13  N13       18.4670   39.6890    2.1290 N.2   256  A56256     -0.2576
     14  C14       18.2720   39.6990    0.8140 C.1   256  A56256      0.2622
     15  N15       17.4610   38.8880    0.1250 N.2   256  A56256     -0.2413
     16  C16       16.8320   38.0220    0.9210 C.1   256  A56256      0.2622
     17  N17       16.9480   37.9250    2.2400 N.2   256  A56256     -0.2576
     18  N18       15.9900   37.1520    0.3550 N.pl3 256  A56256     -0.0220
     19  N19       18.9590   40.6160    0.1300 N.pl3 256  A56256     -0.0220
@<TRIPOS>BOND
     1    15    14    2
     2    15    16    2
     3    19    14    1
     4    18    16    1
     5    14    13    2
     6    16    17    2
     7    13    12    2
     8    17    12    2
     9    12     9    1
    10     9    10   ar
    11     9     8   ar
    12    11     8    1
    13    10     4   ar
    14     8     7   ar
    15     4     5   ar
    16     4     3   ar
    17     7     3   ar
    18     5     6   ar
    19     3     2   ar
    20     6     1   ar
    21     2     1   ar
