@<TRIPOS>MOLECULE
2qf7_COA_A_1.pdb
 32 34 0 0 0
SMALL
GASTEIGER

@<TRIPOS>ATOM
      1  N1A      145.8140   91.0830   21.3410 N.2   1161  COA1161     0.0021
      2  C2A      144.6970   90.8160   20.5770 C.3   1161  COA1161     0.5254
      3  N3A      143.8220   91.8410   20.2740 N.2   1161  COA1161    -0.0055
      4  C4A      144.0490   93.1100   20.7060 C.2   1161  COA1161     0.3518
      5  C5A      145.1650   93.3820   21.4780 C.2   1161  COA1161     0.2526
      6  C6A      146.0510   92.3600   21.8060 C.2   1161  COA1161     0.4393
      7  N6A      146.8200   92.5350   22.8840 N.pl3 1161  COA1161     0.2180
      8  N7A      145.1680   94.7010   21.7740 N.2   1161  COA1161    -0.2095
      9  C8A      144.0850   95.2730   21.2160 C.3   1161  COA1161     0.3377
     10  N9A      143.3730   94.3020   20.5410 N.pl3 1161  COA1161    -0.1439
     11  C1B      142.0550   94.4990   19.8930 C.3   1161  COA1161     0.3185
     12  C2B      140.9180   94.2050   20.8590 C.3   1161  COA1161     0.2543
     13  O2B      139.8130   93.7230   20.1270 O.3   1161  COA1161    -0.2131
     14  C3B      140.5790   95.5800   21.3720 C.3   1161  COA1161     0.1928
     15  O3B      139.2530   95.7100   21.8340 O.3   1161  COA1161    -0.2673
     16  P3B      139.0800   95.8020   23.4320 P.3   1161  COA1161     0.5327
     17  O7A      137.6070   96.0340   23.6880 O.2   1161  COA1161    -0.2224
     18  O8A      139.8710   96.9670   23.9820 O.3   1161  COA1161    -0.1145
     19  O9A      139.5710   94.5080   24.0330 O.3   1161  COA1161    -0.1145
     20  C4B      140.8340   96.4720   20.1900 C.3   1161  COA1161     0.1795
     21  O4B      141.8850   95.8490   19.4800 O.3   1161  COA1161    -0.3136
     22  C5B      141.2570   97.7990   20.7710 C.3   1161  COA1161     0.1812
     23  O5B      141.7530   98.5910   19.7500 O.3   1161  COA1161    -0.3112
     24  P1A      143.1350   99.3890   19.9260 P.3   1161  COA1161     0.2189
     25  O1A      144.2740   98.4110   19.9740 O.3   1161  COA1161    -0.4371
     26  O2A      143.1670  100.3180   18.7520 O.2   1161  COA1161    -0.5170
     27  O3A      143.2520  100.2080   21.2980 O.3   1161  COA1161    -0.2703
     28  P2A      142.3610  101.4480   21.7710 P.3   1161  COA1161     0.2189
     29  O4A      143.1560  102.7280   21.8360 O.3   1161  COA1161    -0.4371
     30  O5A      141.0580  101.5520   21.0280 O.2   1161  COA1161    -0.5170
     31  O6A      142.0530  101.0070   23.2880 O.3   1161  COA1161    -0.3112
     32  CCP      141.9550   99.6350   23.6070 C.3   1161  COA1161     0.1815
@<TRIPOS>BOND
     1    26    24    2
     2    21    11    1
     3    21    20    1
     4    23    24    1
     5    23    22    1
     6    11    10    1
     7    11    12    1
     8    24    25    1
     9    24    27    1
    10    13    12    1
    11    20    22    1
    12    20    14    1
    13     3     2    1
    14     3     4    2
    15    10     4    1
    16    10     9    1
    17     2     1    1
    18     4     5    1
    19    12    14    1
    20    30    28    2
    21     9     8    1
    22    27    28    1
    23     1     6    2
    24    14    15    1
    25     5     8    2
    26     5     6    1
    27    28    29    1
    28    28    31    1
    29     6     7    1
    30    15    16    1
    31    31    32    1
    32    16    17    2
    33    16    18    1
    34    16    19    1
