@<TRIPOS>MOLECULE
2qf7_AGS_A_1.pdb
 31 33 0 0 0
SMALL
GASTEIGER

@<TRIPOS>ATOM
      1  PG       124.3350  112.2820   52.8730 P.3   1162  AGS1162     0.4340
      2  S1G      126.0790  111.6090   53.4410 S.3   1162  AGS1162     0.0416
      3  O2G      123.0360  111.7030   53.9520 O.3   1162  AGS1162    -0.1305
      4  O3G      123.9660  111.7370   51.2170 O.2   1162  AGS1162    -0.2423
      5  PB       123.3920  114.8330   53.5370 P.3   1162  AGS1162     0.2262
      6  O1B      122.4880  115.3250   52.4340 O.2   1162  AGS1162    -0.5168
      7  O2B      122.8130  114.1560   54.7570 O.3   1162  AGS1162    -0.4369
      8  O3B      124.4620  113.8800   52.8410 O.3   1162  AGS1162    -0.2405
      9  PA       125.7430  115.9760   54.7910 P.3   1162  AGS1162     0.2189
     10  O1A      125.6540  116.9850   55.9190 O.3   1162  AGS1162    -0.4371
     11  O2A      126.0860  114.5210   55.1150 O.2   1162  AGS1162    -0.5170
     12  O3A      124.3180  116.0860   53.9920 O.3   1162  AGS1162    -0.2701
     13  O5'      126.8020  116.4740   53.6860 O.3   1162  AGS1162    -0.3112
     14  C5'      127.8080  115.6050   53.1480 C.3   1162  AGS1162     0.1813
     15  C4'      128.8090  116.4430   52.3480 C.3   1162  AGS1162     0.1821
     16  O4'      128.3530  117.8010   52.2070 O.3   1162  AGS1162    -0.3135
     17  C3'      130.1860  116.5290   53.0100 C.3   1162  AGS1162     0.2184
     18  O3'      131.0800  115.4580   52.6450 O.3   1162  AGS1162    -0.2174
     19  C2'      130.6920  117.8660   52.5170 C.3   1162  AGS1162     0.2570
     20  O2'      131.2330  117.6860   51.2000 O.3   1162  AGS1162    -0.2130
     21  C1'      129.4360  118.7250   52.4050 C.3   1162  AGS1162     0.3186
     22  N9       129.2600  119.5640   53.6360 N.pl3 1162  AGS1162    -0.1439
     23  C8       128.3070  119.4250   54.5910 C.3   1162  AGS1162     0.3377
     24  N7       128.4360  120.3600   55.5900 N.2   1162  AGS1162    -0.2095
     25  C5       129.5060  121.1230   55.2740 C.2   1162  AGS1162     0.2526
     26  C6       130.2130  122.2900   55.8800 C.2   1162  AGS1162     0.4393
     27  N6       129.7940  122.8480   57.0430 N.pl3 1162  AGS1162     0.2180
     28  N1       131.2880  122.7840   55.2190 N.2   1162  AGS1162     0.0021
     29  C2       131.7290  122.2580   54.0440 C.3   1162  AGS1162     0.5254
     30  N3       131.1440  121.1990   53.4350 N.2   1162  AGS1162    -0.0055
     31  C4       130.0450  120.5980   53.9900 C.2   1162  AGS1162     0.3518
@<TRIPOS>BOND
     1    20    19    1
     2     4     1    2
     3    16    15    1
     4    16    21    1
     5    15    17    1
     6    15    14    1
     7    21    19    1
     8    21    22    1
     9     6     5    2
    10    19    17    1
    11    18    17    1
    12     8     1    1
    13     8     5    1
    14     1     2    1
    15     1     3    1
    16    14    13    1
    17    30    31    2
    18    30    29    1
    19     5    12    1
    20     5     7    1
    21    22    31    1
    22    22    23    1
    23    13     9    1
    24    31    25    1
    25    12     9    1
    26    29    28    1
    27    23    24    1
    28     9    11    2
    29     9    10    1
    30    28    26    2
    31    25    24    2
    32    25    26    1
    33    26    27    1
