@<TRIPOS>MOLECULE
2qfc_III_C_1.pdb
 47 49 0 0 0
SMALL
GASTEIGER

@<TRIPOS>ATOM
      1  N        -27.1940   51.2700   -1.6210 N.3    44  LEU44      -0.1231
      2  CA       -26.6530   52.1370   -0.5240 C.3    44  LEU44       0.1678
      3  C        -25.5780   53.0590   -1.1350 C.2    44  LEU44       0.2434
      4  O        -25.4160   53.0510   -2.3460 O.2    44  LEU44      -0.2733
      5  CB       -26.1110   51.2530    0.6010 C.3    44  LEU44       0.0284
      6  CG       -27.0000   50.0710    1.0150 C.3    44  LEU44       0.0019
      7  CD1      -26.1640   48.8550    1.3640 C.3    44  LEU44       0.0001
      8  CD2      -27.9630   50.4260    2.1530 C.3    44  LEU44       0.0001
      9  N        -24.8730   53.8800   -0.3180 N.am   45  PRO45      -0.2718
     10  CA       -23.7980   54.7440   -0.8620 C.3    45  PRO45       0.1535
     11  C        -22.5450   54.0080   -1.3740 C.2    45  PRO45       0.2599
     12  O        -22.2940   52.8440   -1.0270 O.2    45  PRO45      -0.2715
     13  CB       -23.3880   55.6020    0.3320 C.3    45  PRO45       0.0310
     14  CG       -24.4530   55.4030    1.3760 C.3    45  PRO45       0.0237
     15  CD       -25.0540   54.0760    1.1360 C.3    45  PRO45       0.0939
     16  N        -21.7570   54.7010   -2.1890 N.am   46  PHE46      -0.1960
     17  CA       -20.4160   54.2380   -2.5130 C.3    46  PHE46       0.1771
     18  C        -19.5100   54.4710   -1.2900 C.2    46  PHE46       0.2619
     19  O        -19.8200   55.3030   -0.4310 O.2    46  PHE46      -0.2715
     20  CB       -19.9000   54.9500   -3.7700 C.3    46  PHE46       0.0574
     21  CG       -20.5280   54.4440   -5.0670 C.ar   46  PHE46      -0.0200
     22  CD1      -19.8710   53.4820   -5.8520 C.ar   46  PHE46      -0.0042
     23  CD2      -21.7810   54.9250   -5.4990 C.ar   46  PHE46      -0.0042
     24  CE1      -20.4350   53.0080   -7.0520 C.ar   46  PHE46      -0.0003
     25  CE2      -22.3710   54.4560   -6.7020 C.ar   46  PHE46      -0.0003
     26  CZ       -21.6970   53.4950   -7.4710 C.ar   46  PHE46      -0.0000
     27  N        -18.4100   53.7170   -1.2160 N.am   47  GLU47      -0.1963
     28  CA       -17.5260   53.6680   -0.0260 C.3    47  GLU47       0.1733
     29  C        -16.1280   54.2490   -0.2340 C.2    47  GLU47       0.2617
     30  O        -15.3130   53.7280   -1.0150 O.2    47  GLU47      -0.2715
     31  CB       -17.3900   52.2330    0.5230 C.3    47  GLU47       0.0429
     32  CG       -18.6980   51.5670    0.9580 C.3    47  GLU47       0.1163
     33  CD       -19.2960   52.1140    2.2590 C.2    47  GLU47       0.3649
     34  OE1      -18.5980   52.8520    3.0110 O.co2  47  GLU47      -0.2457
     35  OE2      -20.4790   51.7840    2.5280 O.co2  47  GLU47      -0.2457
     36  N        -15.8720   55.3360    0.4970 N.am   48  PHE48      -0.1938
     37  CA       -14.5610   56.0140    0.4960 C.3    48  PHE48       0.2021
     38  C        -13.6290   55.5030    1.6200 C.2    48  PHE48       0.3845
     39  O        -14.0650   55.0170    2.6700 O.co2  48  PHE48      -0.2437
     40  CB       -14.7330   57.5470    0.6040 C.3    48  PHE48       0.0596
     41  CG       -15.4020   58.2080   -0.6150 C.ar   48  PHE48      -0.0199
     42  CD1      -14.6420   58.6300   -1.7150 C.ar   48  PHE48      -0.0042
     43  CD2      -16.7850   58.4540   -0.6370 C.ar   48  PHE48      -0.0042
     44  CE1      -15.2510   59.2720   -2.8140 C.ar   48  PHE48      -0.0003
     45  CE2      -17.3860   59.1000   -1.7450 C.ar   48  PHE48      -0.0003
     46  CZ       -16.5990   59.5130   -2.8160 C.ar   48  PHE48      -0.0000
     47  OXT      -12.4040   55.5820    1.5280 O.co2  48  PHE48      -0.2437
@<TRIPOS>BOND
     1    26    24   ar
     2    26    25   ar
     3    24    22   ar
     4    25    23   ar
     5    22    21   ar
     6    23    21   ar
     7    21    20    1
     8    20    17    1
     9    46    44   ar
    10    46    45   ar
    11    44    42   ar
    12    17    16    1
    13    17    18    1
    14     4     3    2
    15    16    11   am
    16    45    43   ar
    17    42    41   ar
    18     1     2    1
    19    11    12    2
    20    11    10    1
    21    18    27   am
    22    18    19    2
    23    27    28    1
    24     3     2    1
    25     3     9   am
    26    30    29    2
    27    10     9    1
    28    10    13    1
    29    43    41   ar
    30    41    40    1
    31     2     5    1
    32     9    15    1
    33    29    28    1
    34    29    36   am
    35    28    31    1
    36    13    14    1
    37    37    36    1
    38    37    40    1
    39    37    38    1
    40    31    32    1
    41     5     6    1
    42    32    33    1
    43     6     7    1
    44     6     8    1
    45    15    14    1
    46    47    38   ar
    47    38    39   ar
    48    33    35   ar
    49    33    34   ar
