@<TRIPOS>MOLECULE
2qfj_NUC_C_1.pdb
 41 44 0 0 0
SMALL
GASTEIGER

@<TRIPOS>ATOM
      1  O3'       26.9080  -18.5220   -5.2340 O.2     1  DT1        -0.2224
      2  P         27.0430  -20.0380   -5.1220 P.3     2  DC2         0.5327
      3  OP1       26.0240  -20.6410   -4.1670 O.3     2  DC2        -0.1145
      4  OP2       28.4720  -20.5240   -4.8620 O.3     2  DC2        -0.1145
      5  O5'       26.6370  -20.6390   -6.5820 O.3     2  DC2        -0.2675
      6  C5'       27.1100  -20.0240   -7.7930 C.3     2  DC2         0.1858
      7  C4'       26.3520  -20.5750   -8.9790 C.3     2  DC2         0.1774
      8  O4'       24.9650  -20.7490   -8.5800 O.3     2  DC2        -0.3339
      9  C3'       26.3490  -19.6690  -10.2130 C.3     2  DC2         0.1857
     10  O3'       26.5730  -20.4230  -11.4120 O.3     2  DC2        -0.2203
     11  C2'       24.9750  -19.0120  -10.1730 C.3     2  DC2         0.0874
     12  C1'       24.0970  -20.0180   -9.4340 C.3     2  DC2         0.2090
     13  N1        23.0040  -19.4560   -8.6010 N.am    2  DC2        -0.1802
     14  C2        21.6650  -19.5310   -9.0660 C.1     2  DC2         0.2756
     15  O2        21.4300  -20.0720  -10.1610 O.2     2  DC2        -0.1925
     16  N3        20.6620  -19.0170   -8.3080 N.2     2  DC2        -0.3024
     17  C4        20.9400  -18.4550   -7.1320 C.2     2  DC2         0.2346
     18  N4        19.9190  -17.9680   -6.4240 N.pl3   2  DC2        -0.0921
     19  C5        22.2790  -18.3690   -6.6320 C.2     2  DC2         0.0687
     20  C6        23.2720  -18.8740   -7.3940 C.2     2  DC2         0.0835
     21  C5'       26.7270  -15.8980    7.3150 C.3    23  DA23        0.0348
     22  C4'       26.1510  -15.8120    8.7120 C.3    23  DA23        0.1470
     23  O4'       24.7080  -15.7090    8.6550 O.3    23  DA23       -0.3183
     24  C3'       26.4090  -17.0650    9.5560 C.3    23  DA23        0.1600
     25  O3'       26.1010  -16.8220   10.9390 O.3    23  DA23       -0.2700
     26  C2'       25.1990  -17.8910    9.2000 C.3    23  DA23        0.1123
     27  C1'       24.2270  -16.7740    9.4570 C.3    23  DA23        0.2872
     28  N9        22.8240  -17.0120    9.1770 N.pl3  23  DA23       -0.1460
     29  C8        21.7630  -16.8260   10.0300 C.3    23  DA23        0.3377
     30  N7        20.6060  -17.1530    9.5150 N.2    23  DA23       -0.2095
     31  C5        20.9280  -17.5730    8.2360 C.2    23  DA23        0.2526
     32  C6        20.1490  -18.0440    7.1900 C.2    23  DA23        0.4393
     33  N6        18.8340  -18.1780    7.2710 N.pl3  23  DA23        0.2180
     34  N1        20.7740  -18.3820    6.0400 N.2    23  DA23        0.0021
     35  C2        22.1120  -18.2480    5.9720 C.3    23  DA23        0.5254
     36  N3        22.9610  -17.8110    6.8990 N.2    23  DA23       -0.0055
     37  C4        22.2940  -17.4870    8.0160 C.2    23  DA23        0.3518
     38  P         26.8980  -15.7310   11.8060 P.3    24  DT24        0.5326
     39  OP1       28.3370  -15.8130   11.4780 O.3    24  DT24       -0.1145
     40  OP2       26.4480  -15.9460   13.2100 O.3    24  DT24       -0.1145
     41  O5'       26.3310  -14.3180   11.3290 O.2    24  DT24       -0.2224
@<TRIPOS>BOND
     1    10     9    1
     2     9    11    1
     3     9     7    1
     4    11    12    1
     5    15    14    2
     6    12    13    1
     7    12     8    1
     8    14    13   am
     9    14    16    2
    10     7     8    1
    11     7     6    1
    12    13    20    1
    13    16    17    2
    14     6     5    1
    15    20    19    2
    16    17    19    1
    17    17    18    1
    18     5     2    1
    19     1     2    2
    20     2     4    1
    21     2     3    1
    22    35    34    1
    23    35    36    1
    24    34    32    2
    25    36    37    2
    26    32    33    1
    27    32    31    1
    28    21    22    1
    29    37    31    1
    30    37    28    1
    31    31    30    2
    32    23    22    1
    33    23    27    1
    34    22    24    1
    35    28    27    1
    36    28    29    1
    37    26    27    1
    38    26    24    1
    39    30    29    1
    40    24    25    1
    41    25    38    1
    42    41    38    2
    43    39    38    1
    44    38    40    1
