@<TRIPOS>MOLECULE
2qfk_HEM_A_1.pdb
 43 50 0 0 0
SMALL
GASTEIGER

@<TRIPOS>ATOM
      1 FE         -7.4370    1.6070   11.1740 Fe    139  HEM139      0.0000
      2  CHA       -9.0780    4.6740   10.9630 C.2   139  HEM139      0.0000
      3  CHB      -10.1380    0.1150    9.6540 C.2   139  HEM139      0.0000
      4  CHC       -6.0230   -1.5340   11.6030 C.2   139  HEM139      0.0000
      5  CHD       -4.7990    3.0300   12.7230 C.2   139  HEM139      0.0000
      6  NA        -9.2890    2.2870   10.4220 N.ar  139  HEM139      0.0000
      7  C1A       -9.7600    3.5820   10.4560 C.ar  139  HEM139      0.0000
      8  C2A      -11.0920    3.5920    9.8810 C.ar  139  HEM139      0.0000
      9  C3A      -11.3850    2.3180    9.5130 C.ar  139  HEM139      0.0000
     10  C4A      -10.2460    1.4780    9.8660 C.ar  139  HEM139      0.0000
     11  CMA      -12.6710    1.7790    8.8510 C.3   139  HEM139      0.0000
     12  CAA      -11.9740    4.8520    9.7130 C.3   139  HEM139      0.0000
     13  CBA      -12.7390    5.1050   11.0050 C.3   139  HEM139      0.0000
     14  CGA      -13.3970    6.4660   10.9610 C.2   139  HEM139      0.0000
     15  O1A      -13.9610    6.8730   12.0140 O.co2 139  HEM139      0.0000
     16  O2A      -13.3600    7.1430    9.8890 O.co2 139  HEM139      0.0000
     17  NB        -7.9800   -0.3840   10.7050 N.2   139  HEM139      0.0000
     18  C1B       -9.1520   -0.7520   10.0870 C.2   139  HEM139      0.0000
     19  C2B       -9.1580   -2.2110   10.0170 C.2   139  HEM139      0.0000
     20  C3B       -8.0080   -2.6580   10.5640 C.2   139  HEM139      0.0000
     21  C4B       -7.2560   -1.5010   10.9970 C.2   139  HEM139      0.0000
     22  CMB      -10.3060   -3.0480    9.4270 C.3   139  HEM139      0.0000
     23  CAB       -7.4630   -4.0970   10.7700 C.2   139  HEM139      0.0000
     24  CBB       -7.7600   -5.1750   10.0330 C.2   139  HEM139      0.0000
     25  NC        -5.7500    0.9050   11.9220 N.ar  139  HEM139      0.0000
     26  C1C       -5.3610   -0.4300   12.1160 C.ar  139  HEM139      0.0000
     27  C2C       -4.1460   -0.4710   12.9100 C.ar  139  HEM139      0.0000
     28  C3C       -3.8060    0.7830   13.2300 C.ar  139  HEM139      0.0000
     29  C4C       -4.8040    1.6590   12.6380 C.ar  139  HEM139      0.0000
     30  CMC       -3.3640   -1.7340   13.3200 C.3   139  HEM139      0.0000
     31  CAC       -2.5820    1.2290   14.0750 C.2   139  HEM139      0.0000
     32  CBC       -2.0290    0.4630   15.0330 C.2   139  HEM139      0.0000
     33  ND        -7.0090    3.5440   11.7340 N.2   139  HEM139      0.0000
     34  C1D       -5.8310    3.8730   12.3950 C.2   139  HEM139      0.0000
     35  C2D       -5.8330    5.2950   12.7010 C.2   139  HEM139      0.0000
     36  C3D       -7.1660    5.7960   12.1600 C.2   139  HEM139      0.0000
     37  C4D       -7.8390    4.6530   11.5790 C.2   139  HEM139      0.0000
     38  CMD       -4.7400    6.1070   13.4400 C.3   139  HEM139      0.0000
     39  CAD       -7.6870    7.2370   12.2330 C.3   139  HEM139      0.0000
     40  CBD       -8.1800    7.4030   13.6510 C.3   139  HEM139      0.0000
     41  CGD       -8.5540    8.8420   13.7890 C.2   139  HEM139      0.0000
     42  O1D       -7.8270    9.6960   13.2160 O.co2 139  HEM139      0.0000
     43  O2D       -9.5740    9.1190   14.4640 O.co2 139  HEM139      0.0000
@<TRIPOS>BOND
     1    11     9    1
     2    22    19    1
     3     9    10   ar
     4     9     8   ar
     5     3    10    2
     6     3    18    1
     7    12     8    1
     8    12    13    1
     9    10     6   ar
    10     8     7   ar
    11    16    14   ar
    12    19    18    1
    13    19    20    2
    14    24    23    2
    15    18    17    2
    16     6     7   ar
    17     6     1    1
    18     7     2    2
    19    20    23    1
    20    20    21    1
    21    17    21    1
    22    17     1    1
    23    14    13    1
    24    14    15   ar
    25     2    37    1
    26    21     4    2
    27     1    33    1
    28     1    25    1
    29    37    33    2
    30    37    36    1
    31     4    26    1
    32    33    34    1
    33    25    26   ar
    34    25    29   ar
    35    26    27   ar
    36    36    39    1
    37    36    35    2
    38    39    40    1
    39    34    35    1
    40    34     5    2
    41    29     5    1
    42    29    28   ar
    43    35    38    1
    44    27    28   ar
    45    27    30    1
    46    42    41   ar
    47    28    31    1
    48    40    41    1
    49    41    43   ar
    50    31    32    2
