@<TRIPOS>MOLECULE
2qfn_HEM_A_1.pdb
 43 50 0 0 0
SMALL
GASTEIGER

@<TRIPOS>ATOM
      1 FE         -5.8710    1.7130   11.8860 Fe    139  HEM139      0.0000
      2  CHA       -7.3180    4.8230   11.6920 C.2   139  HEM139      0.0000
      3  CHB       -8.6610    0.3590   10.3650 C.2   139  HEM139      0.0000
      4  CHC       -4.5450   -1.4530   12.2590 C.2   139  HEM139      0.0000
      5  CHD       -3.1490    2.9980   13.5530 C.2   139  HEM139      0.0000
      6  NA        -7.6510    2.4630   11.1490 N.ar  139  HEM139      0.0000
      7  C1A       -8.0670    3.7790   11.1900 C.ar  139  HEM139      0.0000
      8  C2A       -9.4050    3.8510   10.6250 C.ar  139  HEM139      0.0000
      9  C3A       -9.7680    2.6170   10.2670 C.ar  139  HEM139      0.0000
     10  C4A       -8.6780    1.7180   10.5880 C.ar  139  HEM139      0.0000
     11  CMA      -11.0970    2.2110    9.6050 C.3   139  HEM139      0.0000
     12  CAA      -10.2420    5.1390   10.4780 C.3   139  HEM139      0.0000
     13  CBA      -11.2580    5.2210   11.6180 C.3   139  HEM139      0.0000
     14  CGA      -11.9500    6.5680   11.6680 C.2   139  HEM139      0.0000
     15  O1A      -12.5760    6.8720   12.7230 O.co2 139  HEM139      0.0000
     16  O2A      -11.8890    7.3420   10.6780 O.co2 139  HEM139      0.0000
     17  NB        -6.5020   -0.1720   11.4110 N.2   139  HEM139      0.0000
     18  C1B       -7.6760   -0.5070   10.7630 C.2   139  HEM139      0.0000
     19  C2B       -7.7070   -1.9430   10.6040 C.2   139  HEM139      0.0000
     20  C3B       -6.5610   -2.4400   11.1160 C.2   139  HEM139      0.0000
     21  C4B       -5.7800   -1.3330   11.6380 C.2   139  HEM139      0.0000
     22  CMB       -8.8660   -2.7180    9.9410 C.3   139  HEM139      0.0000
     23  CAB       -6.1020   -3.9190   11.1990 C.2   139  HEM139      0.0000
     24  CBB       -6.4670   -4.8440   10.3120 C.2   139  HEM139      0.0000
     25  NC        -4.1360    0.9100   12.7360 N.ar  139  HEM139      0.0000
     26  C1C       -3.8080   -0.4230   12.8170 C.ar  139  HEM139      0.0000
     27  C2C       -2.5740   -0.5380   13.5920 C.ar  139  HEM139      0.0000
     28  C3C       -2.2060    0.7050   13.9520 C.ar  139  HEM139      0.0000
     29  C4C       -3.1820    1.6290   13.4120 C.ar  139  HEM139      0.0000
     30  CMC       -1.8690   -1.8750   13.9100 C.3   139  HEM139      0.0000
     31  CAC       -0.9700    1.1860   14.7590 C.2   139  HEM139      0.0000
     32  CBC       -0.5670    0.5970   15.8760 C.2   139  HEM139      0.0000
     33  ND        -5.3080    3.5840   12.4920 N.2   139  HEM139      0.0000
     34  C1D       -4.1450    3.8820   13.2120 C.2   139  HEM139      0.0000
     35  C2D       -4.1290    5.2920   13.5300 C.2   139  HEM139      0.0000
     36  C3D       -5.4210    5.8400   12.9430 C.2   139  HEM139      0.0000
     37  C4D       -6.0970    4.7230   12.3270 C.2   139  HEM139      0.0000
     38  CMD       -3.0660    6.0920   14.3110 C.3   139  HEM139      0.0000
     39  CAD       -5.9300    7.2830   13.0160 C.3   139  HEM139      0.0000
     40  CBD       -6.8290    7.3850   14.2480 C.3   139  HEM139      0.0000
     41  CGD       -7.0490    8.8270   14.6520 C.2   139  HEM139      0.0000
     42  O1D       -6.5090    9.7480   13.9850 O.co2 139  HEM139      0.0000
     43  O2D       -7.7790    9.0610   15.6580 O.co2 139  HEM139      0.0000
@<TRIPOS>BOND
     1    11     9    1
     2    22    19    1
     3     9    10   ar
     4     9     8   ar
     5    24    23    2
     6     3    10    2
     7     3    18    1
     8    12     8    1
     9    12    13    1
    10    10     6   ar
    11    19    18    1
    12    19    20    2
    13     8     7   ar
    14    16    14   ar
    15    18    17    2
    16    20    23    1
    17    20    21    1
    18     6     7   ar
    19     6     1    1
    20     7     2    2
    21    17    21    1
    22    17     1    1
    23    13    14    1
    24    21     4    2
    25    14    15   ar
    26     2    37    1
    27     1    33    1
    28     1    25    1
    29     4    26    1
    30    37    33    2
    31    37    36    1
    32    33    34    1
    33    25    26   ar
    34    25    29   ar
    35    26    27   ar
    36    36    39    1
    37    36    35    2
    38    39    40    1
    39    34    35    1
    40    34     5    2
    41    29     5    1
    42    29    28   ar
    43    35    38    1
    44    27    30    1
    45    27    28   ar
    46    28    31    1
    47    42    41   ar
    48    40    41    1
    49    41    43   ar
    50    31    32    2
