@<TRIPOS>MOLECULE
2qfo_A51_A_1.pdb
 14 15 0 0 0
SMALL
GASTEIGER

@<TRIPOS>ATOM
      1  C1        -4.4260   34.4860   47.4860 C.2   999  A51999      0.1833
      2  C2        -3.4360   35.3080   48.2710 C.2   999  A51999      0.0486
      3  C3        -2.2890   35.6400   47.4220 C.2   999  A51999      0.0956
      4  C4        -2.6410   35.0880   46.0960 C.2   999  A51999      0.3472
      5  O5        -3.8340   34.4470   46.1670 O.3   999  A51999     -0.4179
      6  O6        -1.9830   35.1850   45.1140 O.2   999  A51999     -0.2444
      7  C7        -1.1340   36.2820   47.6730 C.2   999  A51999      0.0922
      8  N8        -0.7850   36.8280   49.0030 N.pl3 999  A51999     -0.2109
      9  C9         0.4840   37.2290   49.3640 C.ar  999  A51999      0.0705
     10  C10        1.5620   37.1570   48.4300 C.ar  999  A51999      0.0165
     11  C11        2.8660   37.5720   48.8050 C.ar  999  A51999      0.0013
     12  C12        3.1030   38.0630   50.1110 C.ar  999  A51999      0.0001
     13  C13        2.0390   38.1370   51.0440 C.ar  999  A51999      0.0013
     14  C14        0.7350   37.7210   50.6730 C.ar  999  A51999      0.0165
@<TRIPOS>BOND
     1     6     4    2
     2     4     5    1
     3     4     3    1
     4     5     1    1
     5     3     7    2
     6     3     2    1
     7     1     2    2
     8     7     8    1
     9    10    11   ar
    10    10     9   ar
    11    11    12   ar
    12     8     9    1
    13     9    14   ar
    14    12    13   ar
    15    14    13   ar
