@<TRIPOS>MOLECULE
2qfo_A13_A_1.pdb
 12 12 0 0 0
SMALL
GASTEIGER

@<TRIPOS>ATOM
      1  C1         3.7970   34.4890   51.0460 C.2   900  A13900      0.1078
      2  C2         2.3320   34.1810   50.7500 C.3   900  A13900      0.1194
      3  C3         2.1180   33.4950   49.4390 C.2   900  A13900      0.2005
      4  N4         3.1850   33.2100   48.6380 N.2   900  A13900     -0.3258
      5  C5         4.4230   33.5490   49.0330 C.1   900  A13900      0.2405
      6  N6         4.7820   34.1590   50.1800 N.2   900  A13900     -0.3343
      7  N7         5.3960   33.2370   48.1900 N.pl3 900  A13900     -0.0233
      8  C8         4.1920   35.1710   52.3280 C.3   900  A13900      0.0630
      9  C9         0.7200   33.1180   48.9980 C.3   900  A13900      0.4436
     10  F10        0.6900   31.7980   48.9320 F     900  A13900     -0.1638
     11  F11        0.5120   33.6560   47.8110 F     900  A13900     -0.1638
     12  F12       -0.1440   33.5330   49.9030 F     900  A13900     -0.1638
@<TRIPOS>BOND
     1    11     9    1
     2     7     5    1
     3     4     5    2
     4     4     3    2
     5    10     9    1
     6     9     3    1
     7     9    12    1
     8     5     6    2
     9     3     2    1
    10     6     1    2
    11     2     1    1
    12     1     8    1
