@<TRIPOS>MOLECULE
2qfq_S3P_A_1.pdb
 16 16 0 0 0
SMALL
GASTEIGER

@<TRIPOS>ATOM
      1  C1        55.8710   12.0960   28.0870 C.2   701  S3P701      0.0583
      2  C2        54.7430   11.2580   28.2640 C.2   701  S3P701      0.0084
      3  C3        54.8340    9.9620   29.0310 C.3   701  S3P701      0.1809
      4  C4        56.0860    9.9150   29.9370 C.3   701  S3P701      0.2140
      5  C5        57.3340   10.3480   29.1680 C.3   701  S3P701      0.1895
      6  C6        57.1310   11.7840   28.6750 C.3   701  S3P701      0.0684
      7  C7        55.7070   13.3550   27.2800 C.2   701  S3P701      0.3837
      8  O1        54.7180    8.7810   28.0780 O.3   701  S3P701     -0.2655
      9  O2        56.1950    8.5900   30.4940 O.3   701  S3P701     -0.2174
     10  O3        58.4830   10.2850   30.0060 O.3   701  S3P701     -0.2200
     11  O4        54.7800   13.3920   26.4630 O.co2 701  S3P701     -0.2409
     12  O5        56.4770   14.2790   27.4940 O.co2 701  S3P701     -0.2409
     13  P1        53.3750    7.8390   27.8670 P.3   701  S3P701      0.5329
     14  O6        52.3300    8.6980   27.2820 O.3   701  S3P701     -0.1145
     15  O7        53.0110    7.3540   29.2300 O.3   701  S3P701     -0.1145
     16  O8        53.7770    6.7650   26.9410 O.2   701  S3P701     -0.2224
@<TRIPOS>BOND
     1    11     7   ar
     2    16    13    2
     3     7    12   ar
     4     7     1    1
     5    14    13    1
     6    13     8    1
     7    13    15    1
     8     8     3    1
     9     1     2    2
    10     1     6    1
    11     2     3    1
    12     6     5    1
    13     3     4    1
    14     5     4    1
    15     5    10    1
    16     4     9    1
