@<TRIPOS>MOLECULE
2qfs_S3P_A_1.pdb
 16 16 0 0 0
SMALL
GASTEIGER

@<TRIPOS>ATOM
      1  C1        56.0510   12.2500   28.0640 C.2   701  S3P701      0.0583
      2  C2        54.9020   11.4340   28.2110 C.2   701  S3P701      0.0084
      3  C3        54.9590   10.1510   29.0190 C.3   701  S3P701      0.1809
      4  C4        56.1710   10.0960   29.9650 C.3   701  S3P701      0.2140
      5  C5        57.4380   10.4610   29.1910 C.3   701  S3P701      0.1895
      6  C6        57.2840   11.9110   28.7060 C.3   701  S3P701      0.0684
      7  C7        55.9580   13.5000   27.2220 C.2   701  S3P701      0.3837
      8  O1        54.9190    8.9610   28.1180 O.3   701  S3P701     -0.2655
      9  O2        56.2320    8.7910   30.5370 O.3   701  S3P701     -0.2174
     10  O3        58.5750   10.3560   30.0310 O.3   701  S3P701     -0.2200
     11  O4        55.1640   13.5040   26.2720 O.co2 701  S3P701     -0.2409
     12  O5        56.6850   14.4340   27.5010 O.co2 701  S3P701     -0.2409
     13  P1        53.6020    8.0170   27.9000 P.3   701  S3P701      0.5329
     14  O6        52.5370    8.8420   27.2510 O.3   701  S3P701     -0.1145
     15  O7        53.1840    7.5380   29.2510 O.3   701  S3P701     -0.1145
     16  O8        54.0420    6.9220   26.9880 O.2   701  S3P701     -0.2224
@<TRIPOS>BOND
     1    11     7   ar
     2    16    13    2
     3     7    12   ar
     4     7     1    1
     5    14    13    1
     6    13     8    1
     7    13    15    1
     8     1     2    2
     9     1     6    1
    10     8     3    1
    11     2     3    1
    12     6     5    1
    13     3     4    1
    14     5     4    1
    15     5    10    1
    16     4     9    1
