@<TRIPOS>MOLECULE
2qft_GPJ_A_1.pdb
 10 9 0 0 0
SMALL
GASTEIGER

@<TRIPOS>ATOM
      1  P1        60.2550    8.7590   26.9360 P.3   801  GPJ801      0.1347
      2  O1        60.3010   10.2050   27.3000 O.3   801  GPJ801     -0.3562
      3  O2        59.1850    8.4180   25.9600 O.2   801  GPJ801     -0.4587
      4  O3        61.5930    8.2750   26.4780 O.3   801  GPJ801     -0.3562
      5  O4        60.9720    9.9350   31.7150 O.co2 801  GPJ801     -0.2440
      6  O5        60.2550    8.4030   33.1350 O.co2 801  GPJ801     -0.2440
      7  C1        59.8090    7.8550   28.3380 C.3   801  GPJ801      0.1476
      8  C2        59.9270    7.9320   30.8730 C.3   801  GPJ801      0.2033
      9  C3        60.4220    8.8160   31.9980 C.2   801  GPJ801      0.3823
     10  N1        60.2290    8.5300   29.5610 N.3   801  GPJ801     -0.1988
@<TRIPOS>BOND
     1     3     1    2
     2     4     1    1
     3     1     2    1
     4     1     7    1
     5     7    10    1
     6    10     8    1
     7     8     9    1
     8     5     9   ar
     9     9     6   ar
