@<TRIPOS>MOLECULE
2qft_S3P_A_1.pdb
 16 16 0 0 0
SMALL
GASTEIGER

@<TRIPOS>ATOM
      1  C1        55.8280   12.3090   28.0220 C.2   701  S3P701      0.0583
      2  C2        54.7290   11.4330   28.1440 C.2   701  S3P701      0.0084
      3  C3        54.8270   10.1590   28.9830 C.3   701  S3P701      0.1809
      4  C4        56.0370   10.1740   29.9520 C.3   701  S3P701      0.2140
      5  C5        57.3210   10.6430   29.2340 C.3   701  S3P701      0.1895
      6  C6        57.0760   12.0600   28.7080 C.3   701  S3P701      0.0684
      7  C7        55.6780   13.5390   27.1680 C.2   701  S3P701      0.3837
      8  O1        54.8180    8.9730   28.1390 O.3   701  S3P701     -0.2655
      9  O2        56.1710    8.8740   30.5480 O.3   701  S3P701     -0.2174
     10  O3        58.4380   10.6410   30.1320 O.3   701  S3P701     -0.2200
     11  O4        54.8330   13.5110   26.2300 O.co2 701  S3P701     -0.2409
     12  O5        56.3810   14.5190   27.4510 O.co2 701  S3P701     -0.2409
     13  P1        53.5150    8.0140   27.9330 P.3   701  S3P701      0.5329
     14  O6        52.4390    8.8480   27.3170 O.3   701  S3P701     -0.1145
     15  O7        53.1110    7.4770   29.2970 O.3   701  S3P701     -0.1145
     16  O8        53.9560    6.9230   27.0080 O.2   701  S3P701     -0.2224
@<TRIPOS>BOND
     1    11     7   ar
     2    16    13    2
     3     7    12   ar
     4     7     1    1
     5    14    13    1
     6    13     8    1
     7    13    15    1
     8     1     2    2
     9     1     6    1
    10     8     3    1
    11     2     3    1
    12     6     5    1
    13     3     4    1
    14     5     4    1
    15     5    10    1
    16     4     9    1
