@<TRIPOS>MOLECULE
2qfu_GPJ_A_1.pdb
 10 9 0 0 0
SMALL
GASTEIGER

@<TRIPOS>ATOM
      1  P1        60.2450    8.6740   26.9030 P.3   801  GPJ801      0.1347
      2  O1        60.3050   10.1080   27.2450 O.3   801  GPJ801     -0.3562
      3  O2        59.1710    8.3000   25.9520 O.2   801  GPJ801     -0.4587
      4  O3        61.6010    8.1780   26.4350 O.3   801  GPJ801     -0.3562
      5  O4        60.9860    9.8310   31.6480 O.co2 801  GPJ801     -0.2440
      6  O5        60.2890    8.2830   33.0650 O.co2 801  GPJ801     -0.2440
      7  C1        59.8100    7.7950   28.3200 C.3   801  GPJ801      0.1476
      8  C2        59.9430    7.8690   30.8180 C.3   801  GPJ801      0.2033
      9  C3        60.4420    8.7150   31.9290 C.2   801  GPJ801      0.3823
     10  N1        60.2340    8.4810   29.5200 N.3   801  GPJ801     -0.1988
@<TRIPOS>BOND
     1     3     1    2
     2     4     1    1
     3     1     2    1
     4     1     7    1
     5     7    10    1
     6    10     8    1
     7     8     9    1
     8     5     9   ar
     9     9     6   ar
