@<TRIPOS>MOLECULE
2qfu_S3P_A_1.pdb
 16 16 0 0 0
SMALL
GASTEIGER

@<TRIPOS>ATOM
      1  C1        55.7740   12.1720   28.0560 C.2   701  S3P701      0.0583
      2  C2        54.7110   11.2620   28.1890 C.2   701  S3P701      0.0084
      3  C3        54.8550    9.9880   28.9910 C.3   701  S3P701      0.1809
      4  C4        56.0790   10.0120   29.9330 C.3   701  S3P701      0.2140
      5  C5        57.3230   10.5480   29.2130 C.3   701  S3P701      0.1895
      6  C6        57.0290   11.9660   28.7210 C.3   701  S3P701      0.0684
      7  C7        55.5660   13.4040   27.2200 C.2   701  S3P701      0.3837
      8  O1        54.8130    8.8310   28.1030 O.3   701  S3P701     -0.2655
      9  O2        56.2740    8.6870   30.4790 O.3   701  S3P701     -0.2174
     10  O3        58.4520   10.5690   30.0930 O.3   701  S3P701     -0.2200
     11  O4        54.6360   13.3890   26.3790 O.co2 701  S3P701     -0.2409
     12  O5        56.2910   14.3740   27.4430 O.co2 701  S3P701     -0.2409
     13  P1        53.4900    7.8390   27.8540 P.3   701  S3P701      0.5329
     14  O6        52.4270    8.7090   27.2760 O.3   701  S3P701     -0.1145
     15  O7        53.1350    7.3100   29.2190 O.3   701  S3P701     -0.1145
     16  O8        53.9500    6.8000   26.8930 O.2   701  S3P701     -0.2224
@<TRIPOS>BOND
     1    11     7   ar
     2    16    13    2
     3     7    12   ar
     4     7     1    1
     5    14    13    1
     6    13     8    1
     7    13    15    1
     8     1     2    2
     9     1     6    1
    10     8     3    1
    11     2     3    1
    12     6     5    1
    13     3     4    1
    14     5     4    1
    15     5    10    1
    16     4     9    1
