@<TRIPOS>MOLECULE
2qfv_NAP_A_1.pdb
 48 52 0 0 0
SMALL
GASTEIGER

@<TRIPOS>ATOM
      1  PA       -23.7740  -65.2210  -40.7700 P.3   1001  NAP1001     0.2189
      2  O1A      -23.5710  -64.5600  -42.0790 O.2   1001  NAP1001    -0.5170
      3  O2A      -23.3850  -64.4910  -39.5450 O.3   1001  NAP1001    -0.4371
      4  O5B      -23.0690  -66.6670  -40.7950 O.3   1001  NAP1001    -0.3112
      5  C5B      -23.5970  -67.7110  -41.6170 C.3   1001  NAP1001     0.1813
      6  C4B      -22.8500  -69.0150  -41.3320 C.3   1001  NAP1001     0.1820
      7  O4B      -21.4550  -68.9230  -41.6700 O.3   1001  NAP1001    -0.3136
      8  C3B      -22.8810  -69.3310  -39.8370 C.3   1001  NAP1001     0.2157
      9  O3B      -24.1130  -69.9830  -39.5170 O.3   1001  NAP1001    -0.2175
     10  C2B      -21.7330  -70.3360  -39.7990 C.3   1001  NAP1001     0.2314
     11  O2B      -22.1070  -71.5410  -40.4710 O.3   1001  NAP1001    -0.2630
     12  C1B      -20.6990  -69.5860  -40.6390 C.3   1001  NAP1001     0.3158
     13  N9A      -20.0370  -68.5520  -39.8120 N.pl3 1001  NAP1001    -0.1439
     14  C8A      -20.1590  -67.2350  -39.9570 C.3   1001  NAP1001     0.3377
     15  N7A      -19.3860  -66.6140  -39.0680 N.2   1001  NAP1001    -0.2095
     16  C5A      -18.7720  -67.5460  -38.3470 C.2   1001  NAP1001     0.2526
     17  C6A      -17.8740  -67.5200  -37.2850 C.2   1001  NAP1001     0.4393
     18  N6A      -17.4110  -66.3580  -36.8340 N.pl3 1001  NAP1001     0.2180
     19  N1A      -17.4560  -68.6790  -36.7550 N.2   1001  NAP1001     0.0021
     20  C2A      -17.8730  -69.8420  -37.2260 C.3   1001  NAP1001     0.5254
     21  N3A      -18.7200  -69.9030  -38.2410 N.2   1001  NAP1001    -0.0055
     22  C4A      -19.1850  -68.7840  -38.8170 C.2   1001  NAP1001     0.3518
     23  O3       -25.3230  -65.6370  -40.6350 O.3   1001  NAP1001    -0.2703
     24  PN       -26.4230  -65.1790  -41.7160 P.3   1001  NAP1001     0.2189
     25  O1N      -25.7760  -64.9360  -43.0240 O.2   1001  NAP1001    -0.5170
     26  O2N      -27.5640  -66.1210  -41.6630 O.3   1001  NAP1001    -0.4371
     27  O5D      -26.9140  -63.7680  -41.1150 O.3   1001  NAP1001    -0.3112
     28  C5D      -27.4110  -63.7050  -39.7750 C.3   1001  NAP1001     0.1813
     29  C4D      -27.7030  -62.2640  -39.3510 C.3   1001  NAP1001     0.1799
     30  O4D      -26.4990  -61.5020  -39.5640 O.3   1001  NAP1001    -0.3327
     31  C3D      -28.7900  -61.6160  -40.2120 C.3   1001  NAP1001     0.2158
     32  O3D      -29.5620  -60.6870  -39.4460 O.3   1001  NAP1001    -0.2175
     33  C2D      -27.9690  -60.8820  -41.2700 C.3   1001  NAP1001     0.2309
     34  O2D      -28.6870  -59.7660  -41.8020 O.3   1001  NAP1001    -0.2158
     35  C1D      -26.8350  -60.3690  -40.3830 C.3   1001  NAP1001     0.2263
     36  N1N      -25.6540  -59.8580  -41.1170 N.pl3 1001  NAP1001    -0.2787
     37  C2N      -24.9810  -58.7320  -40.6280 C.3   1001  NAP1001     0.1244
     38  C3N      -23.8260  -58.2830  -41.2610 C.2   1001  NAP1001     0.0544
     39  C7N      -23.0380  -57.1030  -40.6870 C.2   1001  NAP1001     0.2818
     40  O7N      -21.8940  -56.8630  -41.0690 O.2   1001  NAP1001    -0.2670
     41  N7N      -23.6640  -56.3970  -39.7490 N.am  1001  NAP1001    -0.0839
     42  C4N      -23.3560  -58.9570  -42.3850 C.2   1001  NAP1001     0.0033
     43  C5N      -24.0190  -60.0740  -42.8830 C.2   1001  NAP1001     0.0157
     44  C6N      -25.1710  -60.5300  -42.2510 C.2   1001  NAP1001     0.0633
     45  P2B      -22.6110  -72.8110  -39.6210 P.3   1001  NAP1001     0.5328
     46  O1X      -22.6870  -74.0370  -40.4470 O.2   1001  NAP1001    -0.2224
     47  O2X      -21.6060  -72.9730  -38.3750 O.3   1001  NAP1001    -0.1145
     48  O3X      -24.0380  -72.3820  -39.0120 O.3   1001  NAP1001    -0.1145
@<TRIPOS>BOND
     1    25    24    2
     2    43    42    1
     3    43    44    2
     4    42    38    2
     5    44    36    1
     6     2     1    2
     7    34    33    1
     8    24    26    1
     9    24    27    1
    10    24    23    1
    11     7     6    1
    12     7    12    1
    13     5     6    1
    14     5     4    1
    15     6     8    1
    16    33    35    1
    17    33    31    1
    18    38    39    1
    19    38    37    1
    20    36    37    1
    21    36    35    1
    22    27    28    1
    23    40    39    2
    24     4     1    1
    25     1    23    1
    26     1     3    1
    27    39    41   am
    28    12    13    1
    29    12    10    1
    30    11    10    1
    31    11    45    1
    32    46    45    2
    33    35    30    1
    34    31    32    1
    35    31    29    1
    36    14    13    1
    37    14    15    1
    38     8    10    1
    39     8     9    1
    40    13    22    1
    41    28    29    1
    42    45    48    1
    43    45    47    1
    44    30    29    1
    45    15    16    2
    46    22    16    1
    47    22    21    2
    48    16    17    1
    49    21    20    1
    50    17    18    1
    51    17    19    2
    52    20    19    1
