@<TRIPOS>MOLECULE
2qfw_ICT_A_1.pdb
 13 12 0 0 0
SMALL
GASTEIGER

@<TRIPOS>ATOM
      1  C1        71.7730  -46.4250   82.1140 C.2   2101  ICT2101     0.3952
      2  O1        70.5080  -46.6860   81.6020 O.co2 2101  ICT2101    -0.2428
      3  O2        72.1480  -46.9770   83.2330 O.co2 2101  ICT2101    -0.2428
      4  C2        72.7040  -45.5030   81.3760 C.3   2101  ICT2101     0.2651
      5  O7        73.9480  -45.3950   82.0430 O.3   2101  ICT2101    -0.2103
      6  C3        72.0560  -44.1320   81.1960 C.3   2101  ICT2101     0.1561
      7  C4        72.6930  -43.4330   79.9950 C.3   2101  ICT2101     0.1285
      8  C5        72.1750  -42.0260   79.8060 C.2   2101  ICT2101     0.3655
      9  O3        73.0830  -41.0100   79.5560 O.co2 2101  ICT2101    -0.2456
     10  O4        70.9020  -41.7660   79.8830 O.co2 2101  ICT2101    -0.2456
     11  C6        72.1050  -43.3120   82.4680 C.2   2101  ICT2101     0.3680
     12  O5        72.8760  -42.2660   82.5740 O.co2 2101  ICT2101    -0.2455
     13  O6        71.3610  -43.6500   83.4840 O.co2 2101  ICT2101    -0.2455
@<TRIPOS>BOND
     1     9     8   ar
     2     8    10   ar
     3     8     7    1
     4     7     6    1
     5     6     4    1
     6     6    11    1
     7     4     5    1
     8     4     1    1
     9     2     1   ar
    10     1     3   ar
    11    11    12   ar
    12    11    13   ar
