@<TRIPOS>MOLECULE
2qfx_NDP_A_1.pdb
 48 52 0 0 0
SMALL
GASTEIGER

@<TRIPOS>ATOM
      1  PA        52.9800  -29.0120  134.4480 P.3   1101  NDP1101     0.2189
      2  O1A       52.8420  -27.5530  134.6500 O.3   1101  NDP1101    -0.4371
      3  O2A       51.8380  -29.5970  133.4780 O.2   1101  NDP1101    -0.5170
      4  O5B       52.9110  -29.8260  135.8320 O.3   1101  NDP1101    -0.3112
      5  C5B       51.9120  -30.8060  136.1140 C.3   1101  NDP1101     0.1813
      6  C4B       52.3180  -31.4640  137.4320 C.3   1101  NDP1101     0.1820
      7  O4B       52.2460  -30.5150  138.5090 O.3   1101  NDP1101    -0.3136
      8  C3B       51.3770  -32.5900  137.8540 C.3   1101  NDP1101     0.2157
      9  O3B       52.0520  -33.4220  138.8010 O.3   1101  NDP1101    -0.2175
     10  C2B       50.2410  -31.8180  138.5250 C.3   1101  NDP1101     0.2314
     11  O2B       49.7800  -32.5280  139.6800 O.3   1101  NDP1101    -0.2630
     12  C1B       50.9020  -30.5280  139.0210 C.3   1101  NDP1101     0.3158
     13  N9A       50.1290  -29.3470  138.5670 N.pl3 1101  NDP1101    -0.1439
     14  C8A       50.5650  -28.3990  137.7380 C.3   1101  NDP1101     0.3377
     15  N7A       49.6060  -27.4990  137.5320 N.2   1101  NDP1101    -0.2095
     16  C5A       48.5400  -27.8730  138.2340 C.2   1101  NDP1101     0.2526
     17  C6A       47.2680  -27.3430  138.4160 C.2   1101  NDP1101     0.4393
     18  N6A       46.8940  -26.2390  137.7740 N.pl3 1101  NDP1101     0.2180
     19  N1A       46.4120  -27.9710  139.2340 N.2   1101  NDP1101     0.0021
     20  C2A       46.7700  -29.0790  139.8600 C.3   1101  NDP1101     0.5254
     21  N3A       47.9670  -29.6170  139.7030 N.2   1101  NDP1101    -0.0055
     22  C4A       48.8750  -29.0460  138.8990 C.2   1101  NDP1101     0.3518
     23  O3        54.4170  -29.3920  133.8230 O.3   1101  NDP1101    -0.2703
     24  PN        54.6660  -30.7020  132.9200 P.3   1101  NDP1101     0.2189
     25  O1N       53.4650  -31.7210  133.2450 O.3   1101  NDP1101    -0.4371
     26  O2N       55.9990  -31.3170  133.1100 O.2   1101  NDP1101    -0.5170
     27  O5D       54.4570  -30.1780  131.4140 O.3   1101  NDP1101    -0.3112
     28  C5D       53.2770  -30.5030  130.6770 C.3   1101  NDP1101     0.1813
     29  C4D       53.2740  -29.7430  129.3500 C.3   1101  NDP1101     0.1799
     30  O4D       53.1900  -28.3490  129.7000 O.3   1101  NDP1101    -0.3327
     31  C3D       54.6120  -29.9380  128.6310 C.3   1101  NDP1101     0.2158
     32  O3D       54.4520  -29.9570  127.2110 O.3   1101  NDP1101    -0.2175
     33  C2D       55.3980  -28.7010  129.0580 C.3   1101  NDP1101     0.2309
     34  O2D       56.3600  -28.3440  128.0620 O.3   1101  NDP1101    -0.2158
     35  C1D       54.2730  -27.6670  129.0490 C.3   1101  NDP1101     0.2263
     36  N1N       54.6080  -26.4280  129.7830 N.pl3 1101  NDP1101    -0.2787
     37  C2N       54.0990  -25.2010  129.3510 C.3   1101  NDP1101     0.1244
     38  C3N       54.4060  -24.0380  130.0460 C.2   1101  NDP1101     0.0544
     39  C7N       53.8360  -22.7100  129.5500 C.2   1101  NDP1101     0.2818
     40  O7N       53.0130  -22.6780  128.6360 O.2   1101  NDP1101    -0.2670
     41  N7N       54.2890  -21.6310  130.1800 N.am  1101  NDP1101    -0.0839
     42  C4N       55.2900  -24.0590  131.2960 C.2   1101  NDP1101     0.0033
     43  C5N       55.7440  -25.3300  131.6360 C.2   1101  NDP1101     0.0157
     44  C6N       55.4230  -26.4760  130.9200 C.2   1101  NDP1101     0.0633
     45  P2B       50.0140  -34.1100  139.9030 P.3   1101  NDP1101     0.5328
     46  O1X       51.1600  -34.4080  140.7930 O.3   1101  NDP1101    -0.1145
     47  O2X       48.6190  -34.6610  140.4910 O.3   1101  NDP1101    -0.1145
     48  O3X       50.1960  -34.7720  138.4440 O.2   1101  NDP1101    -0.2224
@<TRIPOS>BOND
     1    32    31    1
     2    34    33    1
     3    31    33    1
     4    31    29    1
     5    40    39    2
     6    35    33    1
     7    35    30    1
     8    35    36    1
     9    29    30    1
    10    29    28    1
    11    37    36    1
    12    37    38    1
    13    39    38    1
    14    39    41   am
    15    36    44    1
    16    38    42    2
    17    28    27    1
    18    44    43    2
    19    42    43    1
    20    27    24    1
    21    24    26    2
    22    24    25    1
    23    24    23    1
    24     3     1    2
    25    23     1    1
    26     1     2    1
    27     1     4    1
    28     4     5    1
    29     5     6    1
    30     6     8    1
    31     6     7    1
    32    15    14    1
    33    15    16    2
    34    14    13    1
    35    18    17    1
    36     8    10    1
    37     8     9    1
    38    16    17    1
    39    16    22    1
    40    17    19    2
    41    48    45    2
    42     7    12    1
    43    10    12    1
    44    10    11    1
    45    13    22    1
    46    13    12    1
    47    22    21    2
    48    19    20    1
    49    11    45    1
    50    21    20    1
    51    45    47    1
    52    45    46    1
