@<TRIPOS>MOLECULE
2qfx_AKG_A_1.pdb
 10 9 0 0 0
SMALL
GASTEIGER

@<TRIPOS>ATOM
      1  C1        57.4850  -21.3460  132.3100 C.2   1102  AKG1102     0.4219
      2  O1        57.2410  -20.5260  131.3990 O.co2 1102  AKG1102    -0.2373
      3  O2        57.2350  -21.1390  133.5170 O.co2 1102  AKG1102    -0.2373
      4  C2        58.1430  -22.6760  131.9350 C.2   1102  AKG1102     0.2526
      5  O5        58.2600  -23.5530  132.7900 O.2   1102  AKG1102    -0.2843
      6  C3        58.6350  -22.9200  130.5060 C.3   1102  AKG1102     0.0881
      7  C4        57.6390  -23.7950  129.7430 C.3   1102  AKG1102     0.1224
      8  C5        58.1010  -24.0900  128.3150 C.2   1102  AKG1102     0.3653
      9  O3        58.3270  -23.1060  127.5780 O.co2 1102  AKG1102    -0.2456
     10  O4        58.2040  -25.2940  127.9940 O.co2 1102  AKG1102    -0.2456
@<TRIPOS>BOND
     1     9     8   ar
     2    10     8   ar
     3     8     7    1
     4     7     6    1
     5     6     4    1
     6     2     1   ar
     7     4     1    1
     8     4     5    2
     9     1     3   ar
