@<TRIPOS>MOLECULE
2qfy_AKG_A_1.pdb
 10 9 0 0 0
SMALL
GASTEIGER

@<TRIPOS>ATOM
      1  C1        52.0130  -49.9900  104.9170 C.2   2001  AKG2001     0.4219
      2  O1        52.6240  -49.9330  106.0060 O.co2 2001  AKG2001    -0.2373
      3  O2        52.4290  -50.5970  103.9070 O.co2 2001  AKG2001    -0.2373
      4  C2        50.6680  -49.2700  104.8090 C.2   2001  AKG2001     0.2526
      5  O5        50.0350  -49.3310  103.7560 O.2   2001  AKG2001    -0.2843
      6  C3        50.1240  -48.4920  106.0100 C.3   2001  AKG2001     0.0881
      7  C4        49.1230  -49.3380  106.8000 C.3   2001  AKG2001     0.1224
      8  C5        48.6300  -48.5940  108.0420 C.2   2001  AKG2001     0.3653
      9  O3        49.4920  -48.0010  108.7260 O.co2 2001  AKG2001    -0.2456
     10  O4        47.4050  -48.6440  108.2870 O.co2 2001  AKG2001    -0.2456
@<TRIPOS>BOND
     1     5     4    2
     2     3     1   ar
     3     4     1    1
     4     4     6    1
     5     1     2   ar
     6     6     7    1
     7     7     8    1
     8     8    10   ar
     9     8     9   ar
