@<TRIPOS>MOLECULE
2qg0_A94_A_1.pdb
 27 29 0 0 0
SMALL
GASTEIGER

@<TRIPOS>ATOM
      1  C1        18.8160   26.6520   15.4480 C.2   2001  A942001     0.1075
      2  N2        17.5640   26.9740   15.8660 N.2   2001  A942001    -0.3343
      3  C3        17.2520   26.6100   17.1260 C.1   2001  A942001     0.2403
      4  N4        18.0640   25.9690   17.9700 N.2   2001  A942001    -0.3328
      5  C5        19.3150   25.6510   17.5380 C.2   2001  A942001     0.1265
      6  C6        19.7440   25.9880   16.2410 C.3   2001  A942001     0.1122
      7  C7        19.1590   27.0040   14.1830 C.3   2001  A942001     0.0630
      8  N8        16.0300   26.9110   17.5770 N.pl3 2001  A942001    -0.0233
      9  C9        20.2210   24.9170   18.5060 C.3   2001  A942001     0.1708
     10  N10       21.1560   23.9730   17.8570 N.3   2001  A942001    -0.0704
     11  S11       20.6880   22.3130   17.5740 S.O2  2001  A942001     0.0773
     12  O12       19.9920   21.8740   18.7510 O.2   2001  A942001    -0.1516
     13  O13       21.9350   21.7020   17.2350 O.2   2001  A942001    -0.1516
     14  C14       20.5300   25.7330    8.7650 C.2   2001  A942001     0.1833
     15  C15       20.7050   24.8060    9.9410 C.2   2001  A942001     0.0486
     16  C16       19.3820   24.4720   10.4760 C.2   2001  A942001     0.0956
     17  C17       18.4280   25.0010    9.4880 C.2   2001  A942001     0.3472
     18  O18       19.0930   25.7050    8.5470 O.3   2001  A942001    -0.4179
     19  O19       17.2440   24.8260    9.5160 O.2   2001  A942001    -0.2444
     20  C20       18.9670   23.8430   11.5660 C.2   2001  A942001     0.0922
     21  N21       19.8210   23.2670   12.6190 N.pl3 2001  A942001    -0.2109
     22  C22       19.3000   22.8470   13.8220 C.ar  2001  A942001     0.0719
     23  C23       17.8930   22.4780   13.9610 C.ar  2001  A942001     0.0166
     24  C24       17.3740   22.0490   15.2340 C.ar  2001  A942001     0.0027
     25  C25       18.2550   21.9910   16.3720 C.ar  2001  A942001     0.0200
     26  C26       19.6390   22.3560   16.2270 C.ar  2001  A942001     0.1249
     27  C27       20.1510   22.7780   14.9650 C.ar  2001  A942001     0.0364
@<TRIPOS>BOND
     1    18    14    1
     2    18    17    1
     3    14    15    2
     4    17    19    2
     5    17    16    1
     6    15    16    1
     7    16    20    2
     8    20    21    1
     9    21    22    1
    10    22    23   ar
    11    22    27   ar
    12    23    24   ar
    13     7     1    1
    14    27    26   ar
    15    24    25   ar
    16     1     2    2
    17     1     6    1
    18     2     3    2
    19    26    25   ar
    20    26    11    1
    21     6     5    1
    22     3     8    1
    23     3     4    2
    24    13    11    2
    25     5     4    2
    26     5     9    1
    27    11    10    1
    28    11    12    2
    29    10     9    1
