@<TRIPOS>MOLECULE
2qg2_A91_A_1.pdb
 24 26 0 0 0
SMALL
GASTEIGER

@<TRIPOS>ATOM
      1  C1         4.7270   29.3880   23.2380 C.ar  300  A91300      0.2055
      2  C2         4.6090   30.5130   24.2690 C.ar  300  A91300      0.1475
      3  N3         5.8680   31.2160   24.0760 N.ar  300  A91300     -0.1586
      4  C4         6.6810   30.6150   23.1650 C.ar  300  A91300      0.4421
      5  O5         6.0120   29.6240   22.5660 O.2   300  A91300     -0.4023
      6  O6         7.8220   30.9050   22.9030 O.2   300  A91300     -0.2207
      7  N7         6.3140   32.3780   24.6500 N.2   300  A91300     -0.1584
      8  C8         5.4300   33.2050   25.1140 C.2   300  A91300      0.1213
      9  C9         5.7870   34.4950   25.7130 C.ar  300  A91300      0.0286
     10  C10        4.8140   35.5850   25.8450 C.ar  300  A91300      0.0436
     11  C11        5.1940   36.8430   26.4270 C.ar  300  A91300      0.0083
     12  C12        6.5390   37.0310   26.8820 C.ar  300  A91300      0.0006
     13  C13        7.5090   35.9690   26.7620 C.ar  300  A91300      0.0001
     14  C14        7.1350   34.7080   26.1800 C.ar  300  A91300      0.0022
     15  C15        3.4500   35.4450   25.4020 C.1   300  A91300     -0.0575
     16  C16        2.3500   35.3160   25.0040 C.1   300  A91300     -0.0309
     17  C17        1.0430   35.2300   24.4770 C.2   300  A91300      0.1708
     18  C18        0.8770   35.7920   23.2010 C.3   300  A91300      0.1240
     19  C19       -0.4260   35.7140   22.6760 C.2   300  A91300      0.1085
     20  N20       -1.4840   35.1360   23.3400 N.2   300  A91300     -0.3342
     21  C21       -1.2080   34.6200   24.5790 C.1   300  A91300      0.2411
     22  N22        0.0120   34.6390   25.1790 N.2   300  A91300     -0.3214
     23  C23       -0.6980   36.2870   21.3230 C.3   300  A91300      0.0630
     24  N24       -2.1930   34.0640   25.2440 N.pl3 300  A91300     -0.0232
@<TRIPOS>BOND
     1    23    19    1
     2     5     4   ar
     3     5     1   ar
     4    19    18    1
     5    19    20    2
     6     6     4    2
     7     4     3   ar
     8    18    17    1
     9     1     2   ar
    10    20    21    2
    11     3     2   ar
    12     3     7    1
    13    17    16    1
    14    17    22    2
    15    21    22    2
    16    21    24    1
    17     7     8    2
    18    16    15    3
    19     8     9    1
    20    15    10    1
    21     9    10   ar
    22     9    14   ar
    23    10    11   ar
    24    14    13   ar
    25    11    12   ar
    26    13    12   ar
