@<TRIPOS>MOLECULE
2qg4_UGA_A_1.pdb
 37 39 0 0 0
SMALL
GASTEIGER

@<TRIPOS>ATOM
      1  C1'       23.3130   24.2960   48.2560 C.3   501  UGA501      0.2746
      2  C2'       23.8430   25.1590   47.1050 C.3   501  UGA501      0.2409
      3  O2'       25.1820   24.7540   46.7830 O.3   501  UGA501     -0.2149
      4  C3'       23.7850   26.6590   47.4630 C.3   501  UGA501      0.2203
      5  O3'       24.1050   27.4610   46.3370 O.3   501  UGA501     -0.2174
      6  C4'       22.3780   27.0440   47.9200 C.3   501  UGA501      0.2229
      7  O4'       22.3280   28.4290   48.3080 O.3   501  UGA501     -0.2171
      8  C5'       21.9820   26.1450   49.0850 C.3   501  UGA501      0.2529
      9  O5'       22.0210   24.7620   48.6740 O.3   501  UGA501     -0.3167
     10  C6'       20.6050   26.5600   49.5120 C.2   501  UGA501      0.3941
     11  O'P       19.6410   26.2800   48.7690 O.co2 501  UGA501     -0.2429
     12  O'Q       20.4800   27.1790   50.5970 O.co2 501  UGA501     -0.2429
     13  PB        24.6570   22.9900   50.1940 P.3   501  UGA501      0.2208
     14  O1B       23.6130   21.9400   50.1260 O.2   501  UGA501     -0.5170
     15  O2B       24.9720   23.4810   51.6840 O.3   501  UGA501     -0.4371
     16  O3B       24.2770   24.3160   49.3490 O.3   501  UGA501     -0.2857
     17  O3A       26.1680   22.4770   49.7640 O.3   501  UGA501     -0.2703
     18  PA        26.6540   21.8040   48.3630 P.3   501  UGA501      0.2189
     19  O1A       28.0740   22.1500   48.0620 O.3   501  UGA501     -0.4371
     20  O2A       25.6980   22.2210   47.1390 O.2   501  UGA501     -0.5170
     21  O5D       26.5060   20.2080   48.5520 O.3   501  UGA501     -0.3112
     22  C5D       25.2600   19.5260   48.5620 C.3   501  UGA501      0.1813
     23  C4D       25.4960   18.0180   48.2940 C.3   501  UGA501      0.1799
     24  O4D       26.0530   17.8370   46.9640 O.3   501  UGA501     -0.3320
     25  C3D       26.5300   17.4480   49.2800 C.3   501  UGA501      0.2158
     26  O3D       26.0760   16.1590   49.6680 O.3   501  UGA501     -0.2175
     27  C2D       27.7950   17.3420   48.4310 C.3   501  UGA501      0.2319
     28  O2D       28.6780   16.3500   48.9550 O.3   501  UGA501     -0.2157
     29  C1D       27.1860   16.9230   47.1040 C.3   501  UGA501      0.2401
     30  N1        28.0160   17.1020   45.8980 N.am  501  UGA501     -0.1766
     31  C6        28.3930   18.3970   45.4790 C.2   501  UGA501      0.0929
     32  C2        28.4300   15.9740   45.1610 C.1   501  UGA501      0.2845
     33  O2        28.1130   14.8310   45.5120 O.2   501  UGA501     -0.1918
     34  N3        29.2120   16.1800   44.0080 N.2   501  UGA501     -0.2452
     35  C4        29.5840   17.4720   43.5970 C.1   501  UGA501      0.2182
     36  O4        30.2780   17.6180   42.5960 O.2   501  UGA501     -0.2085
     37  C5        29.1800   18.5800   44.3430 C.2   501  UGA501      0.1242
@<TRIPOS>BOND
     1    36    35    2
     2    35    34    2
     3    35    37    1
     4    34    32    2
     5    37    31    2
     6    32    33    2
     7    32    30   am
     8    31    30    1
     9    30    29    1
    10     5     4    1
    11     3     2    1
    12    24    29    1
    13    24    23    1
    14    29    27    1
    15     2     4    1
    16     2     1    1
    17    20    18    2
    18     4     6    1
    19     6     7    1
    20     6     8    1
    21    19    18    1
    22     1     9    1
    23     1    16    1
    24    23    22    1
    25    23    25    1
    26    18    21    1
    27    18    17    1
    28    27    28    1
    29    27    25    1
    30    21    22    1
    31     9     8    1
    32    11    10   ar
    33     8    10    1
    34    25    26    1
    35    16    13    1
    36    10    12   ar
    37    17    13    1
    38    14    13    2
    39    13    15    1
