@<TRIPOS>MOLECULE
2qg4_NAD_A_1.pdb
 27 29 0 0 0
SMALL
GASTEIGER

@<TRIPOS>ATOM
      1  PA        15.6540   29.0510   60.2930 P.3   500  NAD500      0.2231
      2  O1A       14.7910   27.9730   60.7940 O.3   500  NAD500     -0.4370
      3  O2A       17.0990   28.8950   60.5430 O.2   500  NAD500     -0.5169
      4  O5B       15.1930   30.4260   60.9740 O.3   500  NAD500     -0.3111
      5  C5B       13.8990   30.9070   60.7360 C.3   500  NAD500      0.1813
      6  C4B       13.5190   31.7220   61.9490 C.3   500  NAD500      0.1821
      7  O4B       12.2860   32.3450   61.6800 O.3   500  NAD500     -0.3135
      8  C3B       13.3630   30.8940   63.2320 C.3   500  NAD500      0.2184
      9  O3B       14.2930   31.3160   64.2090 O.3   500  NAD500     -0.2174
     10  C2B       11.9510   31.1820   63.7020 C.3   500  NAD500      0.2570
     11  O2B       11.8930   31.3220   65.1080 O.3   500  NAD500     -0.2130
     12  C1B       11.6210   32.4550   62.9260 C.3   500  NAD500      0.3186
     13  N9A       10.2030   32.7130   62.6640 N.pl3 500  NAD500     -0.1439
     14  C8A        9.2980   31.9050   62.0230 C.3   500  NAD500      0.3377
     15  N7A        8.1170   32.5670   61.9960 N.2   500  NAD500     -0.2095
     16  C5A        8.2650   33.7730   62.5960 C.2   500  NAD500      0.2526
     17  C6A        7.3950   34.8310   62.8320 C.2   500  NAD500      0.4393
     18  N6A        6.1240   34.7630   62.4400 N.pl3 500  NAD500      0.2180
     19  N1A        7.8630   35.9540   63.4920 N.2   500  NAD500      0.0021
     20  C2A        9.1810   36.0340   63.9060 C.3   500  NAD500      0.5254
     21  N3A       10.0430   34.9820   63.6660 N.2   500  NAD500     -0.0055
     22  C4A        9.5840   33.8800   63.0180 C.2   500  NAD500      0.3518
     23  O3        15.2890   29.2260   58.7360 O.3   500  NAD500     -0.2261
     24  PN        16.3410   29.6010   57.5660 P.3   500  NAD500      0.5373
     25  O1N       16.9520   28.3140   57.1380 O.3   500  NAD500     -0.1143
     26  O2N       17.1910   30.7580   57.9450 O.3   500  NAD500     -0.1143
     27  O5D       15.3080   30.1300   56.4280 O.2   500  NAD500     -0.2221
@<TRIPOS>BOND
     1    27    24    2
     2    25    24    1
     3    24    26    1
     4    24    23    1
     5    23     1    1
     6     1     3    2
     7     1     2    1
     8     1     4    1
     9     5     4    1
    10     5     6    1
    11     7     6    1
    12     7    12    1
    13     6     8    1
    14    15    14    1
    15    15    16    2
    16    14    13    1
    17    18    17    1
    18    16    17    1
    19    16    22    1
    20    13    12    1
    21    13    22    1
    22    17    19    2
    23    12    10    1
    24    22    21    2
    25     8    10    1
    26     8     9    1
    27    19    20    1
    28    21    20    1
    29    10    11    1
