@<TRIPOS>MOLECULE
2qg6_NMN_A_1.pdb
 22 23 0 0 0
SMALL
GASTEIGER

@<TRIPOS>ATOM
      1  O3P       10.1130   53.2980   27.5990 O.2   301  NMN301     -0.2224
      2  P          9.7470   52.0230   28.5230 P.3   301  NMN301      0.5327
      3  O1P       10.9800   51.2210   28.8280 O.3   301  NMN301     -0.1145
      4  O2P        8.7410   51.1620   27.8450 O.3   301  NMN301     -0.1145
      5  O5R        9.0710   52.5050   29.9050 O.3   301  NMN301     -0.2675
      6  C5R        9.9090   53.2830   30.7470 C.3   301  NMN301      0.1859
      7  C4R        9.6230   54.6910   30.5840 C.3   301  NMN301      0.1801
      8  O4R        8.1380   55.0480   30.6740 O.3   301  NMN301     -0.3327
      9  C3R       10.3350   55.5020   31.6400 C.3   301  NMN301      0.2158
     10  O3R       11.5670   56.0480   31.1170 O.3   301  NMN301     -0.2175
     11  C2R        9.3210   56.5790   32.0870 C.3   301  NMN301      0.2309
     12  O2R        9.9090   57.8990   32.0370 O.3   301  NMN301     -0.2158
     13  C1R        8.1220   56.3770   31.1480 C.3   301  NMN301      0.2263
     14  N1         6.7460   56.7920   31.7650 N.pl3 301  NMN301     -0.2787
     15  C2         5.8780   55.6730   31.9510 C.3   301  NMN301      0.1244
     16  C3         4.5960   55.8800   32.4940 C.2   301  NMN301      0.0544
     17  C7         3.4770   54.8150   32.7850 C.2   301  NMN301      0.2818
     18  O7         2.3780   54.9840   33.2510 O.2   301  NMN301     -0.2670
     19  N7         3.9210   53.6010   32.4270 N.am  301  NMN301     -0.0839
     20  C4         4.1040   57.2540   32.8910 C.2   301  NMN301      0.0033
     21  C5         5.0630   58.3340   32.6630 C.2   301  NMN301      0.0157
     22  C6         6.3890   58.1850   32.1100 C.2   301  NMN301      0.0633
@<TRIPOS>BOND
     1     1     2    2
     2     4     2    1
     3     2     3    1
     4     2     5    1
     5     5     6    1
     6     7     8    1
     7     7     6    1
     8     7     9    1
     9     8    13    1
    10    10     9    1
    11    13    14    1
    12    13    11    1
    13     9    11    1
    14    14    15    1
    15    14    22    1
    16    15    16    1
    17    12    11    1
    18    22    21    2
    19    19    17   am
    20    16    17    1
    21    16    20    2
    22    21    20    1
    23    17    18    2
