@<TRIPOS>MOLECULE
2qga_AMP_B_1.pdb
 23 25 0 0 0
SMALL
GASTEIGER

@<TRIPOS>ATOM
      1  P         18.0830   22.7760    2.3800 P.3   908  AMP908      0.5327
      2  O1P       17.5900   23.5490    3.5920 O.3   908  AMP908     -0.1145
      3  O2P       16.9600   22.1290    1.5750 O.3   908  AMP908     -0.1145
      4  O3P       19.1490   23.4760    1.5500 O.2   908  AMP908     -0.2224
      5  O5'       18.9110   21.5460    3.0250 O.3   908  AMP908     -0.2675
      6  C5'       18.2770   20.5180    3.7810 C.3   908  AMP908      0.1860
      7  C4'       19.3730   19.7890    4.5340 C.3   908  AMP908      0.1823
      8  O4'       18.7680   19.0180    5.5520 O.3   908  AMP908     -0.3135
      9  C3'       20.1420   18.8080    3.6540 C.3   908  AMP908      0.2184
     10  O3'       21.5360   18.8720    4.0470 O.3   908  AMP908     -0.2174
     11  C2'       19.4910   17.4660    3.9570 C.3   908  AMP908      0.2570
     12  O2'       20.3060   16.2990    3.7890 O.3   908  AMP908     -0.2130
     13  C1'       19.2010   17.6580    5.4340 C.3   908  AMP908      0.3186
     14  N9        18.1880   16.7200    5.9450 N.pl3 908  AMP908     -0.1439
     15  C8        17.7770   15.6200    5.2830 C.3   908  AMP908      0.3377
     16  N7        16.8320   14.9640    5.9930 N.2   908  AMP908     -0.2095
     17  C5        16.6380   15.6720    7.1210 C.2   908  AMP908      0.2526
     18  C6        15.7870   15.5120    8.2940 C.2   908  AMP908      0.4393
     19  N6        14.9520   14.4520    8.3330 N.pl3 908  AMP908      0.2180
     20  N1        15.8640   16.4700    9.2640 N.2   908  AMP908      0.0021
     21  C2        16.6840   17.5550    9.1690 C.3   908  AMP908      0.5254
     22  N3        17.5010   17.7340    8.1380 N.2   908  AMP908     -0.0055
     23  C4        17.5240   16.8360    7.1010 C.2   908  AMP908      0.3518
@<TRIPOS>BOND
     1     4     1    2
     2     3     1    1
     3     1     5    1
     4     1     2    1
     5     5     6    1
     6     9    11    1
     7     9    10    1
     8     9     7    1
     9     6     7    1
    10    12    11    1
    11    11    13    1
    12     7     8    1
    13    15    14    1
    14    15    16    1
    15    13     8    1
    16    13    14    1
    17    14    23    1
    18    16    17    2
    19    23    17    1
    20    23    22    2
    21    17    18    1
    22    22    21    1
    23    18    19    1
    24    18    20    2
    25    21    20    1
