@<TRIPOS>MOLECULE
2qgc_MR4_A_1.pdb
 18 20 0 0 0
SMALL
GASTEIGER

@<TRIPOS>ATOM
      1  CAA        0.6790   -2.4440  -10.6060 C.3   128  MR4128      0.0344
      2  CAL        0.4080   -1.1980   -9.7460 C.ar  128  MR4128      0.0169
      3  CAH        0.4670   -1.2680   -8.3740 C.ar  128  MR4128      0.0047
      4  CAO        0.0650    0.0260  -10.3310 C.ar  128  MR4128      0.1877
      5  OAC        0.0020    0.0500  -11.7090 O.3   128  MR4128     -0.2872
      6  CAM       -0.2080    1.1840   -9.5890 C.ar  128  MR4128      0.0169
      7  CAB       -0.5510    2.5250  -10.2640 C.3   128  MR4128      0.0344
      8  CAI       -0.1210    1.0890   -8.2120 C.ar  128  MR4128      0.0047
      9  CAN        0.2010   -0.1380   -7.5970 C.ar  128  MR4128      0.0660
     10  CAP        0.3030   -0.2340   -6.2230 C.2   128  MR4128      0.2818
     11  OAK        1.0160   -1.2290   -5.6240 O.2   128  MR4128     -0.4251
     12  CAR        0.9370   -0.9800   -4.3090 C.2   128  MR4128      0.1737
     13  CAG        1.4700   -1.6800   -3.2480 C.2   128  MR4128      0.0396
     14  CAE        1.2400   -1.2290   -1.9590 C.2   128  MR4128     -0.0009
     15  CAD        0.4590   -0.1060   -1.7530 C.2   128  MR4128     -0.0185
     16  CAF       -0.0860    0.5900   -2.8350 C.3   128  MR4128      0.0883
     17  CAQ        0.1590    0.1530   -4.1290 C.2   128  MR4128      0.1511
     18  NAJ       -0.2060    0.6020   -5.3380 N.2   128  MR4128     -0.3684
@<TRIPOS>BOND
     1     5     4    1
     2     1     2    1
     3     4     2   ar
     4     4     6   ar
     5     7     6    1
     6     2     3   ar
     7     6     8   ar
     8     3     9   ar
     9     8     9   ar
    10     9    10    1
    11    10    11    1
    12    10    18    2
    13    11    12    1
    14    18    17    2
    15    12    17    1
    16    12    13    2
    17    17    16    1
    18    13    14    1
    19    16    15    1
    20    14    15    2
