@<TRIPOS>MOLECULE
2qgd_MR5_A_1.pdb
 18 20 0 0 0
SMALL
GASTEIGER

@<TRIPOS>ATOM
      1  CAH        0.7950   -0.8420   -4.8750 C.ar  200  MR5200      0.0157
      2  CAL        0.7170   -0.7570   -3.4960 C.ar  200  MR5200      0.0741
      3 BR1         1.8520   -1.8650   -2.4600 Br    200  MR5200     -0.0457
      4  CAO       -0.1530    0.1410   -2.9420 C.ar  200  MR5200      0.2079
      5  OAA       -0.3110    0.2720   -1.6220 O.3   200  MR5200     -0.2855
      6  CAM       -0.9710    0.9460   -3.7550 C.ar  200  MR5200      0.0741
      7 BR2        -2.2580    2.2150   -3.0870 Br    200  MR5200     -0.0457
      8  CAI       -0.8760    0.8410   -5.1310 C.ar  200  MR5200      0.0157
      9  CAN        0.0200   -0.0370   -5.7010 C.ar  200  MR5200      0.0676
     10  CAP        0.0750   -0.1600   -7.0790 C.2   200  MR5200      0.2818
     11  OAK        0.5290   -1.3100   -7.6320 O.2   200  MR5200     -0.4251
     12  CAR        0.4230   -1.2260   -8.9810 C.2   200  MR5200      0.1737
     13  CAG        0.7490   -2.1010  -10.0070 C.2   200  MR5200      0.0396
     14  CAE        0.5760   -1.7180  -11.3220 C.2   200  MR5200     -0.0009
     15  CAD        0.0260   -0.4720  -11.5810 C.2   200  MR5200     -0.0185
     16  CAF       -0.3060    0.4120  -10.5660 C.3   200  MR5200      0.0883
     17  CAQ       -0.1090    0.0400   -9.2310 C.2   200  MR5200      0.1511
     18  NAJ       -0.3390    0.6520   -8.0490 N.2   200  MR5200     -0.3684
@<TRIPOS>BOND
     1    15    14    2
     2    15    16    1
     3    14    13    1
     4    16    17    1
     5    13    12    2
     6    17    12    1
     7    17    18    2
     8    12    11    1
     9    18    10    2
    10    11    10    1
    11    10     9    1
    12     9     8   ar
    13     9     1   ar
    14     8     6   ar
    15     1     2   ar
    16     6     7    1
    17     6     4   ar
    18     2     4   ar
    19     2     3    1
    20     4     5    1
