@<TRIPOS>MOLECULE
2qge_MR6_A_1.pdb
 17 19 0 0 0
SMALL
GASTEIGER

@<TRIPOS>ATOM
      1  CAA        0.8310   -2.1810  -10.7490 C.3   201  MR6201      0.0310
      2  CAL        0.5350   -0.8170  -10.0090 C.ar  201  MR6201     -0.0220
      3  CAH        0.7860   -0.7690   -8.6310 C.ar  201  MR6201      0.0015
      4  CAG        0.0350    0.3570  -10.6640 C.ar  201  MR6201     -0.0085
      5  CAM       -0.1940    1.5500   -9.9120 C.ar  201  MR6201     -0.0220
      6  CAB       -0.7560    2.8560  -10.5760 C.3   201  MR6201      0.0310
      7  CAI        0.0770    1.5500   -8.5370 C.ar  201  MR6201      0.0015
      8  CAN        0.5610    0.3980   -7.8960 C.ar  201  MR6201      0.0658
      9  CAO        0.8100    0.3640   -6.5120 C.2   201  MR6201      0.2817
     10  OAK        0.8330   -0.8260   -5.8210 O.2   201  MR6201     -0.4251
     11  CAQ        1.0830   -0.5200   -4.5090 C.2   201  MR6201      0.1737
     12  CAF        1.2330   -1.3020   -3.3660 C.2   201  MR6201      0.0396
     13  CAD        1.4970   -0.7010   -2.1380 C.2   201  MR6201     -0.0009
     14  CAC        1.6180    0.6870   -2.0510 C.2   201  MR6201     -0.0185
     15  CAE        1.4730    1.4730   -3.2020 C.3   201  MR6201      0.0883
     16  CAP        1.2040    0.8730   -4.4330 C.2   201  MR6201      0.1511
     17  NAJ        1.0270    1.3780   -5.6600 N.2   201  MR6201     -0.3684
@<TRIPOS>BOND
     1     1     2    1
     2     4     2   ar
     3     4     5   ar
     4     6     5    1
     5     2     3   ar
     6     5     7   ar
     7     3     8   ar
     8     7     8   ar
     9     8     9    1
    10     9    10    1
    11     9    17    2
    12    10    11    1
    13    17    16    2
    14    11    16    1
    15    11    12    2
    16    16    15    1
    17    12    13    1
    18    15    14    1
    19    13    14    2
