@<TRIPOS>MOLECULE
2qgh_PLP_A_1.pdb
 15 15 0 0 0
SMALL
GASTEIGER

@<TRIPOS>ATOM
      1  N1       -21.1130   15.7260    9.9870 N.ar  406  PLP406     -0.2452
      2  C2       -20.7220   14.4330    9.5810 C.ar  406  PLP406      0.0978
      3  C2A      -20.8030   14.0340    8.1600 C.3   406  PLP406      0.0555
      4  C3       -20.2680   13.5050   10.6010 C.ar  406  PLP406      0.2049
      5  O3       -19.8890   12.2200   10.2640 O.3   406  PLP406     -0.2857
      6  C4       -20.2110   13.8930   11.9390 C.ar  406  PLP406      0.0182
      7  C4A      -19.4820   12.9560   12.8370 C.3   406  PLP406      0.0342
      8  C5       -20.6150   15.1760   12.3350 C.ar  406  PLP406      0.0261
      9  C6       -21.0490   16.1230   11.3300 C.ar  406  PLP406      0.0965
     10  C5A      -20.8370   15.6320   13.7130 C.3   406  PLP406      0.1815
     11  O4P      -19.5970   15.9850   14.2820 O.3   406  PLP406     -0.2653
     12  P        -19.4930   16.4540   15.6650 P.3   406  PLP406      0.5329
     13  O1P      -20.4550   15.8690   16.7450 O.3   406  PLP406     -0.1145
     14  O2P      -19.7120   18.0250   15.5290 O.2   406  PLP406     -0.2224
     15  O3P      -18.0270   16.0960   16.1220 O.3   406  PLP406     -0.1145
@<TRIPOS>BOND
     1     3     2    1
     2     2     1   ar
     3     2     4   ar
     4     1     9   ar
     5     5     4    1
     6     4     6   ar
     7     9     8   ar
     8     6     8   ar
     9     6     7    1
    10     8    10    1
    11    10    11    1
    12    11    12    1
    13    14    12    2
    14    12    15    1
    15    12    13    1
