@<TRIPOS>MOLECULE
2qgh_LYS_A_1.pdb
 10 9 0 0 0
SMALL
GASTEIGER

@<TRIPOS>ATOM
      1  N        -19.7630    8.5070   18.5550 N.3   407  LYS407     -0.1208
      2  CA       -18.4790    9.2730   18.6160 C.3   407  LYS407      0.1943
      3  C        -18.2140    9.7560   20.0420 C.2   407  LYS407      0.3819
      4  O        -18.9180    9.2680   20.9490 O.co2 407  LYS407     -0.2441
      5  CB       -18.5360   10.4670   17.6460 C.3   407  LYS407      0.0307
      6  CG       -18.6170   10.0490   16.1850 C.3   407  LYS407      0.0036
      7  CD       -19.0330   11.1870   15.2720 C.3   407  LYS407      0.0206
      8  CE       -19.0740   10.7030   13.8240 C.3   407  LYS407      0.1093
      9  NZ       -19.6380   11.6920   12.8440 N.3   407  LYS407     -0.1314
     10  OXT      -17.3170   10.6050   20.2400 O.co2 407  LYS407     -0.2441
@<TRIPOS>BOND
     1     9     8    1
     2     8     7    1
     3     7     6    1
     4     6     5    1
     5     5     2    1
     6     1     2    1
     7     2     3    1
     8     3    10   ar
     9     3     4   ar
