@<TRIPOS>MOLECULE
2qgi_UDP_B_1.pdb
 25 26 0 0 0
SMALL
GASTEIGER

@<TRIPOS>ATOM
      1  N1        88.4510  -19.4940  -16.3490 N.am  800  UDP800     -0.1766
      2  C2        89.0480  -20.1790  -15.2820 C.1   800  UDP800      0.2845
      3  N3        88.4620  -21.4030  -14.9020 N.2   800  UDP800     -0.2452
      4  C4        87.3040  -21.8770  -15.4970 C.1   800  UDP800      0.2182
      5  C5        86.7240  -21.1870  -16.5430 C.2   800  UDP800      0.1242
      6  C6        87.3290  -20.0030  -16.9470 C.2   800  UDP800      0.0929
      7  O2        90.0940  -19.7740  -14.7120 O.2   800  UDP800     -0.1918
      8  O4        86.8020  -22.9370  -15.0930 O.2   800  UDP800     -0.2085
      9  C1'       88.9900  -18.1910  -16.7620 C.3   800  UDP800      0.2401
     10  C2'       89.7260  -18.1670  -18.1010 C.3   800  UDP800      0.2319
     11  O2'       91.1070  -18.2700  -17.9300 O.3   800  UDP800     -0.2157
     12  C3'       89.4150  -16.7880  -18.6850 C.3   800  UDP800      0.2158
     13  C4'       88.0670  -16.4920  -18.0340 C.3   800  UDP800      0.1799
     14  O4'       87.8590  -17.3090  -16.8650 O.3   800  UDP800     -0.3320
     15  O3'       90.3260  -15.8480  -18.1390 O.3   800  UDP800     -0.2175
     16  C5'       86.8840  -16.5920  -19.0130 C.3   800  UDP800      0.1813
     17  O5'       87.2200  -17.8300  -19.5670 O.3   800  UDP800     -0.3111
     18  PA        87.1150  -18.0020  -21.1470 P.3   800  UDP800      0.2231
     19  O1A       87.9200  -16.8730  -21.7270 O.2   800  UDP800     -0.5169
     20  O2A       87.6300  -19.3600  -21.5400 O.3   800  UDP800     -0.4370
     21  O3A       85.5250  -17.8930  -21.4200 O.3   800  UDP800     -0.2261
     22  PB        84.8970  -17.2080  -22.7780 P.3   800  UDP800      0.5373
     23  O1B       85.4380  -15.8400  -22.8700 O.3   800  UDP800     -0.1143
     24  O2B       83.4240  -16.9320  -22.3370 O.3   800  UDP800     -0.1143
     25  O3B       84.9670  -18.1160  -24.0440 O.2   800  UDP800     -0.2221
@<TRIPOS>BOND
     1    25    22    2
     2    23    22    1
     3    22    24    1
     4    22    21    1
     5    19    18    2
     6    20    18    1
     7    21    18    1
     8    18    17    1
     9    17    16    1
    10    16    13    1
    11    12    15    1
    12    12    10    1
    13    12    13    1
    14    10    11    1
    15    10     9    1
    16    13    14    1
    17     6     5    2
    18     6     1    1
    19    14     9    1
    20     9     1    1
    21     5     4    1
    22     1     2   am
    23     4     8    2
    24     4     3    2
    25     2     3    2
    26     2     7    2
