@<TRIPOS>MOLECULE
2qgt_EED_A_1.pdb
 23 26 0 0 0
SMALL
GASTEIGER

@<TRIPOS>ATOM
      1  C9        21.5010    4.8810    1.5050 C.3   701  EED701      0.0244
      2  C10       22.3520    4.5680    2.7300 C.ar  701  EED701     -0.0262
      3  C1        23.7070    4.2750    2.5810 C.ar  701  EED701     -0.0013
      4  C2        24.5160    4.0060    3.7080 C.ar  701  EED701      0.0417
      5  C3        23.9390    4.0840    4.9670 C.ar  701  EED701      0.1954
      6  O3        24.6180    3.8240    6.1350 O.3   701  EED701     -0.2866
      7  C4        22.5940    4.3830    5.0640 C.ar  701  EED701      0.0375
      8  C5        21.7790    4.6240    3.9880 C.ar  701  EED701     -0.0230
      9  C6        20.3000    4.9530    4.2970 C.3   701  EED701      0.0261
     10  C7        19.7280    5.7060    3.0940 C.3   701  EED701      0.0050
     11  C8        20.0080    4.9090    1.8210 C.3   701  EED701      0.0045
     12  C14       19.3220    5.4740    0.5670 C.3   701  EED701      0.0028
     13  C15       17.8270    5.7530    0.6220 C.3   701  EED701      0.0027
     14  C16       17.4150    5.7430   -0.8720 C.3   701  EED701      0.0329
     15  C17       18.6550    5.2450   -1.6500 C.3   701  EED701      0.1519
     16  O17       18.2540    4.4490   -2.7770 O.3   701  EED701     -0.2232
     17  C13       19.4260    4.4590   -0.5840 C.3   701  EED701      0.0283
     18  C18       18.7490    3.0970   -0.2970 C.3   701  EED701      0.0025
     19  C12       20.9260    4.3010   -0.9200 C.3   701  EED701      0.0053
     20  C11       21.8000    3.9740    0.3070 C.3   701  EED701      0.0338
     21  C19       21.7890    2.4800    0.6630 C.3   701  EED701      0.1425
     22  O20       22.1590    1.8380   -0.5450 O.3   701  EED701     -0.3511
     23  C21       21.9410    0.4300   -0.3930 C.3   701  EED701      0.1741
@<TRIPOS>BOND
     1    16    15    1
     2    15    14    1
     3    15    17    1
     4    19    17    1
     5    19    20    1
     6    14    13    1
     7    17    18    1
     8    17    12    1
     9    22    23    1
    10    22    21    1
    11    20    21    1
    12    20     1    1
    13    12    13    1
    14    12    11    1
    15     1    11    1
    16     1     2    1
    17    11    10    1
    18     3     2   ar
    19     3     4   ar
    20     2     8   ar
    21    10     9    1
    22     4     5   ar
    23     8     9    1
    24     8     7   ar
    25     5     7   ar
    26     5     6    1
