@<TRIPOS>MOLECULE
2qgu_PEF_A_1.pdb
 47 46 0 0 0
SMALL
GASTEIGER

@<TRIPOS>ATOM
      1  C2        27.1530   17.4620   63.8200 C.3   301  PEF301      0.2420
      2  C1        28.3600   16.6300   63.3890 C.3   301  PEF301      0.1964
      3  N         34.0630   15.6630   64.7320 N.3   301  PEF301     -0.1286
      4  C3        26.8440   18.4910   62.7520 C.3   301  PEF301      0.2543
      5  C4        31.6210   15.6330   64.9140 C.3   301  PEF301      0.1696
      6  C5        32.9120   14.8590   65.1660 C.3   301  PEF301      0.1417
      7  C10       25.7320   16.3970   65.3370 C.2   301  PEF301      0.3171
      8  C11       24.3920   15.7650   65.6900 C.3   301  PEF301      0.1096
      9  C12       23.2570   16.7410   65.3810 C.3   301  PEF301      0.0116
     10  C13       23.2870   17.8800   66.3950 C.3   301  PEF301      0.0006
     11  C14       22.0290   18.7250   66.3220 C.3   301  PEF301      0.0000
     12  C15       22.0730   19.8030   67.4020 C.3   301  PEF301      0.0000
     13  C16       20.7030   20.4550   67.5680 C.3   301  PEF301      0.0000
     14  C17       20.6530   21.3130   68.8280 C.3   301  PEF301      0.0000
     15  C18       20.2350   20.4780   70.0400 C.3   301  PEF301      0.0000
     16  C19       19.2440   21.2460   70.9100 C.3   301  PEF301      0.0000
     17  C20       19.9810   22.1390   71.9130 C.3   301  PEF301      0.0000
     18  C21       18.9930   22.9630   72.7350 C.3   301  PEF301      0.0000
     19  C22       18.3400   22.1060   73.8190 C.3   301  PEF301      0.0000
     20  C23       17.5410   22.9680   74.7950 C.3   301  PEF301      0.0000
     21  C24       16.0630   23.0120   74.4130 C.3   301  PEF301      0.0000
     22  C25       15.3840   24.2480   74.9980 C.3   301  PEF301      0.0000
     23  C30       25.2410   20.0500   62.1200 C.2   301  PEF301      0.3171
     24  C31       24.1530   20.9330   62.2040 C.3   301  PEF301      0.1096
     25  C32       23.6670   21.2130   63.4740 C.3   301  PEF301      0.0116
     26  C33       22.6830   22.3990   63.4300 C.3   301  PEF301      0.0006
     27  C34       21.2130   21.9580   63.5210 C.3   301  PEF301      0.0000
     28  C35       20.3220   23.0210   64.1930 C.3   301  PEF301      0.0000
     29  C36       19.1040   22.4750   64.6110 C.3   301  PEF301      0.0000
     30  C37       18.3410   23.3570   65.3830 C.3   301  PEF301      0.0000
     31  C38       17.1370   22.7590   65.7710 C.3   301  PEF301      0.0000
     32  C39       16.3270   23.6210   66.7490 C.3   301  PEF301      0.0000
     33  C40       15.1540   22.8390   67.3730 C.3   301  PEF301      0.0000
     34  C41       15.5840   22.0840   68.6450 C.3   301  PEF301      0.0000
     35  C42       14.3880   21.7570   69.5460 C.3   301  PEF301      0.0000
     36  C43       14.7270   20.6420   70.5450 C.3   301  PEF301      0.0000
     37  C44       13.5730   20.3920   71.5230 C.3   301  PEF301      0.0000
     38  C45       13.9110   19.2770   72.5160 C.3   301  PEF301      0.0000
     39  O4        26.5170   16.7110   66.2370 O.2   301  PEF301     -0.2501
     40  O5        25.6580   19.8090   60.9910 O.2   301  PEF301     -0.2501
     41  O2        26.0160   16.6030   64.0180 O.3   301  PEF301     -0.4457
     42  O3        25.8490   19.4490   63.1950 O.3   301  PEF301     -0.4444
     43  O1P       30.6820   16.7340   61.3460 O.2   301  PEF301     -0.5172
     44  O2P       31.9250   18.0100   63.1820 O.3   301  PEF301     -0.4373
     45  O3P       29.5450   17.4210   63.5130 O.3   301  PEF301     -0.3100
     46  O4P       31.3200   15.6240   63.5070 O.3   301  PEF301     -0.3125
     47  P         30.9160   17.0100   62.7850 P.3   301  PEF301      0.2141
@<TRIPOS>BOND
     1    40    23    2
     2    43    47    2
     3    23    24    1
     4    23    42    1
     5    24    25    1
     6     4    42    1
     7     4     1    1
     8    47    44    1
     9    47    46    1
    10    47    45    1
    11     2    45    1
    12     2     1    1
    13    26    25    1
    14    26    27    1
    15    46     5    1
    16    27    28    1
    17     1    41    1
    18    41     7    1
    19    28    29    1
    20    29    30    1
    21     3     6    1
    22     5     6    1
    23     7     8    1
    24     7    39    2
    25     9     8    1
    26     9    10    1
    27    30    31    1
    28    31    32    1
    29    11    10    1
    30    11    12    1
    31    32    33    1
    32    33    34    1
    33    12    13    1
    34    13    14    1
    35    34    35    1
    36    14    15    1
    37    35    36    1
    38    15    16    1
    39    36    37    1
    40    16    17    1
    41    37    38    1
    42    17    18    1
    43    18    19    1
    44    19    20    1
    45    21    20    1
    46    21    22    1
