@<TRIPOS>MOLECULE
2qgw_EES_A_1.pdb
 18 20 0 0 0
SMALL
GASTEIGER

@<TRIPOS>ATOM
      1 CL1        16.1240    3.0520   36.1290 Cl      1  EES1       -0.0612
      2  CAP       15.8310    3.9700   34.5570 C.ar    1  EES1        0.1413
      3  CAR       16.8600    4.3150   33.7070 C.ar    1  EES1        0.0510
      4  CAJ       18.2290    4.0960   33.7890 C.ar    1  EES1        0.0460
      5  CAN       19.0400    4.5640   32.7570 C.ar    1  EES1        0.1959
      6  OAC       20.3870    4.3680   32.7980 O.3     1  EES1       -0.2866
      7  CAH       18.4730    5.2370   31.6740 C.ar    1  EES1        0.0436
      8  CAI       17.0960    5.4490   31.6090 C.ar    1  EES1        0.0242
      9  CAQ       16.2750    4.9860   32.6320 C.ar    1  EES1        0.1038
     10  NAL       14.9290    5.0470   32.8280 N.ar    1  EES1       -0.1643
     11  NAS       14.6820    4.4090   34.0510 N.ar    1  EES1       -0.2193
     12  CAO       13.4300    4.2700   34.5320 C.2     1  EES1        0.0800
     13  CAF       13.1110    3.8720   35.8470 C.2     1  EES1        0.0012
     14  CAD       11.8010    3.8020   36.3150 C.3     1  EES1        0.0966
     15  CAG       12.3340    4.5970   33.7160 C.2     1  EES1        0.0218
     16  CAE       11.0190    4.5260   34.1610 C.2     1  EES1        0.0393
     17  CAM       10.7540    4.1310   35.4630 C.2     1  EES1        0.1776
     18  OAB        9.5740    4.0750   35.8520 O.2     1  EES1       -0.2910
@<TRIPOS>BOND
     1     8     7   ar
     2     8     9   ar
     3     7     5   ar
     4     9    10   ar
     5     9     3   ar
     6     5     6    1
     7     5     4   ar
     8    10    11   ar
     9     3     4   ar
    10     3     2   ar
    11    15    16    2
    12    15    12    1
    13    11    12    1
    14    11     2   ar
    15    16    17    1
    16    12    13    2
    17     2     1    1
    18    17    18    2
    19    17    14    1
    20    13    14    1
