@<TRIPOS>MOLECULE
2qh6_ODE_A_1.pdb
 31 34 0 0 0
SMALL
GASTEIGER

@<TRIPOS>ATOM
      1  CAI      -16.0730    3.9730   33.6620 C.ar  700  ODE700      0.0030
      2  CAN      -17.2540    3.8790   34.4220 C.ar  700  ODE700      0.0420
      3  CAV      -17.1130    3.6530   35.7880 C.ar  700  ODE700      0.1957
      4  OAZ      -18.1940    3.4970   36.5770 O.3   700  ODE700     -0.2866
      5  CAO      -15.8600    3.5390   36.3760 C.ar  700  ODE700      0.0420
      6  CAL      -14.6990    3.6560   35.6230 C.ar  700  ODE700      0.0030
      7  CAF      -14.8030    3.8830   34.2630 C.ar  700  ODE700     -0.0017
      8  CAA      -13.6380    3.9870   33.4980 C.2   700  ODE700      0.0034
      9  CAC      -13.4640    4.5750   32.0950 C.3   700  ODE700      0.1487
     10  OBC      -12.5590    3.4780   31.6400 O.3   700  ODE700     -0.3488
     11  CAD      -12.5480    5.7600   31.7890 C.3   700  ODE700      0.1435
     12  CAR      -12.6430    6.6620   32.9420 C.2   700  ODE700      0.3198
     13  OBD      -12.2660    6.2250   34.0400 O.2   700  ODE700     -0.2500
     14  OBA      -13.1080    7.9340   32.7610 O.3   700  ODE700     -0.4484
     15  CAJ      -12.7630    8.4750   31.5050 C.3   700  ODE700      0.2086
     16  CAU      -13.1080    9.8940   32.0030 C.3   700  ODE700      0.0513
     17  CAK      -11.1350    5.0980   31.7920 C.3   700  ODE700      0.1435
     18  CAQ       -9.9520    6.0270   32.2700 C.2   700  ODE700      0.3198
     19  OAY      -10.1730    7.1660   32.6550 O.2   700  ODE700     -0.2500
     20  OBB       -8.6030    5.7210   32.2390 O.3   700  ODE700     -0.4484
     21  CAS       -8.3160    4.3640   32.6660 C.3   700  ODE700      0.2086
     22  CAG       -8.9470    3.3810   31.6630 C.3   700  ODE700      0.0513
     23  CAE      -11.4580    3.7470   32.5370 C.3   700  ODE700      0.1487
     24  CAB      -12.3680    3.4740   33.7830 C.2   700  ODE700      0.0034
     25  CAH      -11.9400    2.6520   34.8160 C.ar  700  ODE700     -0.0017
     26  CAM      -10.9410    2.9990   35.7150 C.ar  700  ODE700      0.0030
     27  CAW      -10.4770    2.0760   36.6680 C.ar  700  ODE700      0.0420
     28  CAT      -11.0180    0.7990   36.7040 C.ar  700  ODE700      0.1957
     29  OBE      -10.5710   -0.0600   37.6360 O.3   700  ODE700     -0.2866
     30  CAX      -12.0050    0.4200   35.7810 C.ar  700  ODE700      0.0420
     31  CAP      -12.4450    1.3430   34.8350 C.ar  700  ODE700      0.0030
@<TRIPOS>BOND
     1    15    16    1
     2    15    14    1
     3    10     9    1
     4    10    23    1
     5    22    21    1
     6    11    17    1
     7    11     9    1
     8    11    12    1
     9    17    18    1
    10    17    23    1
    11     9     8    1
    12    20    18    1
    13    20    21    1
    14    18    19    2
    15    23    24    1
    16    14    12    1
    17    12    13    2
    18     8    24    2
    19     8     7    1
    20     1     7   ar
    21     1     2   ar
    22    24    25    1
    23     7     6   ar
    24     2     3   ar
    25    25    31   ar
    26    25    26   ar
    27    31    30   ar
    28     6     5   ar
    29    26    27   ar
    30    30    28   ar
    31     3     5   ar
    32     3     4    1
    33    27    28   ar
    34    28    29    1
