@<TRIPOS>MOLECULE
2qhc_AB1_B_1.pdb
 46 49 0 0 0
SMALL
GASTEIGER

@<TRIPOS>ATOM
      1  C1       -14.6170   58.9170   10.9060 C.3   9001  AB19001     0.1409
      2  C2       -14.9180   56.6930    9.6780 C.3   9001  AB19001     0.1053
      3  N1       -13.4650   56.7080    9.4710 N.am  9001  AB19001    -0.2295
      4  C3       -12.6670   57.6800    9.8870 C.1   9001  AB19001     0.2113
      5  N2       -13.2170   58.6980   10.5600 N.2   9001  AB19001    -0.1900
      6  C4       -12.9540   51.0240    3.7080 C.ar  9001  AB19001    -0.0204
      7  C5       -12.5850   50.0330    2.7930 C.ar  9001  AB19001    -0.0042
      8  C6       -13.5170   49.0920    2.3400 C.ar  9001  AB19001    -0.0003
      9  C7       -14.8260   49.1410    2.8020 C.ar  9001  AB19001    -0.0000
     10  C8       -15.1930   50.1230    3.7250 C.ar  9001  AB19001    -0.0003
     11  C9       -14.2710   51.0660    4.1780 C.ar  9001  AB19001    -0.0042
     12  O1       -11.4670   57.6290    9.6740 O.2   9001  AB19001    -0.2063
     13  C10      -12.9170   55.5820    8.6970 C.3   9001  AB19001     0.1614
     14  C11      -13.3970   55.7490    7.2770 C.2   9001  AB19001     0.2600
     15  N3       -12.5230   56.3260    6.4370 N.am  9001  AB19001    -0.2054
     16  C12      -12.8350   56.5810    5.0280 C.3   9001  AB19001     0.1023
     17  C13      -13.3000   54.2100    9.2810 C.3   9001  AB19001     0.0278
     18  C14      -12.8490   53.0460    8.4060 C.3   9001  AB19001     0.0022
     19  C15      -12.7500   53.9950   10.6880 C.3   9001  AB19001     0.0022
     20  O2       -14.5330   55.3970    6.9640 O.2   9001  AB19001    -0.2715
     21  C16      -16.0270   59.5560    6.2880 C.ar  9001  AB19001    -0.0003
     22  C17      -15.5640   60.3360    7.3470 C.ar  9001  AB19001    -0.0000
     23  C18      -14.1970   60.3960    7.6000 C.ar  9001  AB19001    -0.0003
     24  C19      -13.3150   59.6720    6.7890 C.ar  9001  AB19001    -0.0042
     25  C20      -13.7810   58.8810    5.7300 C.ar  9001  AB19001    -0.0205
     26  C21      -15.1520   58.8360    5.4780 C.ar  9001  AB19001    -0.0042
     27  C22      -12.7890   58.1080    4.8660 C.3   9001  AB19001     0.0481
     28  C23      -11.7220   55.9580    4.1660 C.3   9001  AB19001     0.0567
     29  C24      -11.3400   54.4980    4.4610 C.3   9001  AB19001     0.1738
     30  C25      -12.3670   53.4660    3.9830 C.3   9001  AB19001     0.1300
     31  N4       -12.5260   53.5790    2.5330 N.am  9001  AB19001    -0.2011
     32  C26      -13.6880   54.0170    2.0320 C.2   9001  AB19001     0.2859
     33  C27      -13.8340   54.1130    0.5290 C.3   9001  AB19001     0.2911
     34  O3       -12.6990   53.5740   -0.1450 O.3   9001  AB19001    -0.4662
     35  C28      -12.8110   53.1830   -1.4520 C.ar  9001  AB19001     0.1312
     36  O4       -10.0960   54.2220    3.8470 O.3   9001  AB19001    -0.2212
     37  C29      -11.9130   52.0240    4.1880 C.3   9001  AB19001     0.0506
     38  O5       -14.6300   54.3510    2.7390 O.2   9001  AB19001    -0.2693
     39  C30      -12.9250   54.1510   -2.4480 C.ar  9001  AB19001     0.0118
     40  C31      -13.0420   53.7690   -3.7890 C.ar  9001  AB19001    -0.0013
     41  C32      -13.0500   52.4230   -4.1400 C.ar  9001  AB19001    -0.0004
     42  C33      -12.9320   51.4590   -3.1360 C.ar  9001  AB19001    -0.0013
     43  C34      -12.8120   51.8340   -1.7970 C.ar  9001  AB19001     0.0118
     44  C35      -12.6960   50.7570   -0.7500 C.3   9001  AB19001     0.0342
     45  C36      -12.9210   55.6170   -2.0870 C.3   9001  AB19001     0.0342
     46  C37      -15.2250   57.5110   10.9490 C.3   9001  AB19001     0.0495
@<TRIPOS>BOND
     1    41    40   ar
     2    41    42   ar
     3    40    39   ar
     4    42    43   ar
     5    39    45    1
     6    39    35   ar
     7    43    35   ar
     8    43    44    1
     9    35    34    1
    10    34    33    1
    11    33    32    1
    12    32    31   am
    13    32    38    2
    14     8     7   ar
    15     8     9   ar
    16    31    30    1
    17     7     6   ar
    18     9    10   ar
    19     6    11   ar
    20     6    37    1
    21    10    11   ar
    22    36    29    1
    23    30    37    1
    24    30    29    1
    25    28    29    1
    26    28    16    1
    27    27    16    1
    28    27    25    1
    29    16    15    1
    30    26    25   ar
    31    26    21   ar
    32    25    24   ar
    33    21    22   ar
    34    15    14   am
    35    24    23   ar
    36    20    14    2
    37    14    13    1
    38    22    23   ar
    39    18    17    1
    40    13    17    1
    41    13     3    1
    42    17    19    1
    43     3     2    1
    44     3     4   am
    45    12     4    2
    46     2    46    1
    47     4     5    2
    48     5     1    1
    49     1    46    1
