@<TRIPOS>MOLECULE
2qhd_DAO_A_1.pdb
 14 13 0 0 0
SMALL
GASTEIGER

@<TRIPOS>ATOM
      1  O1       -24.8230   30.3350  -24.1430 O.co2 501  DAO501     -0.2457
      2  O2       -25.2060   28.1680  -23.6500 O.co2 501  DAO501     -0.2457
      3  C1       -25.5260   29.2010  -24.1740 C.2   501  DAO501      0.3649
      4  C2       -26.8610   28.9430  -24.8610 C.3   501  DAO501      0.1141
      5  C3       -27.8320   30.0450  -24.5610 C.3   501  DAO501      0.0118
      6  C4       -29.1830   29.3580  -24.2360 C.3   501  DAO501      0.0006
      7  C5       -29.6580   29.6630  -22.8560 C.3   501  DAO501      0.0000
      8  C6       -30.0130   28.3540  -22.2240 C.3   501  DAO501      0.0000
      9  C7       -31.0130   28.4010  -21.0010 C.3   501  DAO501      0.0000
     10  C8       -30.2980   28.6960  -19.7310 C.3   501  DAO501      0.0000
     11  C9       -30.0790   27.3930  -18.9510 C.3   501  DAO501      0.0000
     12  C10      -28.5670   27.1730  -18.8950 C.3   501  DAO501      0.0000
     13  C11      -28.4200   25.9100  -18.1480 C.3   501  DAO501      0.0000
     14  C12      -27.6780   24.9430  -19.0300 C.3   501  DAO501      0.0000
@<TRIPOS>BOND
     1     4     5    1
     2     4     3    1
     3     5     6    1
     4     6     7    1
     5     3     1   ar
     6     3     2   ar
     7     7     8    1
     8     8     9    1
     9     9    10    1
    10    10    11    1
    11    14    13    1
    12    11    12    1
    13    12    13    1
