@<TRIPOS>MOLECULE
2qhm_7CS_A_1.pdb
 21 24 0 0 0
SMALL
GASTEIGER

@<TRIPOS>ATOM
      1  C12       13.8370   -1.3160   10.8560 C.2   500  7CS500      0.1048
      2  O4        12.2160   -2.3190   12.1620 O.2   500  7CS500     -0.2448
      3  C8        16.4680   -5.4170   16.3680 C.3   500  7CS500      0.0896
      4  C9        13.3400   -2.2880   11.7160 C.2   500  7CS500      0.3433
      5  C11       13.1870   -0.2350   10.3460 C.2   500  7CS500      0.1167
      6  O3        14.2450   -3.2380   12.0760 O.3   500  7CS500     -0.4491
      7  C7        16.1430   -2.9440   14.3900 C.3   500  7CS500      0.0175
      8  C6        16.8130   -4.0020   13.5420 C.3   500  7CS500      0.0175
      9  N1        15.6680   -4.9830   15.1890 N.3   500  7CS500     -0.2738
     10  C5        16.1490   -5.3540   13.7870 C.3   500  7CS500      0.0611
     11  C4        14.9060   -5.4910   12.9380 C.3   500  7CS500      0.0596
     12  C1        15.0470   -3.5920   15.2380 C.3   500  7CS500      0.0611
     13  C2        13.7200   -3.6970   14.5090 C.3   500  7CS500      0.0596
     14  C3        13.8970   -4.3220   13.0530 C.3   500  7CS500      0.1718
     15  C13       17.6560   -0.3570    8.8730 C.2   500  7CS500      0.1096
     16  N14       16.4400    0.4320    8.8490 N.2   500  7CS500     -0.1922
     17  C15       15.2540   -0.0220    9.5040 C.1   500  7CS500      0.0355
     18  C16       15.1770   -1.2220   10.3020 C.2   500  7CS500      0.0703
     19  C17       16.4230   -2.0040   10.3650 C.2   500  7CS500      0.0119
     20  C18       17.6850   -1.6040    9.6250 C.2   500  7CS500      0.0221
     21  N10       14.0100    0.5880    9.5780 N.2   500  7CS500     -0.1920
@<TRIPOS>BOND
     1    16    15    1
     2    16    17    2
     3    15    20    2
     4    17    21    2
     5    17    18    1
     6    21     5    1
     7    20    19    1
     8    18    19    2
     9    18     1    1
    10     5     1    2
    11     1     4    1
    12     4     6    1
    13     4     2    2
    14     6    14    1
    15    11    14    1
    16    11    10    1
    17    14    13    1
    18     8    10    1
    19     8     7    1
    20    10     9    1
    21     7    12    1
    22    13    12    1
    23     9    12    1
    24     9     3    1
