@<TRIPOS>MOLECULE
2qhn_582_A_1.pdb
 17 19 0 0 0
SMALL
GASTEIGER

@<TRIPOS>ATOM
      1  C1        20.6950   -2.3020    9.5550 C.ar  500  582500      0.0013
      2  C2        19.6500   -2.9430   10.3190 C.ar  500  582500      0.0149
      3  C3        18.3000   -2.4110   10.2590 C.ar  500  582500      0.0550
      4  C4        18.0320   -1.2250    9.4580 C.ar  500  582500      0.0298
      5  C5        19.0590   -0.5850    8.7630 C.ar  500  582500      0.0025
      6  C6        20.3930   -1.1200    8.7920 C.ar  500  582500      0.0001
      7  N11       17.2220   -3.0070   10.9410 N.am  500  582500     -0.2580
      8  C12       15.9250   -2.5160   10.8570 C.2   500  582500      0.2400
      9  C13       15.6610   -1.2770   10.1070 C.3   500  582500      0.1563
     10  C14       16.6670   -0.6590    9.4540 C.2   500  582500      0.0954
     11  O2        14.9620   -3.0130   11.4100 O.2   500  582500     -0.2737
     12  C18       17.3070   -4.2380   11.8070 C.3   500  582500      0.0983
     13  N1        16.1200    0.5590    8.8780 N.2   500  582500     -0.1521
     14  C23       14.4610   -0.4930    9.8870 C.2   500  582500      0.0727
     15  C9        13.0600   -0.7620   10.3980 C.3   500  582500      0.0501
     16  N2        14.8370    0.5970    9.1460 N.2   500  582500     -0.1562
     17  C7        17.4600   -5.4500   10.8780 C.3   500  582500      0.0237
@<TRIPOS>BOND
     1     5     6   ar
     2     5     4   ar
     3     6     1   ar
     4    13    16    1
     5    13    10    2
     6    16    14    2
     7    10     4    1
     8    10     9    1
     9     4     3   ar
    10     1     2   ar
    11    14     9    1
    12    14    15    1
    13     9     8    1
    14     3     2   ar
    15     3     7    1
    16     8     7   am
    17     8    11    2
    18    17    12    1
    19     7    12    1
