@<TRIPOS>MOLECULE
2qhs_OCA_A_1.pdb
 10 9 0 0 0
SMALL
GASTEIGER

@<TRIPOS>ATOM
      1  C1       -14.7040   13.8620  -17.5180 C.2   3913  OCA3913     0.3649
      2  C2       -15.9550   13.3490  -16.7620 C.3   3913  OCA3913     0.1141
      3  C3       -15.7820   13.3900  -15.2360 C.3   3913  OCA3913     0.0118
      4  C4       -17.0800   13.1190  -14.4630 C.3   3913  OCA3913     0.0006
      5  C5       -16.7900   12.8560  -12.9830 C.3   3913  OCA3913     0.0000
      6  C6       -18.0570   12.6360  -12.1590 C.3   3913  OCA3913     0.0000
      7  C7       -17.7410   12.4480  -10.6780 C.3   3913  OCA3913     0.0000
      8  C8       -18.9950   12.3300   -9.8140 C.3   3913  OCA3913     0.0000
      9  O1       -14.8510   14.1440  -18.7280 O.co2 3913  OCA3913    -0.2457
     10  O2       -13.6230   13.9570  -16.8830 O.co2 3913  OCA3913    -0.2457
@<TRIPOS>BOND
     1     9     1   ar
     2     1    10   ar
     3     1     2    1
     4     2     3    1
     5     3     4    1
     6     4     5    1
     7     5     6    1
     8     6     7    1
     9     7     8    1
