@<TRIPOS>MOLECULE
2qhw_PZZ_A_1.pdb
 17 18 0 0 0
SMALL
GASTEIGER

@<TRIPOS>ATOM
      1  C2        20.0750    4.9340    9.3300 C.2   134  PZZ134      0.0959
      2  C3        20.3450    5.9630   10.2390 C.2   134  PZZ134      0.0141
      3  N1        20.9240    4.9570    8.2620 N.2   134  PZZ134     -0.2445
      4  C4        22.2800    7.7940    9.9910 C.2   134  PZZ134     -0.0202
      5  C5        23.3270    8.2200    9.1590 C.3   134  PZZ134      0.0518
      6  C6        23.6480    7.5870    7.9520 C.2   134  PZZ134     -0.0242
      7  C7        22.9310    6.4760    7.5260 C.2   134  PZZ134     -0.0084
      8  C8        21.5120    6.6900    9.6410 C.2   134  PZZ134      0.0122
      9  C9        21.8100    5.9760    8.3740 C.2   134  PZZ134      0.0765
     10  C10       19.6150    6.2800   11.5370 C.3   134  PZZ134      0.1008
     11  N11       18.7060    5.2250   12.0040 N.3   134  PZZ134     -0.2665
     12  C12       18.4440    4.0230   11.2230 C.3   134  PZZ134      0.0899
     13  C13       18.0190    5.3700   13.2910 C.3   134  PZZ134      0.0899
     14  C14       23.2930    5.7970    6.2230 C.3   134  PZZ134      0.0303
     15  C15       24.0530    6.7850    5.3450 C.3   134  PZZ134      0.0403
     16  C16       25.3030    6.1160    4.7860 C.3   134  PZZ134      0.1825
     17  O17       25.2990    6.0900    3.3540 O.3   134  PZZ134     -0.2204
@<TRIPOS>BOND
     1    17    16    1
     2    16    15    1
     3    15    14    1
     4    14     7    1
     5     7     6    2
     6     7     9    1
     7     6     5    1
     8     3     9    2
     9     3     1    1
    10     9     8    1
    11     5     4    1
    12     1     2    2
    13     8     4    2
    14     8     2    1
    15     2    10    1
    16    12    11    1
    17    10    11    1
    18    11    13    1
