@<TRIPOS>MOLECULE
2qhx_NAP_A_1.pdb
 48 52 0 0 0
SMALL
GASTEIGER

@<TRIPOS>ATOM
      1  PA        -4.2350   28.4150   59.0610 P.3   1300  NAP1300     0.2189
      2  O1A       -4.5620   28.2300   60.4920 O.3   1300  NAP1300    -0.4371
      3  O2A       -5.4420   28.3640   58.2240 O.2   1300  NAP1300    -0.5170
      4  O5B       -3.1880   27.2810   58.6550 O.3   1300  NAP1300    -0.3112
      5  C5B       -2.6980   27.2640   57.3420 C.3   1300  NAP1300     0.1813
      6  C4B       -2.2870   25.8600   56.9510 C.3   1300  NAP1300     0.1820
      7  O4B       -1.2040   25.3710   57.7260 O.3   1300  NAP1300    -0.3136
      8  C3B       -3.4030   24.8430   57.1160 C.3   1300  NAP1300     0.2157
      9  O3B       -4.2450   24.8710   55.9850 O.3   1300  NAP1300    -0.2175
     10  C2B       -2.6350   23.5400   57.2760 C.3   1300  NAP1300     0.2314
     11  O2B       -2.6490   22.7670   56.0980 O.3   1300  NAP1300    -0.2630
     12  C1B       -1.1870   23.9770   57.5160 C.3   1300  NAP1300     0.3158
     13  N9A       -0.6280   23.2160   58.6380 N.pl3 1300  NAP1300    -0.1439
     14  C8A       -0.9530   23.3050   59.9610 C.3   1300  NAP1300     0.3377
     15  N7A       -0.2180   22.3930   60.6390 N.2   1300  NAP1300    -0.2095
     16  C5A        0.5600   21.7280   59.7680 C.2   1300  NAP1300     0.2526
     17  C6A        1.4890   20.7050   59.9250 C.2   1300  NAP1300     0.4393
     18  N6A        1.7510   20.1970   61.1280 N.pl3 1300  NAP1300     0.2180
     19  N1A        2.1370   20.2090   58.8140 N.2   1300  NAP1300     0.0021
     20  C2A        1.8670   20.7250   57.5570 C.3   1300  NAP1300     0.5254
     21  N3A        0.9440   21.7390   57.4040 N.2   1300  NAP1300    -0.0055
     22  C4A        0.3060   22.2310   58.5000 C.2   1300  NAP1300     0.3518
     23  O3        -3.4270   29.7790   58.8200 O.3   1300  NAP1300    -0.2703
     24  PN        -3.9160   31.2260   58.3090 P.3   1300  NAP1300     0.2189
     25  O1N       -4.9160   31.7220   59.2890 O.3   1300  NAP1300    -0.4371
     26  O2N       -4.2420   31.1470   56.8660 O.2   1300  NAP1300    -0.5170
     27  O5D       -2.5870   32.1160   58.4560 O.3   1300  NAP1300    -0.3112
     28  C5D       -1.4260   31.8030   57.7110 C.3   1300  NAP1300     0.1813
     29  C4D       -0.1570   32.2760   58.4160 C.3   1300  NAP1300     0.1799
     30  O4D       -0.3030   33.5850   58.9510 O.3   1300  NAP1300    -0.3327
     31  C3D        0.1960   31.3670   59.5720 C.3   1300  NAP1300     0.2158
     32  O3D        1.5890   31.1630   59.5580 O.3   1300  NAP1300    -0.2175
     33  C2D       -0.1940   32.1650   60.7920 C.3   1300  NAP1300     0.2309
     34  O2D        0.6300   31.8690   61.8970 O.3   1300  NAP1300    -0.2158
     35  C1D       -0.0550   33.6080   60.3400 C.3   1300  NAP1300     0.2263
     36  N1N       -1.0070   34.4500   61.0780 N.pl3 1300  NAP1300    -0.2787
     37  C2N       -2.3520   34.3780   60.8400 C.3   1300  NAP1300     0.1244
     38  C3N       -3.2310   35.1780   61.5660 C.2   1300  NAP1300     0.0544
     39  C7N       -4.6940   35.1760   61.2660 C.2   1300  NAP1300     0.2818
     40  O7N       -5.5100   36.1230   61.9170 O.2   1300  NAP1300    -0.2670
     41  N7N       -5.1960   34.2880   60.3990 N.am  1300  NAP1300    -0.0839
     42  C4N       -2.7340   36.0440   62.5350 C.2   1300  NAP1300     0.0033
     43  C5N       -1.3650   36.1030   62.7880 C.2   1300  NAP1300     0.0157
     44  C6N       -0.5160   35.2910   62.0420 C.2   1300  NAP1300     0.0633
     45  P2B       -3.7730   21.6780   55.7620 P.3   1300  NAP1300     0.5328
     46  O1X       -3.5000   21.1760   54.3720 O.2   1300  NAP1300    -0.2224
     47  O2X       -3.7130   20.5290   56.7330 O.3   1300  NAP1300    -0.1145
     48  O3X       -5.1320   22.3170   55.8670 O.3   1300  NAP1300    -0.1145
@<TRIPOS>BOND
     1    46    45    2
     2    45    48    1
     3    45    11    1
     4    45    47    1
     5     9     8    1
     6    11    10    1
     7    26    24    2
     8     6     8    1
     9     6     5    1
    10     6     7    1
    11     8    10    1
    12    10    12    1
    13     5     4    1
    14    21    20    1
    15    21    22    2
    16    12     7    1
    17    12    13    1
    18    20    19    1
    19    28    29    1
    20    28    27    1
    21     3     1    2
    22    24    27    1
    23    24    23    1
    24    24    25    1
    25    29    30    1
    26    29    31    1
    27    22    13    1
    28    22    16    1
    29    13    14    1
    30     4     1    1
    31    19    17    2
    32    23     1    1
    33    30    35    1
    34     1     2    1
    35    32    31    1
    36    31    33    1
    37    16    17    1
    38    16    15    2
    39    17    18    1
    40    14    15    1
    41    35    33    1
    42    35    36    1
    43    41    39   am
    44    33    34    1
    45    37    36    1
    46    37    38    1
    47    36    44    1
    48    39    38    1
    49    39    40    2
    50    38    42    2
    51    44    43    2
    52    42    43    1
