@<TRIPOS>MOLECULE
2qhx_FE1_A_1.pdb
 33 36 0 0 0
SMALL
GASTEIGER

@<TRIPOS>ATOM
      1  OAZ       -9.9080   34.6430   71.0220 O.2   1301  FE11301    -0.2699
      2  CAU       -9.6470   33.7170   70.2590 C.2   1301  FE11301     0.2490
      3  NAV      -10.0880   32.4700   70.5030 N.am  1301  FE11301    -0.2761
      4  CAW       -9.7960   31.3250   69.6260 C.3   1301  FE11301     0.0943
      5  CAX      -11.1430   30.7830   69.1400 C.3   1301  FE11301     0.0327
      6  CBA      -10.8940   32.1650   71.6950 C.3   1301  FE11301     0.0943
      7  CBB      -12.2120   31.5200   71.2360 C.3   1301  FE11301     0.0327
      8  CBC      -11.9290   30.2960   70.3530 C.3   1301  FE11301     0.1025
      9  CBD      -13.1610   29.5270   69.9290 C.2   1301  FE11301     0.3167
     10  OBG      -14.2690   30.0410   69.9020 O.2   1301  FE11301    -0.2501
     11  OBE      -13.0330   28.1290   69.5290 O.3   1301  FE11301    -0.4444
     12  CBF      -12.8320   27.1000   70.5080 C.3   1301  FE11301     0.2556
     13  CAT       -8.8170   34.0420   69.0370 C.ar  1301  FE11301     0.0537
     14  CAS       -7.6360   34.7750   69.1720 C.ar  1301  FE11301     0.0058
     15  CAR       -6.8670   35.0850   68.0490 C.ar  1301  FE11301     0.0147
     16  CAJ       -7.2690   34.6700   66.7740 C.ar  1301  FE11301     0.0482
     17  CAK       -8.4550   33.9410   66.6440 C.ar  1301  FE11301     0.0147
     18  CAL       -9.2250   33.6370   67.7640 C.ar  1301  FE11301     0.0058
     19  N10       -6.5240   34.9670   65.6650 N.pl3 1301  FE11301    -0.2999
     20  CAB       -5.2830   35.7340   65.7780 C.3   1301  FE11301     0.1125
     21  C9        -6.9760   34.5240   64.3450 C.3   1301  FE11301     0.1481
     22  C6        -6.1490   33.3670   63.8240 C.2   1301  FE11301     0.1330
     23  N5        -4.8200   33.3350   64.0670 N.2   1301  FE11301    -0.3917
     24  C4A       -4.0670   32.3190   63.6110 C.2   1301  FE11301     0.2518
     25  C8A       -4.6600   31.2960   62.8810 C.1   1301  FE11301     0.1314
     26  N8        -5.9930   31.3260   62.6330 N.2   1301  FE11301    -0.1998
     27  C7        -6.7450   32.3420   63.0870 C.3   1301  FE11301     0.1930
     28  C4        -2.7000   32.2860   63.8620 C.2   1301  FE11301     0.2728
     29  N4        -2.1140   33.2790   64.5710 N.pl3 1301  FE11301    -0.0887
     30  N3        -1.9680   31.2520   63.3930 N.2   1301  FE11301    -0.3033
     31  C2        -2.5600   30.2640   62.6800 C.1   1301  FE11301     0.2519
     32  N1        -3.8900   30.2830   62.4260 N.2   1301  FE11301    -0.2684
     33  N2        -1.8170   29.2350   62.2120 N.pl3 1301  FE11301    -0.0226
@<TRIPOS>BOND
     1    33    31    1
     2    32    31    2
     3    32    25    2
     4    26    25    2
     5    26    27    1
     6    31    30    2
     7    25    24    1
     8    27    22    1
     9    30    28    2
    10    24    28    1
    11    24    23    2
    12    22    23    2
    13    22    21    1
    14    28    29    1
    15    21    19    1
    16    19    20    1
    17    19    16    1
    18    17    16   ar
    19    17    18   ar
    20    16    15   ar
    21    18    13   ar
    22    15    14   ar
    23    13    14   ar
    24    13     2    1
    25     5     4    1
    26     5     8    1
    27    11     9    1
    28    11    12    1
    29     4     3    1
    30    10     9    2
    31     9     8    1
    32     2     3   am
    33     2     1    2
    34     8     7    1
    35     3     6    1
    36     7     6    1
