@<TRIPOS>MOLECULE
2qhy_MZ1_A_1.pdb
 39 41 0 0 0
SMALL
GASTEIGER

@<TRIPOS>ATOM
      1  O26       22.2540   25.1830   11.8000 O.2   200  MZ1200     -0.2733
      2  C25       21.9560   25.9700   10.9070 C.2   200  MZ1200      0.2423
      3  C27       21.4550   25.4120    9.5860 C.3   200  MZ1200      0.0964
      4  N24       22.0820   27.2940   11.0520 N.am  200  MZ1200     -0.1978
      5  C22       22.5580   27.9200   12.2820 C.3   200  MZ1200      0.1728
      6  C23       23.9060   28.6100   12.0710 C.3   200  MZ1200      0.0334
      7  C21       21.4960   28.9050   12.7540 C.2   200  MZ1200      0.2612
      8  O22       21.3210   29.9680   12.1470 O.2   200  MZ1200     -0.2715
      9  N20       20.7850   28.5600   13.8350 N.am  200  MZ1200     -0.2027
     10  C19       19.7080   29.3840   14.4030 C.3   200  MZ1200      0.1314
     11  C32       18.4320   28.5360   14.3140 C.3   200  MZ1200      0.0506
     12  C38       18.1280   28.1890   12.8530 C.ar  200  MZ1200     -0.0204
     13  C37       17.5640   29.1340   12.0000 C.ar  200  MZ1200     -0.0042
     14  C36       17.2960   28.8200   10.6690 C.ar  200  MZ1200     -0.0003
     15  C35       17.6010   27.5600   10.1740 C.ar  200  MZ1200     -0.0000
     16  C34       18.1720   26.6130   11.0130 C.ar  200  MZ1200     -0.0003
     17  C33       18.4340   26.9260   12.3470 C.ar  200  MZ1200     -0.0042
     18  C17       20.0740   29.7720   15.8450 C.3   200  MZ1200      0.1897
     19  O18       20.0760   28.6160   16.6920 O.3   200  MZ1200     -0.2197
     20  C16       19.1170   30.8480   16.4200 C.3   200  MZ1200      0.1308
     21  N11       19.4300   32.1510   15.7720 N.3   200  MZ1200     -0.1478
     22  S8        18.1900   32.8610   14.9870 S.O2  200  MZ1200      0.0659
     23  O9        18.8410   33.6980   14.0410 O.2   200  MZ1200     -0.1527
     24  O10       17.4870   31.8250   14.3000 O.2   200  MZ1200     -0.1527
     25  C5        17.1670   33.7640   15.8930 C.ar  200  MZ1200      0.1519
     26  C6        17.2260   35.1630   15.8810 C.ar  200  MZ1200      0.0542
     27  C7        16.3550   35.9570   16.6510 C.ar  200  MZ1200      0.1689
     28  F1        16.4260   37.3070   16.6510 F     200  MZ1200     -0.2018
     29  C4        16.1810   33.1920   16.7060 C.ar  200  MZ1200      0.1610
     30  F3        16.0370   31.8710   16.7730 F     200  MZ1200     -0.2027
     31  C3        15.3020   33.9760   17.4730 C.ar  200  MZ1200      0.0630
     32  C2        15.3900   35.3590   17.4490 C.ar  200  MZ1200      0.1697
     33  F2        14.5580   36.1310   18.1840 F     200  MZ1200     -0.2017
     34  C12       20.2090   33.1080   16.6120 C.3   200  MZ1200      0.1286
     35  C15       21.6480   33.1380   16.1060 C.ar  200  MZ1200      0.0251
     36  C18       22.7040   33.2600   16.9470 C.ar  200  MZ1200      0.0041
     37  C14       23.8980   33.2210   16.1760 C.ar  200  MZ1200      0.0072
     38  C13       23.6610   33.0770   14.8640 C.ar  200  MZ1200      0.0352
     39  S1        22.0490   32.9860   14.4800 S.2   200  MZ1200     -0.0893
@<TRIPOS>BOND
     1     3     2    1
     2    15    14   ar
     3    15    16   ar
     4    14    13   ar
     5     2     4   am
     6     2     1    2
     7    16    17   ar
     8     4     5    1
     9    13    12   ar
    10     6     5    1
    11     8     7    2
    12     5     7    1
    13    17    12   ar
    14     7     9   am
    15    12    11    1
    16     9    10    1
    17    23    22    2
    18    24    22    2
    19    11    10    1
    20    10    18    1
    21    39    38   ar
    22    39    35   ar
    23    38    37   ar
    24    22    21    1
    25    22    25    1
    26    21    20    1
    27    21    34    1
    28    18    20    1
    29    18    19    1
    30    26    25   ar
    31    26    27   ar
    32    25    29   ar
    33    35    34    1
    34    35    36   ar
    35    37    36   ar
    36    27    28    1
    37    27    32   ar
    38    29    30    1
    39    29    31   ar
    40    32    31   ar
    41    32    33    1
