@<TRIPOS>MOLECULE
2qhz_MZ2_A_1.pdb
 40 42 0 0 0
SMALL
GASTEIGER

@<TRIPOS>ATOM
      1  F26       25.2620   26.9290   12.7400 F     200  MZ2200     -0.1662
      2  C25       24.6570   27.0110   11.5600 C.3   200  MZ2200      0.4151
      3  F28       25.5470   27.4360   10.6820 F     200  MZ2200     -0.1662
      4  F27       24.2440   25.7940   11.2190 F     200  MZ2200     -0.1662
      5  C23       23.5210   28.0080   11.5820 C.2   200  MZ2200      0.0540
      6  C24       23.2270   28.7490   10.3010 C.3   200  MZ2200      0.0351
      7  C22       22.9110   28.2230   12.7580 C.2   200  MZ2200      0.0590
      8  C21       21.7270   29.1070   13.0060 C.2   200  MZ2200      0.2646
      9  O22       21.4020   29.9610   12.2010 O.2   200  MZ2200     -0.2684
     10  N20       21.0300   28.8440   14.1270 N.am  200  MZ2200     -0.2004
     11  C19       19.8110   29.5400   14.5450 C.3   200  MZ2200      0.1316
     12  C32       18.6310   28.5810   14.3080 C.3   200  MZ2200      0.0507
     13  C38       18.3980   28.3290   12.8150 C.ar  200  MZ2200     -0.0204
     14  C37       17.6950   29.2480   12.0440 C.ar  200  MZ2200     -0.0042
     15  C36       17.4840   29.0180   10.6870 C.ar  200  MZ2200     -0.0003
     16  C35       17.9710   27.8640   10.0880 C.ar  200  MZ2200     -0.0000
     17  C34       18.6690   26.9400   10.8530 C.ar  200  MZ2200     -0.0003
     18  C33       18.8840   27.1730   12.2140 C.ar  200  MZ2200     -0.0042
     19  C17       20.0080   29.8740   16.0290 C.3   200  MZ2200      0.1897
     20  O18       19.9900   28.6690   16.8200 O.3   200  MZ2200     -0.2197
     21  C16       18.9480   30.8630   16.5560 C.3   200  MZ2200      0.1308
     22  N11       19.2510   32.1740   15.9310 N.3   200  MZ2200     -0.1478
     23  S8        18.0430   32.8250   15.0540 S.O2  200  MZ2200      0.0659
     24  O9        18.6680   33.6150   14.0430 O.2   200  MZ2200     -0.1527
     25  O10       17.3130   31.7570   14.4250 O.2   200  MZ2200     -0.1527
     26  C5        17.0000   33.7310   15.9270 C.ar  200  MZ2200      0.1519
     27  C6        17.0960   35.1230   15.9180 C.ar  200  MZ2200      0.0542
     28  C7        16.2170   35.9290   16.6520 C.ar  200  MZ2200      0.1689
     29  F1        16.3270   37.2680   16.6400 F     200  MZ2200     -0.2018
     30  C4        15.9850   33.1700   16.7190 C.ar  200  MZ2200      0.1610
     31  F3        15.8330   31.8390   16.7860 F     200  MZ2200     -0.2027
     32  C3        15.1030   33.9730   17.4620 C.ar  200  MZ2200      0.0630
     33  C2        15.2190   35.3620   17.4250 C.ar  200  MZ2200      0.1697
     34  F2        14.3920   36.1720   18.1260 F     200  MZ2200     -0.2017
     35  C12       20.0220   33.1220   16.7870 C.3   200  MZ2200      0.1286
     36  C15       21.4750   33.1020   16.2940 C.ar  200  MZ2200      0.0251
     37  C18       22.5310   33.1580   17.1400 C.ar  200  MZ2200      0.0041
     38  C14       23.7330   33.0700   16.3800 C.ar  200  MZ2200      0.0072
     39  C13       23.5010   32.9670   15.0600 C.ar  200  MZ2200      0.0352
     40  S1        21.8830   32.9830   14.6610 S.2   200  MZ2200     -0.0893
@<TRIPOS>BOND
     1    16    15   ar
     2    16    17   ar
     3     6     5    1
     4     3     2    1
     5    15    14   ar
     6    17    18   ar
     7     4     2    1
     8     2     5    1
     9     2     1    1
    10     5     7    2
    11    14    13   ar
    12     9     8    2
    13    18    13   ar
    14     7     8    1
    15    13    12    1
    16     8    10   am
    17    24    23    2
    18    10    11    1
    19    12    11    1
    20    25    23    2
    21    11    19    1
    22    40    39   ar
    23    40    36   ar
    24    23    26    1
    25    23    22    1
    26    39    38   ar
    27    27    26   ar
    28    27    28   ar
    29    26    30   ar
    30    22    21    1
    31    22    35    1
    32    19    21    1
    33    19    20    1
    34    36    35    1
    35    36    37   ar
    36    38    37   ar
    37    29    28    1
    38    28    33   ar
    39    30    31    1
    40    30    32   ar
    41    33    32   ar
    42    33    34    1
