@<TRIPOS>MOLECULE
2qi0_MZ3_B_1.pdb
 40 43 0 0 0
SMALL
GASTEIGER

@<TRIPOS>ATOM
      1  F29       26.0590   27.3430   11.9470 F     200  MZ3200     -0.2045
      2  C26       24.7440   27.1990   11.6950 C.ar  200  MZ3200      0.1363
      3  C25       24.2940   26.1780   10.8680 C.ar  200  MZ3200      0.0293
      4  C24       22.9390   26.0370   10.6160 C.ar  200  MZ3200      0.0024
      5  C23       22.0330   26.9120   11.2060 C.ar  200  MZ3200      0.0044
      6  C27       23.8430   28.0790   12.2630 C.ar  200  MZ3200      0.0100
      7  C28       24.3250   29.1820   13.1520 C.3   200  MZ3200      0.0335
      8  C22       22.4880   27.9420   12.0290 C.ar  200  MZ3200      0.0532
      9  C21       21.5100   28.9360   12.6350 C.2   200  MZ3200      0.2646
     10  O22       21.5280   30.0610   12.1780 O.2   200  MZ3200     -0.2684
     11  N20       20.6720   28.5760   13.6090 N.am  200  MZ3200     -0.2004
     12  C19       19.6790   29.4590   14.2150 C.3   200  MZ3200      0.1316
     13  C32       18.4020   28.6120   14.2450 C.3   200  MZ3200      0.0507
     14  C38       18.0200   28.1830   12.8350 C.ar  200  MZ3200     -0.0204
     15  C37       17.5380   29.1100   11.9310 C.ar  200  MZ3200     -0.0042
     16  C36       17.1840   28.7020   10.6530 C.ar  200  MZ3200     -0.0003
     17  C35       17.3110   27.3760   10.2650 C.ar  200  MZ3200     -0.0000
     18  C34       17.8000   26.4430   11.1690 C.ar  200  MZ3200     -0.0003
     19  C33       18.1500   26.8520   12.4520 C.ar  200  MZ3200     -0.0042
     20  C17       20.1000   29.8630   15.6340 C.3   200  MZ3200      0.1897
     21  O18       20.0710   28.7450   16.5360 O.3   200  MZ3200     -0.2197
     22  C16       19.1760   30.9390   16.2300 C.3   200  MZ3200      0.1308
     23  N11       19.4250   32.2220   15.5460 N.3   200  MZ3200     -0.1479
     24  C12       20.1690   33.2180   16.3540 C.3   200  MZ3200      0.1286
     25  C15       21.6560   33.1850   15.9960 C.ar  200  MZ3200      0.0251
     26  C18       22.6030   33.1760   16.9610 C.ar  200  MZ3200      0.0041
     27  C14       23.8990   33.1370   16.3600 C.ar  200  MZ3200      0.0072
     28  C13       23.8050   33.1250   15.0100 C.ar  200  MZ3200      0.0352
     29  S1        22.2440   33.1420   14.4230 S.2   200  MZ3200     -0.0893
     30  S8        18.1010   32.7860   14.7930 S.O2  200  MZ3200      0.0638
     31  O9        18.5870   33.6010   13.7100 O.2   200  MZ3200     -0.1528
     32  O10       17.3690   31.6840   14.2440 O.2   200  MZ3200     -0.1528
     33  C5        17.1290   33.6360   15.7700 C.ar  200  MZ3200      0.1252
     34  C6        17.3850   34.9820   16.0000 C.ar  200  MZ3200      0.0568
     35  C7        16.5790   35.7500   16.8370 C.ar  200  MZ3200      0.1401
     36  O19       16.9200   37.0850   16.9990 O.3   200  MZ3200     -0.4714
     37  C20       16.1300   38.0210   17.7200 C.3   200  MZ3200      0.2525
     38  C2        15.4840   35.1480   17.4720 C.ar  200  MZ3200      0.0370
     39  C3        15.1960   33.8100   17.2350 C.ar  200  MZ3200      0.0045
     40  C4        16.0200   33.0580   16.3920 C.ar  200  MZ3200      0.0201
@<TRIPOS>BOND
     1    17    16   ar
     2    17    18   ar
     3     4     3   ar
     4     4     5   ar
     5    16    15   ar
     6     3     2   ar
     7    18    19   ar
     8     5     8   ar
     9     2     1    1
    10     2     6   ar
    11    15    14   ar
    12     8     6   ar
    13     8     9    1
    14    10     9    2
    15     6     7    1
    16    19    14   ar
    17     9    11   am
    18    14    13    1
    19    11    12    1
    20    31    30    2
    21    12    13    1
    22    12    20    1
    23    32    30    2
    24    29    28   ar
    25    29    25   ar
    26    30    23    1
    27    30    33    1
    28    28    27   ar
    29    23    22    1
    30    23    24    1
    31    20    22    1
    32    20    21    1
    33    33    34   ar
    34    33    40   ar
    35    25    24    1
    36    25    26   ar
    37    34    35   ar
    38    27    26   ar
    39    40    39   ar
    40    35    36    1
    41    35    38   ar
    42    36    37    1
    43    39    38   ar
