@<TRIPOS>MOLECULE
2qi1_MZ4_A_1.pdb
 40 43 0 0 0
SMALL
GASTEIGER

@<TRIPOS>ATOM
      1  O10       17.1220   31.6020   14.3590 O.2   200  MZ4200     -0.1528
      2  S8        17.8400   32.7330   14.8730 S.O2  200  MZ4200      0.0638
      3  O9        18.2750   33.5550   13.7780 O.2   200  MZ4200     -0.1528
      4  C5        16.8800   33.6080   15.8550 C.ar  200  MZ4200      0.1252
      5  C4        15.8300   33.0160   16.5670 C.ar  200  MZ4200      0.0201
      6  C3        15.0200   33.7810   17.4110 C.ar  200  MZ4200      0.0045
      7  C2        15.2430   35.1470   17.5690 C.ar  200  MZ4200      0.0370
      8  C7        16.2880   35.7550   16.8700 C.ar  200  MZ4200      0.1401
      9  O19       16.5500   37.1000   16.9910 O.3   200  MZ4200     -0.4714
     10  C20       16.0760   37.8990   18.0720 C.3   200  MZ4200      0.2525
     11  C6        17.0910   34.9810   16.0220 C.ar  200  MZ4200      0.0568
     12  N11       19.1920   32.2040   15.6080 N.3   200  MZ4200     -0.1479
     13  C12       19.9830   33.2230   16.3500 C.3   200  MZ4200      0.1286
     14  C15       21.4570   33.0460   15.9320 C.ar  200  MZ4200      0.0251
     15  S1        21.9400   32.8560   14.3260 S.2   200  MZ4200     -0.0893
     16  C13       23.5230   32.7310   14.8390 C.ar  200  MZ4200      0.0352
     17  C14       23.7150   32.8560   16.1740 C.ar  200  MZ4200      0.0072
     18  C18       22.4660   33.0190   16.8400 C.ar  200  MZ4200      0.0041
     19  C16       19.0490   30.9450   16.3700 C.3   200  MZ4200      0.1308
     20  C17       20.0810   29.9190   15.8420 C.3   200  MZ4200      0.1897
     21  O18       20.0870   28.7830   16.7170 O.3   200  MZ4200     -0.2197
     22  C19       19.7790   29.5210   14.3860 C.3   200  MZ4200      0.1316
     23  C32       18.5780   28.5630   14.2320 C.3   200  MZ4200      0.0507
     24  C38       18.3100   28.2510   12.7430 C.ar  200  MZ4200     -0.0204
     25  C33       18.8130   27.0880   12.1450 C.ar  200  MZ4200     -0.0042
     26  C34       18.5810   26.8050   10.7970 C.ar  200  MZ4200     -0.0003
     27  C35       17.8330   27.6900   10.0270 C.ar  200  MZ4200     -0.0000
     28  C36       17.3310   28.8480   10.6140 C.ar  200  MZ4200     -0.0003
     29  C37       17.5650   29.1240   11.9580 C.ar  200  MZ4200     -0.0042
     30  N20       20.9330   28.8070   13.8230 N.am  200  MZ4200     -0.2004
     31  C21       21.4610   29.1590   12.6240 C.2   200  MZ4200      0.2649
     32  O22       21.0620   30.0780   11.9200 O.2   200  MZ4200     -0.2684
     33  C22       22.6150   28.3490   12.0700 C.ar  200  MZ4200      0.0584
     34  C23       23.6150   27.8510   12.8980 C.ar  200  MZ4200      0.0081
     35  C24       24.6330   27.0880   12.3510 C.ar  200  MZ4200      0.0455
     36  C27       22.6330   28.0830   10.7100 C.ar  200  MZ4200      0.0500
     37  C26       23.6530   27.3330   10.1590 C.ar  200  MZ4200      0.2344
     38  O29       23.6870   27.0820    8.8140 O.3   200  MZ4200     -0.2831
     39  C25       24.6460   26.8280   10.9860 C.ar  200  MZ4200      0.2343
     40  O28       25.6560   26.0970   10.4320 O.3   200  MZ4200     -0.2831
@<TRIPOS>BOND
     1    38    37    1
     2    27    28   ar
     3    27    26   ar
     4    37    36   ar
     5    37    39   ar
     6    40    39    1
     7    28    29   ar
     8    36    33   ar
     9    26    25   ar
    10    39    35   ar
    11    32    31    2
    12    29    24   ar
    13    33    31    1
    14    33    34   ar
    15    25    24   ar
    16    35    34   ar
    17    31    30   am
    18    24    23    1
    19     3     2    2
    20    30    22    1
    21    23    22    1
    22    15    16   ar
    23    15    14   ar
    24     1     2    2
    25    22    20    1
    26    16    17   ar
    27     2    12    1
    28     2     4    1
    29    12    13    1
    30    12    19    1
    31    20    19    1
    32    20    21    1
    33     4    11   ar
    34     4     5   ar
    35    14    13    1
    36    14    18   ar
    37    11     8   ar
    38    17    18   ar
    39     5     6   ar
    40     8     9    1
    41     8     7   ar
    42     9    10    1
    43     6     7   ar
