@<TRIPOS>MOLECULE
2qi3_MZ5_B_1.pdb
 37 39 0 0 0
SMALL
GASTEIGER

@<TRIPOS>ATOM
      1  O22       21.4330   30.0840   11.9560 O.2   200  MZ5200     -0.2706
      2  C21       21.5390   28.9180   12.2790 C.2   200  MZ5200      0.2719
      3  C22       22.6030   28.1080   11.5800 C.3   200  MZ5200      0.2289
      4  C24       22.2530   28.0620   10.0820 C.3   200  MZ5200      0.0396
      5  C26       20.8680   27.4650    9.8500 C.3   200  MZ5200      0.0031
      6  C25       23.3090   27.3000    9.2750 C.3   200  MZ5200      0.0031
      7  O23       22.6790   26.7540   12.0370 O.3   200  MZ5200     -0.2132
      8  N20       20.7450   28.3470   13.2010 N.am  200  MZ5200     -0.2021
      9  C19       19.6600   29.0970   13.8510 C.3   200  MZ5200      0.1314
     10  C32       18.4030   28.2190   13.7830 C.3   200  MZ5200      0.0506
     11  C38       17.9970   27.9210   12.3590 C.ar  200  MZ5200     -0.0204
     12  C37       17.5360   28.9420   11.5340 C.ar  200  MZ5200     -0.0042
     13  C36       17.1650   28.6490   10.2200 C.ar  200  MZ5200     -0.0003
     14  C35       17.2310   27.3500    9.7110 C.ar  200  MZ5200     -0.0000
     15  C34       17.7000   26.3370   10.5420 C.ar  200  MZ5200     -0.0003
     16  C33       18.0760   26.6120   11.8610 C.ar  200  MZ5200     -0.0042
     17  C17       20.0680   29.4470   15.2870 C.3   200  MZ5200      0.1897
     18  O18       19.9750   28.3220   16.1610 O.3   200  MZ5200     -0.2197
     19  C16       19.1910   30.5480   15.8790 C.3   200  MZ5200      0.1304
     20  N11       19.4240   31.8010   15.1370 N.3   200  MZ5200     -0.1529
     21  C12       20.1500   32.7950   15.9520 C.3   200  MZ5200      0.0958
     22  C13       21.6520   32.4860   15.9480 C.3   200  MZ5200      0.0178
     23  C14       22.2280   32.6120   14.5310 C.3   200  MZ5200      0.0015
     24  C15       22.4080   33.3440   16.9670 C.3   200  MZ5200      0.0014
     25  C18       22.0400   34.8110   16.9250 C.3   200  MZ5200      0.0000
     26  S8        18.0790   32.3910   14.4330 S.O2  200  MZ5200      0.0631
     27  O10       17.3170   31.2870   13.9400 O.2   200  MZ5200     -0.1528
     28  O9        18.5480   33.2510   13.3750 O.2   200  MZ5200     -0.1528
     29  C5        17.1760   33.2420   15.5010 C.2   200  MZ5200      0.1192
     30  C4        17.3210   34.6360   15.7500 C.2   200  MZ5200      0.0102
     31  C3        16.5110   35.2980   16.7140 C.3   200  MZ5200      0.1122
     32  S1        16.6020   36.9690   17.0940 S.3   200  MZ5200     -0.1045
     33  C1        15.3370   36.6190   18.2380 C.3   200  MZ5200      0.1833
     34  N1        14.9230   35.3360   18.3060 N.2   200  MZ5200     -0.2616
     35  C2        15.5740   34.5430   17.4320 C.2   200  MZ5200      0.0686
     36  C7        15.4390   33.1880   17.1910 C.2   200  MZ5200      0.0168
     37  C6        16.2240   32.5430   16.2450 C.2   200  MZ5200      0.0208
@<TRIPOS>BOND
     1     6     4    1
     2    14    13   ar
     3    14    15   ar
     4     5     4    1
     5     4     3    1
     6    13    12   ar
     7    15    16   ar
     8    12    11   ar
     9     3     7    1
    10     3     2    1
    11    16    11   ar
    12     1     2    2
    13     2     8   am
    14    11    10    1
    15     8     9    1
    16    28    26    2
    17    10     9    1
    18     9    17    1
    19    27    26    2
    20    26    20    1
    21    26    29    1
    22    23    22    1
    23    20    19    1
    24    20    21    1
    25    17    19    1
    26    17    18    1
    27    29    30    2
    28    29    37    1
    29    30    31    1
    30    22    21    1
    31    22    24    1
    32    37    36    2
    33    31    32    1
    34    31    35    1
    35    25    24    1
    36    32    33    1
    37    36    35    1
    38    35    34    2
    39    33    34    1
