@<TRIPOS>MOLECULE
2qi4_MZ6_A_1.pdb
 39 42 0 0 0
SMALL
GASTEIGER

@<TRIPOS>ATOM
      1  O22       21.4760   29.9050   12.2310 O.2   200  MZ6200     -0.2684
      2  C21       21.3670   28.7580   12.6410 C.2   200  MZ6200      0.2649
      3  C22       22.1510   27.6830   11.9740 C.ar  200  MZ6200      0.0582
      4  C27       23.4940   27.7990   11.6830 C.ar  200  MZ6200      0.0466
      5  C26       24.1310   26.7550   11.0190 C.ar  200  MZ6200      0.1959
      6  O27       25.4460   26.8580   10.7410 O.3   200  MZ6200     -0.2866
      7  C25       23.4420   25.6030   10.6470 C.ar  200  MZ6200      0.0420
      8  C24       22.0890   25.4830   10.9390 C.ar  200  MZ6200      0.0034
      9  C23       21.4480   26.5320   11.5880 C.ar  200  MZ6200      0.0048
     10  N20       20.5580   28.3660   13.6150 N.am  200  MZ6200     -0.2004
     11  C19       19.6170   29.2450   14.2860 C.3   200  MZ6200      0.1316
     12  C32       18.3080   28.4450   14.2070 C.3   200  MZ6200      0.0507
     13  C38       17.9840   28.1020   12.7470 C.ar  200  MZ6200     -0.0204
     14  C37       17.5730   29.0860   11.8520 C.ar  200  MZ6200     -0.0042
     15  C36       17.2890   28.7640   10.5240 C.ar  200  MZ6200     -0.0003
     16  C35       17.4080   27.4510   10.0830 C.ar  200  MZ6200     -0.0000
     17  C34       17.8120   26.4670   10.9730 C.ar  200  MZ6200     -0.0003
     18  C33       18.0900   26.7890   12.2960 C.ar  200  MZ6200     -0.0042
     19  C17       20.0650   29.5980   15.6920 C.3   200  MZ6200      0.1897
     20  O18       20.0150   28.4250   16.5180 O.3   200  MZ6200     -0.2197
     21  C16       19.1980   30.7250   16.2840 C.3   200  MZ6200      0.1304
     22  N11       19.4380   31.9630   15.4970 N.3   200  MZ6200     -0.1529
     23  C12       20.1530   33.0000   16.2810 C.3   200  MZ6200      0.0958
     24  C13       21.6520   32.6580   16.3160 C.3   200  MZ6200      0.0178
     25  C15       22.3900   33.5920   17.2860 C.3   200  MZ6200      0.0014
     26  C18       22.1950   35.0700   17.0060 C.3   200  MZ6200      0.0000
     27  C14       22.3000   32.6680   14.9290 C.3   200  MZ6200      0.0015
     28  S8        18.0900   32.5750   14.7950 S.O2  200  MZ6200      0.0631
     29  O10       17.3350   31.4910   14.2590 O.2   200  MZ6200     -0.1528
     30  O9        18.5620   33.4330   13.7410 O.2   200  MZ6200     -0.1528
     31  C5        17.2020   33.4440   15.8720 C.2   200  MZ6200      0.1192
     32  C6        16.2480   32.7630   16.6300 C.2   200  MZ6200      0.0208
     33  C7        15.4790   33.4180   17.5920 C.2   200  MZ6200      0.0168
     34  C2        15.6200   34.7770   17.8240 C.2   200  MZ6200      0.0686
     35  C3        16.5560   35.5130   17.0860 C.3   200  MZ6200      0.1122
     36  C4        17.3480   34.8400   16.1140 C.2   200  MZ6200      0.0102
     37  N1        14.9680   35.5770   18.7000 N.2   200  MZ6200     -0.2616
     38  C1        15.3770   36.8600   18.6450 C.3   200  MZ6200      0.1833
     39  S1        16.6230   37.1790   17.4730 S.3   200  MZ6200     -0.1045
@<TRIPOS>BOND
     1    16    15   ar
     2    16    17   ar
     3    15    14   ar
     4     7     8   ar
     5     7     5   ar
     6     6     5    1
     7     8     9   ar
     8    17    18   ar
     9     5     4   ar
    10     9     3   ar
    11     4     3   ar
    12    14    13   ar
    13     3     2    1
    14     1     2    2
    15    18    13   ar
    16     2    10   am
    17    13    12    1
    18    10    11    1
    19    30    28    2
    20    12    11    1
    21    29    28    2
    22    11    19    1
    23    28    22    1
    24    28    31    1
    25    27    24    1
    26    22    23    1
    27    22    21    1
    28    19    21    1
    29    19    20    1
    30    31    36    2
    31    31    32    1
    32    36    35    1
    33    23    24    1
    34    24    25    1
    35    32    33    2
    36    26    25    1
    37    35    39    1
    38    35    34    1
    39    39    38    1
    40    33    34    1
    41    34    37    2
    42    38    37    1
