@<TRIPOS>MOLECULE
2qi5_MZ7_B_1.pdb
 40 42 0 0 0
SMALL
GASTEIGER

@<TRIPOS>ATOM
      1  O9        18.6240   33.2560   13.5970 O.2   200  MZ7200     -0.1567
      2  S8        18.1460   32.4480   14.6710 S.O2  200  MZ7200      0.0500
      3  O10       17.4000   31.3250   14.1640 O.2   200  MZ7200     -0.1567
      4  C5        17.2080   33.2970   15.6800 C.3   200  MZ7200      0.1903
      5  C6        16.2220   32.6100   16.3830 C.2   200  MZ7200      0.0046
      6  C7        15.3930   33.2710   17.2860 C.2   200  MZ7200      0.0167
      7  C4        17.3370   34.6760   15.9100 C.2   200  MZ7200      0.0107
      8  C3        16.4900   35.3510   16.8070 C.2   200  MZ7200      0.0420
      9  C2        15.5200   34.6350   17.5030 C.2   200  MZ7200      0.0822
     10  N1        14.8430   35.4600   18.3420 N.2   200  MZ7200     -0.2576
     11  S1        16.5660   37.0220   17.1350 S.3   200  MZ7200     -0.0861
     12  C1        15.2630   36.7470   18.2530 C.3   200  MZ7200      0.1873
     13  N11       19.4280   31.8300   15.4360 N.3   200  MZ7200     -0.1562
     14  C12       20.0930   32.8040   16.3140 C.3   200  MZ7200      0.0955
     15  C13       21.5970   32.5090   16.3670 C.3   200  MZ7200      0.0191
     16  C14       22.3430   33.6490   17.0670 C.3   200  MZ7200      0.0015
     17  C15       22.2900   35.0280   16.4010 C.3   200  MZ7200      0.0000
     18  C18       22.7110   34.9970   14.9460 C.3   200  MZ7200      0.0000
     19  C16       19.1400   30.5370   16.0960 C.3   200  MZ7200      0.1300
     20  C17       20.0510   29.4540   15.5080 C.3   200  MZ7200      0.1897
     21  O18       20.0530   28.3480   16.4180 O.3   200  MZ7200     -0.2197
     22  C19       19.6500   29.0060   14.0920 C.3   200  MZ7200      0.1314
     23  N20       20.7120   28.2390   13.4590 N.am  200  MZ7200     -0.2027
     24  C21       21.4930   28.6330   12.4470 C.2   200  MZ7200      0.2612
     25  O22       21.4830   29.7260   11.9150 O.2   200  MZ7200     -0.2715
     26  C22       22.4380   27.5660   11.9580 C.3   200  MZ7200      0.1726
     27  C23       23.8420   28.0730   11.6990 C.3   200  MZ7200      0.0290
     28  C25       24.7720   26.9320   11.2630 C.3   200  MZ7200      0.0023
     29  C24       24.3630   28.7670   12.9480 C.3   200  MZ7200      0.0023
     30  N26       21.9300   26.8710   10.7870 N.am  200  MZ7200     -0.1978
     31  C27       21.6850   25.5630   10.8050 C.2   200  MZ7200      0.2423
     32  O28       21.8350   24.8590   11.8050 O.2   200  MZ7200     -0.2733
     33  C29       21.2180   25.0190    9.4880 C.3   200  MZ7200      0.0964
     34  C32       18.3610   28.1810   14.0610 C.3   200  MZ7200      0.0506
     35  C38       17.9990   27.8080   12.6430 C.ar  200  MZ7200     -0.0204
     36  C33       18.2310   26.5150   12.1850 C.ar  200  MZ7200     -0.0042
     37  C34       17.9230   26.1670   10.8730 C.ar  200  MZ7200     -0.0003
     38  C35       17.3640   27.1070   10.0220 C.ar  200  MZ7200     -0.0000
     39  C36       17.1220   28.3990   10.4720 C.ar  200  MZ7200     -0.0003
     40  C37       17.4390   28.7450   11.7830 C.ar  200  MZ7200     -0.0042
@<TRIPOS>BOND
     1    33    31    1
     2    38    39   ar
     3    38    37   ar
     4    39    40   ar
     5    30    31   am
     6    30    26    1
     7    31    32    2
     8    37    36   ar
     9    28    27    1
    10    27    26    1
    11    27    29    1
    12    40    35   ar
    13    25    24    2
    14    26    24    1
    15    36    35   ar
    16    24    23   am
    17    35    34    1
    18    23    22    1
    19     1     2    2
    20    34    22    1
    21    22    20    1
    22     3     2    2
    23     2    13    1
    24     2     4    1
    25    18    17    1
    26    13    19    1
    27    13    14    1
    28    20    19    1
    29    20    21    1
    30     4     7    1
    31     4     5    1
    32     7     8    2
    33    14    15    1
    34    15    16    1
    35     5     6    2
    36    17    16    1
    37     8    11    1
    38     8     9    1
    39    11    12    1
    40     6     9    1
    41     9    10    2
    42    12    10    1
