@<TRIPOS>MOLECULE
2qi6_MZ8_A_1.pdb
 38 41 0 0 0
SMALL
GASTEIGER

@<TRIPOS>ATOM
      1  O9        18.7210   33.4810   13.7780 O.2   200  MZ8200     -0.1567
      2  S8        18.2190   32.6640   14.8350 S.O2  200  MZ8200      0.0500
      3  O10       17.4440   31.5890   14.2840 O.2   200  MZ8200     -0.1567
      4  C5        17.3360   33.5400   15.8980 C.3   200  MZ8200      0.1903
      5  C4        17.4880   34.9220   16.1480 C.2   200  MZ8200      0.0107
      6  C3        16.7060   35.6050   17.1110 C.2   200  MZ8200      0.0420
      7  S1        16.8070   37.2670   17.4970 S.3   200  MZ8200     -0.0861
      8  C1        15.5420   36.9760   18.6520 C.3   200  MZ8200      0.1873
      9  N1        15.1120   35.6960   18.7270 N.2   200  MZ8200     -0.2576
     10  C2        15.7570   34.8860   17.8460 C.2   200  MZ8200      0.0822
     11  C7        15.5950   33.5260   17.6090 C.2   200  MZ8200      0.0167
     12  C6        16.3590   32.8690   16.6450 C.2   200  MZ8200      0.0046
     13  N11       19.5460   32.0280   15.5330 N.3   200  MZ8200     -0.1562
     14  C12       20.3050   33.0090   16.3460 C.3   200  MZ8200      0.0955
     15  C13       21.8000   32.6630   16.3620 C.3   200  MZ8200      0.0177
     16  C14       22.4140   32.6170   14.9630 C.3   200  MZ8200      0.0015
     17  C15       22.5300   33.6430   17.2740 C.3   200  MZ8200      0.0015
     18  C16       19.2780   30.7630   16.2530 C.3   200  MZ8200      0.1300
     19  C17       20.0940   29.6050   15.6720 C.3   200  MZ8200      0.1897
     20  O18       20.0180   28.4520   16.5290 O.3   200  MZ8200     -0.2197
     21  C19       19.6190   29.2710   14.2680 C.3   200  MZ8200      0.1316
     22  C32       18.3030   28.4780   14.2000 C.3   200  MZ8200      0.0507
     23  C38       17.9430   28.1560   12.7560 C.ar  200  MZ8200     -0.0204
     24  C33       17.9810   26.8290   12.3090 C.ar  200  MZ8200     -0.0042
     25  C34       17.6780   26.5180   10.9930 C.ar  200  MZ8200     -0.0003
     26  C35       17.3230   27.5230   10.1020 C.ar  200  MZ8200     -0.0000
     27  C36       17.2850   28.8450   10.5340 C.ar  200  MZ8200     -0.0003
     28  C37       17.5920   29.1580   11.8600 C.ar  200  MZ8200     -0.0042
     29  N20       20.5600   28.4090   13.5660 N.am  200  MZ8200     -0.2004
     30  C21       21.4160   28.8060   12.6320 C.2   200  MZ8200      0.2649
     31  O22       21.5770   29.9590   12.2540 O.2   200  MZ8200     -0.2684
     32  C22       22.1820   27.7330   11.9320 C.ar  200  MZ8200      0.0582
     33  C23       21.4700   26.6080   11.5000 C.ar  200  MZ8200      0.0048
     34  C24       22.1020   25.5750   10.8090 C.ar  200  MZ8200      0.0034
     35  C25       23.4540   25.6830   10.5210 C.ar  200  MZ8200      0.0420
     36  C26       24.1510   26.8190   10.9330 C.ar  200  MZ8200      0.1959
     37  O27       25.4730   26.9220   10.6600 O.3   200  MZ8200     -0.2866
     38  C27       23.5260   27.8440   11.6340 C.ar  200  MZ8200      0.0466
@<TRIPOS>BOND
     1    26    27   ar
     2    26    25   ar
     3    35    34   ar
     4    35    36   ar
     5    27    28   ar
     6    37    36    1
     7    34    33   ar
     8    36    38   ar
     9    25    24   ar
    10    33    32   ar
    11    38    32   ar
    12    28    23   ar
    13    32    30    1
    14    31    30    2
    15    24    23   ar
    16    30    29   am
    17    23    22    1
    18    29    21    1
    19     1     2    2
    20    22    21    1
    21    21    19    1
    22     3     2    2
    23     2    13    1
    24     2     4    1
    25    16    15    1
    26    13    18    1
    27    13    14    1
    28    19    18    1
    29    19    20    1
    30     4     5    1
    31     4    12    1
    32     5     6    2
    33    14    15    1
    34    15    17    1
    35    12    11    2
    36     6     7    1
    37     6    10    1
    38     7     8    1
    39    11    10    1
    40    10     9    2
    41     8     9    1
