@<TRIPOS>MOLECULE
2qi7_MZ9_B_1.pdb
 37 38 0 0 0
SMALL
GASTEIGER

@<TRIPOS>ATOM
      1  O22       21.2560   29.8260   12.1740 O.2   200  MZ9200     -0.2733
      2  C21       21.2510   28.7280   12.7060 C.2   200  MZ9200      0.2418
      3  C22       22.2000   27.6750   12.1930 C.3   200  MZ9200      0.0946
      4  C23       21.7890   27.2340   10.7920 C.3   200  MZ9200      0.0741
      5  C24       21.5100   25.7500   10.6490 C.2   200  MZ9200      0.1511
      6  O25       21.8010   24.9340   11.5240 O.2   200  MZ9200     -0.2960
      7  C26       20.8560   25.3410    9.3460 C.3   200  MZ9200      0.0645
      8  C27       20.6960   23.8480    9.2000 C.3   200  MZ9200      0.0082
      9  N20       20.4650   28.3490   13.7160 N.am  200  MZ9200     -0.2042
     10  C19       19.4480   29.1810   14.3330 C.3   200  MZ9200      0.1313
     11  C32       18.1330   28.4020   14.3040 C.3   200  MZ9200      0.0506
     12  C38       17.8240   28.0230   12.8680 C.ar  200  MZ9200     -0.0204
     13  C37       17.4760   29.0010   11.9400 C.ar  200  MZ9200     -0.0042
     14  C36       17.2020   28.6500   10.6180 C.ar  200  MZ9200     -0.0003
     15  C35       17.2770   27.3170   10.2210 C.ar  200  MZ9200     -0.0000
     16  C34       17.6280   26.3430   11.1410 C.ar  200  MZ9200     -0.0003
     17  C33       17.9030   26.6880   12.4640 C.ar  200  MZ9200     -0.0042
     18  C17       19.8990   29.5950   15.7320 C.3   200  MZ9200      0.1897
     19  O18       19.8750   28.4780   16.6370 O.3   200  MZ9200     -0.2197
     20  C16       19.0660   30.7400   16.3150 C.3   200  MZ9200      0.1304
     21  N11       19.3420   31.9750   15.5460 N.3   200  MZ9200     -0.1529
     22  C12       20.0580   32.9990   16.3450 C.3   200  MZ9200      0.0958
     23  C13       21.5480   32.6740   16.4230 C.3   200  MZ9200      0.0178
     24  C14       22.2140   32.6040   15.0450 C.3   200  MZ9200      0.0015
     25  C15       22.2520   33.6640   17.3550 C.3   200  MZ9200      0.0014
     26  C18       22.1780   35.1020   16.8960 C.3   200  MZ9200      0.0000
     27  S8        18.0080   32.5870   14.8490 S.O2  200  MZ9200      0.0634
     28  O10       17.2180   31.5270   14.2910 O.2   200  MZ9200     -0.1528
     29  O9        18.4760   33.4340   13.7860 O.2   200  MZ9200     -0.1528
     30  C5        17.1370   33.4420   15.9060 C.ar  200  MZ9200      0.1224
     31  C6        17.3750   34.8050   16.0790 C.ar  200  MZ9200      0.0230
     32  C7        16.6490   35.5590   16.9960 C.ar  200  MZ9200      0.0383
     33  C4        16.1490   32.8390   16.6790 C.ar  200  MZ9200      0.0230
     34  C3        15.4140   33.5900   17.6040 C.ar  200  MZ9200      0.0383
     35  C2        15.6530   34.9500   17.7710 C.ar  200  MZ9200      0.1388
     36  O19       14.9060   35.6310   18.7060 O.3   200  MZ9200     -0.4714
     37  C20       14.9480   37.0510   18.9050 C.3   200  MZ9200      0.2525
@<TRIPOS>BOND
     1     8     7    1
     2     7     5    1
     3    15    14   ar
     4    15    16   ar
     5    14    13   ar
     6     5     4    1
     7     5     6    2
     8     4     3    1
     9    16    17   ar
    10    13    12   ar
    11     1     2    2
    12     3     2    1
    13    17    12   ar
    14     2     9   am
    15    12    11    1
    16     9    10    1
    17    29    27    2
    18    28    27    2
    19    11    10    1
    20    10    18    1
    21    27    21    1
    22    27    30    1
    23    24    23    1
    24    21    20    1
    25    21    22    1
    26    18    20    1
    27    18    19    1
    28    30    31   ar
    29    30    33   ar
    30    31    32   ar
    31    22    23    1
    32    23    25    1
    33    33    34   ar
    34    26    25    1
    35    32    35   ar
    36    34    35   ar
    37    35    36    1
    38    36    37    1
