@<TRIPOS>MOLECULE
2qie_8CS_A_1.pdb
 23 26 0 0 0
SMALL
GASTEIGER

@<TRIPOS>ATOM
      1  O4'       32.8930   43.6310   28.2130 O.2   501  8CS501     -0.2063
      2  C4'       32.9220   44.2690   27.1360 C.1   501  8CS501      0.2441
      3  C4A       31.7900   44.3590   26.3280 C.2   501  8CS501      0.2468
      4  N5'       30.5790   43.7520   26.6760 N.2   501  8CS501     -0.2384
      5  N3'       34.0680   44.8800   26.7370 N.2   501  8CS501     -0.2474
      6  C2'       34.1100   45.5700   25.5630 C.1   501  8CS501      0.2608
      7  N2'       35.2600   46.1730   25.1820 N.pl3 501  8CS501     -0.0220
      8  N1'       33.0100   45.6600   24.7730 N.2   501  8CS501     -0.2682
      9  C4B       31.8530   45.0590   25.1410 C.1   501  8CS501      0.1293
     10  N8'       30.7130   45.1500   24.3330 N.2   501  8CS501     -0.1762
     11  C7        29.4750   44.5700   24.6840 C.3   501  8CS501      0.2597
     12  C6'       29.6450   43.4150   25.6860 C.3   501  8CS501      0.2154
     13  C7'       28.3310   43.0550   26.3330 C.2   501  8CS501      0.2070
     14  O10       28.0540   41.9050   26.6230 O.2   501  8CS501     -0.2912
     15  C8'       27.3390   44.1210   26.6580 C.3   501  8CS501      0.2101
     16  O3        27.6850   44.6350   27.9420 O.3   501  8CS501     -0.3063
     17  O9'       28.6680   45.6070   25.2300 O.3   501  8CS501     -0.3291
     18  C9'       27.3420   45.2070   25.5780 C.3   501  8CS501      0.1819
     19  C10       26.5490   46.4320   26.0350 C.3   501  8CS501      0.1815
     20  O1        27.0310   46.8790   27.2980 O.3   501  8CS501     -0.3113
     21  P         26.9020   45.8950   28.5530 P.3   501  8CS501      0.2145
     22  O2        25.4490   45.5320   28.7020 O.2   501  8CS501     -0.5172
     23  O4        27.7110   46.4310   29.7170 O.3   501  8CS501     -0.4373
@<TRIPOS>BOND
     1    10    11    1
     2    10     9    2
     3    11    17    1
     4    11    12    1
     5     8     9    2
     6     8     6    2
     7     9     3    1
     8     7     6    1
     9    17    18    1
    10     6     5    2
    11    18    19    1
    12    18    15    1
    13    12    13    1
    14    12     4    1
    15    19    20    1
    16     3     4    2
    17     3     2    1
    18    13    14    2
    19    13    15    1
    20    15    16    1
    21     5     2    2
    22     2     1    2
    23    20    21    1
    24    16    21    1
    25    21    22    2
    26    21    23    1
