@<TRIPOS>MOLECULE
2qii_PQ0_A_1.pdb
 13 14 0 0 0
SMALL
GASTEIGER

@<TRIPOS>ATOM
      1  N1        16.5760   16.5070   23.7120 N.2   500  PQ0500     -0.2525
      2  C2        15.4110   15.9860   23.3310 C.1   500  PQ0500      0.2602
      3  N3        15.1390   15.7700   22.0880 N.2   500  PQ0500     -0.2733
      4  C4        16.0950   16.0900   21.0590 C.1   500  PQ0500      0.0984
      5  C5        17.2650   16.6100   21.3900 C.3   500  PQ0500      0.2491
      6  C6        17.5510   16.7300   22.8290 C.1   500  PQ0500      0.2111
      7  O6        18.5970   17.3110   23.1120 O.2   500  PQ0500     -0.2120
      8  C7        17.9220   16.7830   20.0920 C.2   500  PQ0500      0.0975
      9  C10       19.2270   17.3110   19.8180 C.1   500  PQ0500      0.0999
     10  N11       20.2990   17.7630   19.8120 N.1   500  PQ0500     -0.1910
     11  C8        17.0630   16.3450   19.1540 C.2   500  PQ0500      0.1183
     12  N9        15.9860   15.9410   19.7720 N.2   500  PQ0500     -0.1837
     13  N2        14.4730   15.6610   24.2030 N.pl3 500  PQ0500     -0.0221
@<TRIPOS>BOND
     1    11    12    1
     2    11     8    2
     3    12     4    2
     4    10     9    3
     5     9     8    1
     6     8     5    1
     7     4     5    1
     8     4     3    2
     9     5     6    1
    10     3     2    2
    11     6     7    2
    12     6     1    2
    13     2     1    2
    14     2    13    1
