@<TRIPOS>MOLECULE
2qim_ZEA_A_1.pdb
 16 17 0 0 0
SMALL
GASTEIGER

@<TRIPOS>ATOM
      1  O16       65.1290   52.8040    3.7770 O.3   159  ZEA159     -0.2155
      2  C14       63.6710   52.9130    3.7210 C.3   159  ZEA159      0.2042
      3  C13       63.1440   52.1700    2.4950 C.2   159  ZEA159     -0.0115
      4  C15       61.6420   52.5040    2.3030 C.3   159  ZEA159      0.0288
      5  C12       63.8680   51.3960    1.6910 C.2   159  ZEA159      0.0226
      6  C11       63.2670   50.7290    0.4450 C.3   159  ZEA159      0.2771
      7  N10       63.4280   51.7400   -0.6220 N.pl3 159  ZEA159     -0.0246
      8  C6        63.5010   51.4410   -1.9510 C.2   159  ZEA159      0.3858
      9  C5        63.6450   52.4790   -2.8880 C.2   159  ZEA159      0.2255
     10  N9        63.7450   53.8460   -2.7980 N.2   159  ZEA159     -0.2268
     11  C4        63.7100   52.0890   -4.2390 C.1   159  ZEA159      0.0578
     12  N7        63.8690   53.2600   -4.9910 N.2   159  ZEA159     -0.1914
     13  C8        63.8830   54.2850   -4.0970 C.3   159  ZEA159      0.2618
     14  N3        63.6530   50.8090   -4.6360 N.2   159  ZEA159     -0.1640
     15  C2        63.5260   49.9490   -3.6430 C.3   159  ZEA159      0.4006
     16  N1        63.4510   50.1610   -2.3280 N.2   159  ZEA159     -0.0304
@<TRIPOS>BOND
     1    12    11    2
     2    12    13    1
     3    14    11    2
     4    14    15    1
     5    11     9    1
     6    13    10    1
     7    15    16    1
     8     9    10    2
     9     9     8    1
    10    16     8    2
    11     8     7    1
    12     7     6    1
    13     6     5    1
    14     5     3    2
    15     4     3    1
    16     3     2    1
    17     2     1    1
