@<TRIPOS>MOLECULE
2qio_NAD_A_1.pdb
 44 48 0 0 0
SMALL
GASTEIGER

@<TRIPOS>ATOM
      1  PA        30.6740   55.5410   85.1930 P.3   501  NAD501      0.2189
      2  O1A       29.4140   55.7890   84.4320 O.2   501  NAD501     -0.5170
      3  O2A       30.5970   55.3310   86.6390 O.3   501  NAD501     -0.4371
      4  O5B       31.7370   56.7300   85.0230 O.3   501  NAD501     -0.3112
      5  C5B       31.7960   57.5120   83.7940 C.3   501  NAD501      0.1813
      6  C4B       32.0660   58.9330   84.3040 C.3   501  NAD501      0.1821
      7  O4B       32.2840   59.8520   83.1920 O.3   501  NAD501     -0.3135
      8  C3B       30.8440   59.4620   85.0940 C.3   501  NAD501      0.2184
      9  O3B       31.2050   59.9270   86.3900 O.3   501  NAD501     -0.2174
     10  C2B       30.2980   60.5750   84.2130 C.3   501  NAD501      0.2570
     11  O2B       29.6750   61.4620   85.1320 O.3   501  NAD501     -0.2130
     12  C1B       31.6080   61.0300   83.5970 C.3   501  NAD501      0.3186
     13  N9A       31.4640   61.9360   82.4660 N.pl3 501  NAD501     -0.1439
     14  C8A       30.8420   61.7900   81.2770 C.3   501  NAD501      0.3377
     15  N7A       30.8680   62.9470   80.5940 N.2   501  NAD501     -0.2095
     16  C5A       31.5340   63.7800   81.4220 C.2   501  NAD501      0.2526
     17  C6A       31.8340   65.1530   81.2330 C.2   501  NAD501      0.4393
     18  N6A       31.4670   65.7600   80.1340 N.pl3 501  NAD501      0.2180
     19  N1A       32.5160   65.8230   82.2300 N.2   501  NAD501      0.0021
     20  C2A       32.9000   65.1740   83.3710 C.3   501  NAD501      0.5254
     21  N3A       32.6250   63.8660   83.5670 N.2   501  NAD501     -0.0055
     22  C4A       31.9290   63.1620   82.5900 C.2   501  NAD501      0.3518
     23  O3        31.4350   54.3230   84.4460 O.3   501  NAD501     -0.2703
     24  PN        32.8560   53.6370   84.7250 P.3   501  NAD501      0.2189
     25  O1N       32.7960   52.3220   84.1400 O.2   501  NAD501     -0.5170
     26  O2N       33.1690   53.7660   86.1850 O.3   501  NAD501     -0.4371
     27  O5D       33.8560   54.4850   83.8090 O.3   501  NAD501     -0.3112
     28  C5D       34.9100   55.2690   84.3400 C.3   501  NAD501      0.1813
     29  C4D       36.0090   55.2180   83.3190 C.3   501  NAD501      0.1799
     30  O4D       36.4980   53.8760   83.3120 O.3   501  NAD501     -0.3327
     31  C3D       35.7020   55.4430   81.8350 C.3   501  NAD501      0.2158
     32  O3D       36.8220   56.0560   81.1300 O.3   501  NAD501     -0.2175
     33  C2D       35.5060   54.0570   81.2560 C.3   501  NAD501      0.2309
     34  O2D       35.6480   53.9690   79.8290 O.3   501  NAD501     -0.2158
     35  C1D       36.5560   53.3300   81.9550 C.3   501  NAD501      0.2263
     36  N1N       36.4170   51.8650   81.8760 N.pl3 501  NAD501     -0.2787
     37  C2N       35.2290   51.1810   82.3680 C.3   501  NAD501      0.1244
     38  C3N       35.1660   49.7540   82.3160 C.2   501  NAD501      0.0544
     39  C7N       33.9270   48.9960   82.8500 C.2   501  NAD501      0.2818
     40  O7N       33.7880   47.7980   82.5690 O.2   501  NAD501     -0.2670
     41  N7N       33.0090   49.6500   83.5820 N.am  501  NAD501     -0.0839
     42  C4N       36.2740   49.0510   81.7690 C.2   501  NAD501      0.0033
     43  C5N       37.4200   49.7180   81.2870 C.2   501  NAD501      0.0157
     44  C6N       37.4980   51.1060   81.3430 C.2   501  NAD501      0.0633
@<TRIPOS>BOND
     1    34    33    1
     2    18    17    1
     3    15    14    1
     4    15    16    2
     5    32    31    1
     6    17    16    1
     7    17    19    2
     8    33    31    1
     9    33    35    1
    10    14    13    1
    11    43    44    2
    12    43    42    1
    13    44    36    1
    14    16    22    1
    15    42    38    2
    16    31    29    1
    17    36    35    1
    18    36    37    1
    19    35    30    1
    20    19    20    1
    21    38    37    1
    22    38    39    1
    23    13    22    1
    24    13    12    1
    25    40    39    2
    26    22    21    2
    27    39    41   am
    28     7    12    1
    29     7     6    1
    30    30    29    1
    31    29    28    1
    32    20    21    1
    33    12    10    1
    34     5     6    1
    35     5     4    1
    36    27    28    1
    37    27    24    1
    38    25    24    2
    39    10     8    1
    40    10    11    1
    41     6     8    1
    42     2     1    2
    43    23    24    1
    44    23     1    1
    45    24    26    1
    46     4     1    1
    47     8     9    1
    48     1     3    1
