@<TRIPOS>MOLECULE
2qio_TCL_A_1.pdb
 17 18 0 0 0
SMALL
GASTEIGER

@<TRIPOS>ATOM
      1  C1        34.2580   49.4230   78.7550 C.ar  601  TCL601      0.0566
      2  C2        33.3180   48.4470   79.2230 C.ar  601  TCL601      0.0611
      3  C6        34.0080   50.8380   78.9900 C.ar  601  TCL601      0.2307
      4  C5        32.8490   51.2460   79.6750 C.ar  601  TCL601      0.1840
      5  C4        31.9140   50.2770   80.1420 C.ar  601  TCL601      0.0417
      6  C3        32.1480   48.8750   79.9120 C.ar  601  TCL601      0.0147
      7  C11       30.0840   54.9680   77.3890 C.ar  601  TCL601      0.0587
      8  C10       30.7100   55.5450   78.5580 C.ar  601  TCL601      0.0259
      9  C9        31.5610   54.7510   79.3880 C.ar  601  TCL601      0.0929
     10  C8        31.7840   53.3600   79.0480 C.ar  601  TCL601      0.1559
     11  C12       30.3120   53.5960   77.0470 C.ar  601  TCL601      0.0146
     12  C13       31.1500   52.7960   77.8650 C.ar  601  TCL601      0.0392
     13  O7        32.6110   52.6020   79.9050 O.3   601  TCL601     -0.4494
     14 CL14       33.5800   46.7970   78.9700 Cl    601  TCL601     -0.0821
     15 CL15       29.0680   55.9150   76.4170 Cl    601  TCL601     -0.0822
     16 CL16       32.2880   55.4740   80.8000 Cl    601  TCL601     -0.0790
     17  O17       34.8730   51.8010   78.5620 O.3   601  TCL601     -0.2833
@<TRIPOS>BOND
     1    15     7    1
     2    11     7   ar
     3    11    12   ar
     4     7     8   ar
     5    12    10   ar
     6     8     9   ar
     7    17     3    1
     8     1     3   ar
     9     1     2   ar
    10    14     2    1
    11     3     4   ar
    12    10     9   ar
    13    10    13    1
    14     2     6   ar
    15     9    16    1
    16     4    13    1
    17     4     5   ar
    18     6     5   ar
