@<TRIPOS>MOLECULE
2qir_COA_A_1.pdb
 48 50 0 0 0
SMALL
GASTEIGER

@<TRIPOS>ATOM
      1  N1A        2.5310   -1.9780  -22.3370 N.2   197  COA197      0.0021
      2  C2A        2.8620   -1.5870  -23.6210 C.3   197  COA197      0.5254
      3  N3A        2.1370   -0.5820  -24.2410 N.2   197  COA197     -0.0055
      4  C4A        1.0990    0.0320  -23.6100 C.2   197  COA197      0.3518
      5  C5A        0.7500   -0.3440  -22.3140 C.2   197  COA197      0.2526
      6  C6A        1.4780   -1.3620  -21.6750 C.2   197  COA197      0.4393
      7  N6A        1.2500   -1.6790  -20.3980 N.pl3 197  COA197      0.2180
      8  N7A       -0.3040    0.4220  -21.9390 N.2   197  COA197     -0.2095
      9  C8A       -0.6220    1.2590  -22.9610 C.3   197  COA197      0.3377
     10  N9A        0.2460    1.0390  -24.0090 N.pl3 197  COA197     -0.1439
     11  C1B        0.4810    1.9200  -25.1850 C.3   197  COA197      0.3185
     12  C2B       -0.7900    2.2070  -25.9740 C.3   197  COA197      0.2543
     13  O2B       -1.0700    1.1460  -26.8590 O.3   197  COA197     -0.2131
     14  C3B       -0.4980    3.5320  -26.6760 C.3   197  COA197      0.1928
     15  O3B        0.0510    3.3910  -27.9720 O.3   197  COA197     -0.2673
     16  P3B       -0.7360    2.9580  -29.3200 P.3   197  COA197      0.5327
     17  O7A       -1.3110    4.1800  -30.0100 O.3   197  COA197     -0.1145
     18  O8A       -1.8670    2.0030  -28.9970 O.3   197  COA197     -0.1145
     19  O9A        0.2700    2.2790  -30.2300 O.2   197  COA197     -0.2224
     20  C4B        0.6040    4.1600  -25.8280 C.3   197  COA197      0.1795
     21  O4B        1.0040    3.1990  -24.8550 O.3   197  COA197     -0.3136
     22  C5B        0.1790    5.4540  -25.1540 C.3   197  COA197      0.1812
     23  O5B       -0.4570    6.3410  -26.0500 O.3   197  COA197     -0.3112
     24  P1A       -1.3160    7.5910  -25.4870 P.3   197  COA197      0.2189
     25  O1A       -2.7980    7.2830  -25.5290 O.3   197  COA197     -0.4371
     26  O2A       -0.9900    8.8590  -26.2430 O.2   197  COA197     -0.5170
     27  O3A       -0.7890    7.6820  -23.9700 O.3   197  COA197     -0.2703
     28  P2A       -1.6340    8.3320  -22.7700 P.3   197  COA197      0.2188
     29  O4A       -2.8110    9.1110  -23.3160 O.2   197  COA197     -0.5170
     30  O5A       -2.0690    7.2660  -21.7840 O.3   197  COA197     -0.4371
     31  O6A       -0.5360    9.3090  -22.1090 O.3   197  COA197     -0.3138
     32  CBP        0.8500    9.3030  -20.1040 C.3   197  COA197      0.0645
     33  CCP        0.6530    8.7970  -21.5360 C.3   197  COA197      0.1519
     34  CDP        2.1850    8.7140  -19.6240 C.3   197  COA197      0.0056
     35  CEP        0.9610   10.8290  -20.1370 C.3   197  COA197      0.0056
     36  CAP       -0.3520    8.8530  -19.2310 C.3   197  COA197      0.2312
     37  OAP       -0.7060    7.5080  -19.4840 O.3   197  COA197     -0.2131
     38  C9P       -0.2280    9.1080  -17.7450 C.2   197  COA197      0.2719
     39  O9P       -0.4650   10.3970  -17.2400 O.2   197  COA197     -0.2706
     40  N8P        0.0930    8.0880  -16.9370 N.am  197  COA197     -0.2028
     41  C7P        0.1220    8.2110  -15.4820 C.3   197  COA197      0.1248
     42  C6P        1.3690    8.9130  -14.9230 C.3   197  COA197      0.1102
     43  C5P        2.6180    8.6870  -15.7630 C.2   197  COA197      0.2432
     44  O5P        3.0060    7.5490  -16.0800 O.2   197  COA197     -0.2733
     45  N4P        3.2940    9.7660  -16.1410 N.am  197  COA197     -0.2044
     46  C3P        4.4760    9.6410  -16.9700 C.3   197  COA197      0.1276
     47  C2P        5.7410    9.5460  -16.1310 C.3   197  COA197      0.0920
     48  S1P        7.2010    9.2770  -17.1770 S.3   197  COA197     -0.0802
@<TRIPOS>BOND
     1    19    16    2
     2    17    16    1
     3    16    18    1
     4    16    15    1
     5    15    14    1
     6    13    12    1
     7    14    12    1
     8    14    20    1
     9    26    24    2
    10    23    24    1
    11    23    22    1
    12    12    11    1
    13    20    22    1
    14    20    21    1
    15    25    24    1
    16    24    27    1
    17    11    21    1
    18    11    10    1
    19     3     2    1
    20     3     4    2
    21    10     4    1
    22    10     9    1
    23    27    28    1
    24     2     1    1
    25     4     5    1
    26    29    28    2
    27     9     8    1
    28    28    31    1
    29    28    30    1
    30     1     6    2
    31     5     8    2
    32     5     6    1
    33    31    33    1
    34     6     7    1
    35    33    32    1
    36    35    32    1
    37    32    34    1
    38    32    36    1
    39    37    36    1
    40    36    38    1
    41    38    39    2
    42    38    40   am
    43    48    47    1
    44    46    45    1
    45    46    47    1
    46    40    41    1
    47    45    43   am
    48    44    43    2
    49    43    42    1
    50    41    42    1
