@<TRIPOS>MOLECULE
2qir_9CS_A_1.pdb
 33 35 0 0 0
SMALL
GASTEIGER

@<TRIPOS>ATOM
      1  C1         9.3650   13.6870  -11.5700 C.3   501  9CS501      0.2561
      2  C2         8.7130   13.1620  -10.2720 C.3   501  9CS501      0.1807
      3  C3         8.7040   11.6180  -10.2700 C.3   501  9CS501      0.2070
      4  C4         7.9820   11.0760  -11.5130 C.3   501  9CS501      0.2122
      5  C5         8.5570   11.7420  -12.7700 C.3   501  9CS501      0.1696
      6  C6         7.6420   11.3500  -13.9140 C.3   501  9CS501      0.1415
      7  C7        14.2990   15.2510  -13.0190 C.3   501  9CS501      0.1231
      8  C8        13.2800   16.1140  -12.2480 C.3   501  9CS501      0.1680
      9  C9        12.2050   15.2410  -11.5510 C.3   501  9CS501      0.2088
     10  C10       11.5830   14.1840  -12.4930 C.3   501  9CS501      0.1680
     11  C11       12.6490   13.4100  -13.3030 C.3   501  9CS501      0.1231
     12  C12       13.6040   14.3540  -14.0420 C.3   501  9CS501      0.0432
     13  C13       13.6880   18.1460  -11.0390 C.3   501  9CS501      0.2684
     14  C14       14.9950   18.9090  -10.7710 C.3   501  9CS501      0.2279
     15  C15       15.6780   18.3690   -9.5100 C.3   501  9CS501      0.1599
     16  C16       14.7380   18.4010   -8.2870 C.3   501  9CS501      0.2017
     17  C17       13.3140   17.8760   -8.6250 C.3   501  9CS501      0.1824
     18  C18       12.2830   18.2550   -7.5420 C.3   501  9CS501      0.2142
     19  N1         8.4280   11.2570  -15.1450 N.3   501  9CS501     -0.1286
     20  N2        12.0060   12.5460  -14.2990 N.3   501  9CS501     -0.1302
     21  N3        15.3280   16.0650  -13.6700 N.3   501  9CS501     -0.1302
     22  N4        16.8730   19.1660   -9.2110 N.3   501  9CS501     -0.1272
     23  O5         8.5940   13.1990  -12.6710 O.3   501  9CS501     -0.3276
     24  O7         8.0930   11.1250   -9.0860 O.3   501  9CS501     -0.2186
     25  O8         8.1400    9.6590  -11.6150 O.3   501  9CS501     -0.2177
     26  O9        10.7760   13.2720  -11.7050 O.3   501  9CS501     -0.3277
     27  O10       11.1670   16.0680  -11.0150 O.3   501  9CS501     -0.2178
     28  O11       14.0130   16.7440  -11.2180 O.3   501  9CS501     -0.3269
     29  O12       12.7670   18.3580   -9.9200 O.3   501  9CS501     -0.3257
     30  O13       15.8570   18.7880  -11.9080 O.3   501  9CS501     -0.2161
     31  O14       15.3330   17.6550   -7.2010 O.3   501  9CS501     -0.2188
     32  O15       11.3670   17.1650   -7.3990 O.3   501  9CS501     -0.2176
     33  N6         9.4060   13.6530   -9.1120 N.3   501  9CS501     -0.1248
@<TRIPOS>BOND
     1    19     6    1
     2    20    11    1
     3    12    11    1
     4    12     7    1
     5     6     5    1
     6    21     7    1
     7    11    10    1
     8     7     8    1
     9     5    23    1
    10     5     4    1
    11    23     1    1
    12    10    26    1
    13    10     9    1
    14     8     9    1
    15     8    28    1
    16    30    14    1
    17    26     1    1
    18    25     4    1
    19     1     2    1
    20     9    27    1
    21     4     3    1
    22    28    13    1
    23    13    14    1
    24    13    29    1
    25    14    15    1
    26     2     3    1
    27     2    33    1
    28     3    24    1
    29    29    17    1
    30    15    22    1
    31    15    16    1
    32    17    16    1
    33    17    18    1
    34    16    31    1
    35    18    32    1
