@<TRIPOS>MOLECULE
2qis_RIS_A_1.pdb
 17 17 0 0 0
SMALL
GASTEIGER

@<TRIPOS>ATOM
      1  O12       16.9580   35.7900   -6.9700 O.3   901  RIS901     -0.3553
      2  P9        15.5840   35.7770   -7.6080 P.3   901  RIS901      0.1514
      3  O11       15.3860   36.9470   -8.5970 O.2   901  RIS901     -0.4572
      4  O10       14.4610   35.7910   -6.6310 O.3   901  RIS901     -0.3553
      5  C8        15.3540   34.2390   -8.5860 C.3   901  RIS901      0.2200
      6  O13       14.0590   34.2550   -9.2300 O.3   901  RIS901     -0.2105
      7  P14       16.6110   34.0770   -9.8900 P.3   901  RIS901      0.1514
      8  O16       16.5070   35.3690  -10.6880 O.3   901  RIS901     -0.3553
      9  O15       17.9270   33.9130   -9.1420 O.3   901  RIS901     -0.3553
     10  O17       16.3890   32.8470  -10.7620 O.2   901  RIS901     -0.4572
     11  C7        15.3200   33.1030   -7.5390 C.3   901  RIS901      0.0725
     12  C2        15.1060   31.6770   -8.0590 C.ar  901  RIS901      0.0004
     13  C1        15.8540   30.6950   -7.4340 C.ar  901  RIS901     -0.0010
     14  C6        15.7150   29.3670   -7.8280 C.ar  901  RIS901      0.0204
     15  C5        14.8490   29.0560   -8.8410 C.ar  901  RIS901      0.0989
     16  N4        14.1520   30.0090   -9.4700 N.ar  901  RIS901     -0.2426
     17  C3        14.2450   31.2990   -9.1010 C.ar  901  RIS901      0.0947
@<TRIPOS>BOND
     1    10     7    2
     2     8     7    1
     3     7     9    1
     4     7     5    1
     5    16    17   ar
     6    16    15   ar
     7     6     5    1
     8    17    12   ar
     9    15    14   ar
    10     3     2    2
    11     5     2    1
    12     5    11    1
    13    12    11    1
    14    12    13   ar
    15    14    13   ar
    16     2     1    1
    17     2     4    1
