@<TRIPOS>MOLECULE
2qje_BAD_A_1.pdb
 32 34 0 0 0
SMALL
GASTEIGER

@<TRIPOS>ATOM
      1  C1        17.0960   20.8940   15.8360 C.ar  695  BAD695     -0.0002
      2  C2        16.0420   20.3290   15.1280 C.ar  695  BAD695     -0.0019
      3  C3        15.6710   19.0050   15.3440 C.ar  695  BAD695      0.0061
      4  C4        16.3750   18.2540   16.2820 C.ar  695  BAD695     -0.0019
      5  C5        17.4280   18.8140   16.9920 C.ar  695  BAD695     -0.0002
      6  C6        17.7900   20.1360   16.7690 C.ar  695  BAD695     -0.0000
      7  C13       14.5310   18.3930   14.5730 C.3   695  BAD695      0.1590
      8  C15       15.0440   17.6500   13.3300 C.3   695  BAD695      0.1433
      9  N17       15.7370   18.5200   12.3850 N.3   695  BAD695     -0.1283
     10  O19       13.8550   17.4810   15.4170 O.3   695  BAD695     -0.3250
     11  C21       12.4450   17.4790   15.3420 C.3   695  BAD695      0.2697
     12  O23       12.0670   17.4310   13.9760 O.3   695  BAD695     -0.3257
     13  C25       11.2570   16.3570   13.5400 C.3   695  BAD695      0.1802
     14  C27       10.0150   16.3400   14.4380 C.3   695  BAD695      0.2143
     15  C29       11.9080   16.2850   16.1560 C.3   695  BAD695      0.2406
     16  C31       10.4190   16.0030   15.8920 C.3   695  BAD695      0.2198
     17  C34       10.9390   16.5910   12.0620 C.3   695  BAD695      0.1770
     18  O36       12.1550   16.5720   11.3410 O.3   695  BAD695     -0.3259
     19  C38       12.1460   17.1370   10.0480 C.3   695  BAD695      0.2695
     20  O40       13.4980   17.3990    9.7230 O.3   695  BAD695     -0.3256
     21  C42       13.7240   17.9890    8.4570 C.3   695  BAD695      0.1835
     22  C44       13.2080   17.0430    7.3640 C.3   695  BAD695      0.2144
     23  C46       11.7280   16.7540    7.6140 C.3   695  BAD695      0.2198
     24  C48       11.5530   16.1580    9.0170 C.3   695  BAD695      0.2406
     25  O51       12.0980   16.4120   17.5500 O.3   695  BAD695     -0.2149
     26  O53        9.7210   16.8100   16.8310 O.3   695  BAD695     -0.2174
     27  O55        9.0520   15.4250   13.9450 O.3   695  BAD695     -0.2176
     28  O57       10.1720   15.9480    9.2650 O.3   695  BAD695     -0.2149
     29  O59       11.3210   15.8700    6.5840 O.3   695  BAD695     -0.2174
     30  O61       13.3450   17.6180    6.0800 O.3   695  BAD695     -0.2176
     31  C63       15.2300   18.2430    8.3590 C.3   695  BAD695      0.2142
     32  O65       15.7030   18.8090    9.5670 O.3   695  BAD695     -0.2176
@<TRIPOS>BOND
     1    30    22    1
     2    29    23    1
     3    22    23    1
     4    22    21    1
     5    23    24    1
     6    31    21    1
     7    31    32    1
     8    21    20    1
     9    24    28    1
    10    24    19    1
    11    20    19    1
    12    19    18    1
    13    18    17    1
    14    17    13    1
    15     9     8    1
    16     8     7    1
    17    13    12    1
    18    13    14    1
    19    27    14    1
    20    12    11    1
    21    14    16    1
    22     7     3    1
    23     7    10    1
    24     2     3   ar
    25     2     1   ar
    26    11    10    1
    27    11    15    1
    28     3     4   ar
    29     1     6   ar
    30    16    15    1
    31    16    26    1
    32    15    25    1
    33     4     5   ar
    34     6     5   ar
