@<TRIPOS>MOLECULE
2qjf_ADX_A_1.pdb
 27 29 0 0 0
SMALL
GASTEIGER

@<TRIPOS>ATOM
      1  SB        32.3280   59.8230   15.5500 S.3   100  ADX100      0.0049
      2  O1B       31.6740   60.5640   14.4630 O.2   100  ADX100     -0.3449
      3  O2B       31.9910   60.4290   16.8490 O.3   100  ADX100     -0.2679
      4  O3B       31.8720   58.4260   15.5810 O.2   100  ADX100     -0.3449
      5  PA        35.0070   60.9280   15.6310 P.3   100  ADX100      0.2383
      6  O1A       35.2200   61.1230   17.1130 O.3   100  ADX100     -0.4361
      7  O2A       36.1950   60.5310   14.7770 O.2   100  ADX100     -0.5161
      8  O3A       33.9350   59.7700   15.3420 O.3   100  ADX100     -0.1945
      9  O5'       34.3790   62.2610   14.9920 O.3   100  ADX100     -0.3089
     10  C5'       33.5720   63.1920   15.7150 C.3   100  ADX100      0.1957
     11  C4'       33.1600   64.3240   14.7580 C.3   100  ADX100      0.2372
     12  O4'       34.3610   64.7990   14.1320 O.2   100  ADX100     -0.4420
     13  C3'       32.2100   63.9180   13.6140 C.3   100  ADX100      0.2620
     14  O3'       31.2000   64.8680   13.3630 O.3   100  ADX100     -0.2105
     15  C2'       33.1180   63.8940   12.4300 C.2   100  ADX100      0.2803
     16  O2'       32.7020   63.4460   11.2530 O.2   100  ADX100     -0.2813
     17  C1'       34.3050   64.4190   12.7350 C.2   100  ADX100      0.3291
     18  N9        35.4640   64.4730   12.0230 N.pl3 100  ADX100     -0.1135
     19  C8        36.4210   63.6110   12.4290 C.3   100  ADX100      0.3431
     20  N7        37.5150   63.8240   11.6510 N.2   100  ADX100     -0.2092
     21  C5        37.2130   64.8260   10.7910 C.2   100  ADX100      0.2530
     22  C6        37.9020   65.4960    9.7900 C.2   100  ADX100      0.4393
     23  N6        39.1820   65.1310    9.5240 N.pl3 100  ADX100      0.2180
     24  N1        37.3030   66.4800    9.0750 N.2   100  ADX100      0.0021
     25  C2        36.0410   66.8560    9.3160 C.3   100  ADX100      0.5254
     26  N3        35.2960   66.2690   10.2720 N.2   100  ADX100     -0.0051
     27  C4        35.9180   65.2220   11.0320 C.2   100  ADX100      0.3567
@<TRIPOS>BOND
     1    24    25    1
     2    24    22    2
     3    25    26    1
     4    23    22    1
     5    22    21    1
     6    26    27    2
     7    21    27    1
     8    21    20    2
     9    27    18    1
    10    16    15    1
    11    20    19    1
    12    18    19    1
    13    18    17    1
    14    15    17    2
    15    15    13    1
    16    17    12    1
    17    14    13    1
    18    13    11    1
    19    12    11    1
    20     2     1    2
    21    11    10    1
    22     7     5    2
    23     9     5    1
    24     9    10    1
    25     8     1    1
    26     8     5    1
    27     1     4    2
    28     1     3    1
    29     5     6    1
