@<TRIPOS>MOLECULE
2qjg_F2P_A_1.pdb
 19 18 0 0 0
SMALL
GASTEIGER

@<TRIPOS>ATOM
      1  P1       104.5600   45.0920  117.8110 P.3   501  F2P501      0.5327
      2  O1       104.9060   46.4640  117.0430 O.3   501  F2P501     -0.2674
      3  C1       105.4500   46.4260  115.7210 C.3   501  F2P501      0.1892
      4  C2       104.3900   45.9980  114.7050 C.3   501  F2P501      0.2146
      5  O2       103.3840   47.0110  114.6090 O.3   501  F2P501     -0.2176
      6  C3       105.0130   45.7660  113.3270 C.3   501  F2P501      0.2148
      7  O3       105.9600   44.6970  113.4060 O.3   501  F2P501     -0.2176
      8  C4       103.9410   45.4230  112.2910 C.3   501  F2P501      0.1873
      9  O4       103.0700   44.4190  112.8200 O.3   501  F2P501     -0.2202
     10  C5       104.6090   44.8990  111.0180 C.3   501  F2P501      0.0683
     11  C6       105.8460   45.6050  110.4580 C.3   501  F2P501      0.1565
     12  O6       105.9240   46.9520  110.9290 O.3   501  F2P501     -0.2702
     13  O11      103.1060   44.6460  117.2840 O.3   501  F2P501     -0.1145
     14  O12      105.5920   43.9950  117.2410 O.2   501  F2P501     -0.2224
     15  O13      104.6210   45.2270  119.2840 O.3   501  F2P501     -0.1145
     16  P6       107.1750   47.8780  110.5150 P.3   501  F2P501      0.5326
     17  O61      108.4620   47.2270  111.2300 O.3   501  F2P501     -0.1145
     18  O62      106.9350   49.2950  111.2420 O.3   501  F2P501     -0.1145
     19  O63      107.3350   48.0050  109.0490 O.2   501  F2P501     -0.2224
@<TRIPOS>BOND
     1    19    16    2
     2    11    12    1
     3    11    10    1
     4    16    12    1
     5    16    17    1
     6    16    18    1
     7    10     8    1
     8     8     9    1
     9     8     6    1
    10     6     7    1
    11     6     4    1
    12     5     4    1
    13     4     3    1
    14     3     2    1
    15     2     1    1
    16    14     1    2
    17    13     1    1
    18     1    15    1
