@<TRIPOS>MOLECULE
2qjk_LOP_A_1.pdb
 45 44 0 0 0
SMALL
GASTEIGER

@<TRIPOS>ATOM
      1  N1        80.2380  116.4540  123.7330 N.3   503  LOP503     -0.1286
      2  C1        81.2040  116.4810  124.8050 C.3   503  LOP503      0.1417
      3  C2        80.6590  117.2430  125.9860 C.3   503  LOP503      0.1696
      4  O1        81.6450  117.2630  127.0610 O.3   503  LOP503     -0.3125
      5  P1        81.0050  117.4920  128.5050 P.3   503  LOP503      0.2141
      6  O2        81.9990  116.6540  129.4020 O.3   503  LOP503     -0.3100
      7  O3        79.6440  116.8670  128.5760 O.2   503  LOP503     -0.5172
      8  O4        81.1200  118.9500  128.8600 O.3   503  LOP503     -0.4373
      9  C3        81.9640  115.2600  129.0020 C.3   503  LOP503      0.1964
     10  C4        83.1460  114.5100  129.5410 C.3   503  LOP503      0.2420
     11  C5        82.7430  113.7270  130.8010 C.3   503  LOP503      0.2543
     12  O5        83.6010  113.5450  128.5860 O.3   503  LOP503     -0.4457
     13  O6        83.7010  112.6660  130.9210 O.3   503  LOP503     -0.4444
     14  C6        84.9410  113.6250  128.2670 C.2   503  LOP503      0.3171
     15  O7        85.6680  114.5140  128.7040 O.2   503  LOP503     -0.2501
     16  C7        85.5270  112.5370  127.4400 C.3   503  LOP503      0.1096
     17  C8        86.1610  111.4840  128.3690 C.3   503  LOP503      0.0116
     18  C9        86.6690  110.3460  127.4710 C.3   503  LOP503      0.0006
     19  C10       87.3490  109.1960  128.2410 C.3   503  LOP503      0.0000
     20  C11       87.5280  108.0110  127.2630 C.3   503  LOP503      0.0003
     21  C12       88.2910  106.8740  127.9370 C.3   503  LOP503      0.0047
     22  C13       88.2670  105.6020  127.0860 C.3   503  LOP503      0.0257
     23  C14       89.1210  104.5990  127.8540 C.2   503  LOP503     -0.0307
     24  C15       89.2390  103.3000  127.5500 C.2   503  LOP503     -0.0307
     25  C16       88.5270  102.5640  126.3780 C.3   503  LOP503      0.0257
     26  C17       88.9700  101.1080  126.6000 C.3   503  LOP503      0.0047
     27  C18       88.4800   99.9850  125.6650 C.3   503  LOP503      0.0003
     28  C19       89.2310   98.8240  126.3340 C.3   503  LOP503      0.0000
     29  C20       89.1150   97.3920  125.8190 C.3   503  LOP503      0.0000
     30  C21       89.9920   96.6330  126.8310 C.3   503  LOP503      0.0000
     31  C22       89.9840   95.1210  126.6700 C.3   503  LOP503      0.0000
     32  C23       90.8620   94.5040  127.7700 C.3   503  LOP503      0.0000
     33  C24       83.3450  111.5810  131.6410 C.2   503  LOP503      0.3171
     34  O8        82.2530  111.4870  132.1970 O.2   503  LOP503     -0.2501
     35  C25       84.3380  110.4630  131.7210 C.3   503  LOP503      0.1096
     36  C26       85.0370  110.4130  133.0810 C.3   503  LOP503      0.0116
     37  C27       86.0440  109.2620  133.0990 C.3   503  LOP503      0.0006
     38  C28       86.7480  109.1180  134.4620 C.3   503  LOP503      0.0000
     39  C29       87.6120  107.8890  134.2770 C.3   503  LOP503      0.0000
     40  C30       88.3260  107.3560  135.4970 C.3   503  LOP503      0.0000
     41  C31       88.9650  106.0880  134.9370 C.3   503  LOP503      0.0000
     42  C32       89.7240  105.3150  136.0030 C.3   503  LOP503      0.0000
     43  C33       90.5200  104.1360  135.3860 C.3   503  LOP503      0.0000
     44  C34       91.4030  103.4820  136.4740 C.3   503  LOP503      0.0000
     45  C35       92.3890  102.4990  135.8440 C.3   503  LOP503      0.0000
@<TRIPOS>BOND
     1     1     2    1
     2     2     3    1
     3    27    28    1
     4    27    26    1
     5    29    28    1
     6    29    30    1
     7     3     4    1
     8    25    26    1
     9    25    24    1
    10    31    30    1
    11    31    32    1
    12     4     5    1
    13    22    23    1
    14    22    21    1
    15    20    21    1
    16    20    19    1
    17    16    14    1
    18    16    17    1
    19    18    19    1
    20    18    17    1
    21    24    23    2
    22    14    12    1
    23    14    15    2
    24     5     7    2
    25     5     8    1
    26     5     6    1
    27    12    10    1
    28     9     6    1
    29     9    10    1
    30    10    11    1
    31    11    13    1
    32    13    33    1
    33    33    35    1
    34    33    34    2
    35    35    36    1
    36    36    37    1
    37    37    38    1
    38    39    38    1
    39    39    40    1
    40    41    40    1
    41    41    42    1
    42    43    42    1
    43    43    44    1
    44    45    44    1
