@<TRIPOS>MOLECULE
2qjk_SMA_A_1.pdb
 37 38 0 0 0
SMALL
GASTEIGER

@<TRIPOS>ATOM
      1  C2        91.9030   93.3720  148.2350 C.ar    1  SMA1        0.1220
      2  C3        92.7330   93.6770  149.2830 C.ar    1  SMA1        0.0475
      3  C3M       92.3780   94.7830  150.2510 C.3     1  SMA1        0.0373
      4  C4        93.9170   92.9630  149.4580 C.ar    1  SMA1        0.2002
      5  C4A       94.2770   91.9450  148.5790 C.ar    1  SMA1        0.1105
      6  C5        95.4860   91.2170  148.7440 C.ar    1  SMA1        0.1479
      7  C5M       97.5210   92.2390  149.2860 C.3     1  SMA1        0.2525
      8  C6        95.8010   90.2090  147.8520 C.ar    1  SMA1        0.0774
      9  C7        94.9720   89.9030  146.8200 C.ar    1  SMA1        0.1835
     10  C7M       96.4620   89.2340  145.0280 C.3     1  SMA1        0.2526
     11  C8        93.7820   90.6010  146.6430 C.ar    1  SMA1        0.2636
     12  C8A       93.4390   91.6210  147.5150 C.ar    1  SMA1        0.1925
     13  C9        90.6170   94.1760  148.0190 C.3     1  SMA1        0.0644
     14  C10       89.3240   93.4320  148.1910 C.3     1  SMA1        0.0104
     15  C11       88.2970   93.9660  147.1780 C.3     1  SMA1        0.0278
     16  C12       86.8520   93.7010  147.6340 C.3     1  SMA1        0.1179
     17  C13       86.6510   92.1950  147.9460 C.3     1  SMA1        0.0586
     18  C14       85.3070   91.9160  148.6740 C.3     1  SMA1        0.1395
     19  C15       85.2500   90.4870  149.1310 C.2     1  SMA1        0.0029
     20  C16       84.1700   89.7270  149.0560 C.2     1  SMA1       -0.0022
     21  C17       84.2550   88.3410  149.4860 C.2     1  SMA1       -0.0006
     22  C18       83.1350   87.6380  149.4040 C.2     1  SMA1       -0.0046
     23  C19       82.9800   86.2380  149.7590 C.2     1  SMA1       -0.0261
     24  C20       81.7270   85.7310  149.5930 C.2     1  SMA1       -0.0300
     25  C21       81.3960   84.2660  149.7840 C.3     1  SMA1        0.0304
     26  C22       88.4760   95.4940  146.9070 C.3     1  SMA1        0.0025
     27  C23       85.4840   95.4320  148.5240 C.3     1  SMA1        0.1740
     28  C24       86.7300   91.3830  146.6290 C.3     1  SMA1        0.0054
     29  C25       83.2270   92.9430  148.5090 C.3     1  SMA1        0.1745
     30  C26       84.1420   85.4170  150.3150 C.3     1  SMA1        0.0307
     31  O1        92.2510   92.3420  147.3510 O.2     1  SMA1       -0.4544
     32  O4        94.6580   93.2380  150.3940 O.2     1  SMA1       -0.2866
     33  O5        96.3960   91.5090  149.8290 O.3     1  SMA1       -0.4711
     34  O7        95.3640   88.8240  145.9190 O.3     1  SMA1       -0.4680
     35  O8        92.8910   90.2680  145.5460 O.3     1  SMA1       -0.2800
     36  O12       86.5660   94.5030  148.8190 O.3     1  SMA1       -0.3535
     37  O14       84.2280   92.1980  147.7880 O.3     1  SMA1       -0.3491
@<TRIPOS>BOND
     1    10    34    1
     2    35    11    1
     3    34     9    1
     4    28    17    1
     5    11     9   ar
     6    11    12   ar
     7     9     8   ar
     8    26    15    1
     9    15    16    1
    10    15    14    1
    11    31    12   ar
    12    31     1   ar
    13    12     5   ar
    14    16    17    1
    15    16    36    1
    16    37    29    1
    17    37    18    1
    18     8     6   ar
    19    17    18    1
    20    13    14    1
    21    13     1    1
    22     1     2   ar
    23    27    36    1
    24     5     6   ar
    25     5     4   ar
    26    18    19    1
    27     6    33    1
    28    20    19    2
    29    20    21    1
    30     2     4   ar
    31     2     3    1
    32     7    33    1
    33    22    21    2
    34    22    23    1
    35     4    32    2
    36    24    23    2
    37    24    25    1
    38    23    30    1
