@<TRIPOS>MOLECULE
2qjk_HEM_A_1.pdb
 43 50 0 0 0
SMALL
GASTEIGER

@<TRIPOS>ATOM
      1 FE         74.2960  100.6620  134.6640 Fe    501  HEM501      0.0000
      2  CHA       72.5500  102.9060  132.9220 C.2   501  HEM501      0.0000
      3  CHB       73.9080   98.4090  132.2070 C.2   501  HEM501      0.0000
      4  CHC       76.3660   98.4760  136.2810 C.2   501  HEM501      0.0000
      5  CHD       74.5720  102.8050  137.2480 C.2   501  HEM501      0.0000
      6  NA        73.4080  100.6490  132.9690 N.ar  501  HEM501      0.0000
      7  C1A       72.7650  101.6900  132.3510 C.ar  501  HEM501      0.0000
      8  C2A       72.3350  101.3360  131.0150 C.ar  501  HEM501      0.0000
      9  C3A       72.7200  100.0720  130.8200 C.ar  501  HEM501      0.0000
     10  C4A       73.3740   99.6450  132.0290 C.ar  501  HEM501      0.0000
     11  CMA       72.5650   99.2920  129.5560 C.3   501  HEM501      0.0000
     12  CAA       71.6330  102.2340  130.0070 C.3   501  HEM501      0.0000
     13  CBA       72.5830  102.7210  128.8920 C.3   501  HEM501      0.0000
     14  CGA       73.8790  103.3530  129.4080 C.2   501  HEM501      0.0000
     15  O1A       74.9620  102.7320  129.2920 O.co2 501  HEM501      0.0000
     16  O2A       73.8140  104.4800  129.9320 O.co2 501  HEM501      0.0000
     17  NB        74.9480   98.8370  134.3480 N.2   501  HEM501      0.0000
     18  C1B       74.6470   98.0300  133.2920 C.2   501  HEM501      0.0000
     19  C2B       75.2890   96.7630  133.3910 C.2   501  HEM501      0.0000
     20  C3B       76.0310   96.7850  134.5150 C.2   501  HEM501      0.0000
     21  C4B       75.8030   98.0700  135.1060 C.2   501  HEM501      0.0000
     22  CMB       75.1410   95.6170  132.3940 C.3   501  HEM501      0.0000
     23  CAB       76.9350   95.8170  134.9530 C.3   501  HEM501      0.0000
     24  CBB       76.1970   94.5440  135.2750 C.3   501  HEM501      0.0000
     25  NC        75.2240  100.6170  136.4130 N.ar  501  HEM501      0.0000
     26  C1C       76.1140   99.6660  136.8940 C.ar  501  HEM501      0.0000
     27  C2C       76.7480  100.0820  138.1090 C.ar  501  HEM501      0.0000
     28  C3C       76.2660  101.3150  138.3910 C.ar  501  HEM501      0.0000
     29  C4C       75.2980  101.6260  137.3350 C.ar  501  HEM501      0.0000
     30  CMC       77.7620   99.2840  138.9060 C.3   501  HEM501      0.0000
     31  CAC       76.7550  102.1890  139.3790 C.3   501  HEM501      0.0000
     32  CBC       75.9040  102.1160  140.6400 C.3   501  HEM501      0.0000
     33  ND        73.7000  102.4530  134.9740 N.2   501  HEM501      0.0000
     34  C1D       73.8060  103.1830  136.1410 C.2   501  HEM501      0.0000
     35  C2D       73.0870  104.4300  136.0420 C.2   501  HEM501      0.0000
     36  C3D       72.5700  104.4800  134.7970 C.2   501  HEM501      0.0000
     37  C4D       72.9460  103.2510  134.1580 C.2   501  HEM501      0.0000
     38  CMD       72.8870  105.4410  137.1470 C.3   501  HEM501      0.0000
     39  CAD       71.7910  105.6450  134.1800 C.3   501  HEM501      0.0000
     40  CBD       70.3300  105.3460  133.8790 C.3   501  HEM501      0.0000
     41  CGD       69.5190  106.5970  133.5120 C.2   501  HEM501      0.0000
     42  O1D       70.0040  107.4040  132.6630 O.co2 501  HEM501      0.0000
     43  O2D       68.3970  106.7480  134.0810 O.co2 501  HEM501      0.0000
@<TRIPOS>BOND
     1    13    14    1
     2    13    12    1
     3    15    14   ar
     4    14    16   ar
     5    11     9    1
     6    12     8    1
     7     9     8   ar
     8     9    10   ar
     9     8     7   ar
    10    10     3    2
    11    10     6   ar
    12     3    18    1
    13     7     2    2
    14     7     6   ar
    15    22    19    1
    16    42    41   ar
    17     2    37    1
    18     6     1    1
    19    18    19    1
    20    18    17    2
    21    19    20    2
    22    41    40    1
    23    41    43   ar
    24    40    39    1
    25    37    36    1
    26    37    33    2
    27    39    36    1
    28    17     1    1
    29    17    21    1
    30    20    23    1
    31    20    21    1
    32     1    33    1
    33     1    25    1
    34    36    35    2
    35    23    24    1
    36    33    34    1
    37    21     4    2
    38    35    34    1
    39    35    38    1
    40    34     5    2
    41     4    26    1
    42    25    26   ar
    43    25    29   ar
    44    26    27   ar
    45     5    29    1
    46    29    28   ar
    47    27    28   ar
    48    27    30    1
    49    28    31    1
    50    31    32    1
