@<TRIPOS>MOLECULE
2qjk_ANJ_A_1.pdb
 39 40 0 0 0
SMALL
GASTEIGER

@<TRIPOS>ATOM
      1  O1        73.8080  105.3440  123.7780 O.2   504  ANJ504     -0.2629
      2  O2        72.5850  100.6770  124.9330 O.3   504  ANJ504     -0.2850
      3  O3        69.1010  100.1060  127.1690 O.2   504  ANJ504     -0.2682
      4  O4        69.7820   95.5430  125.5560 O.3   504  ANJ504     -0.4498
      5  O5        67.6500   95.5840  126.5690 O.2   504  ANJ504     -0.2500
      6  O6        70.6140   95.8600  127.5220 O.3   504  ANJ504     -0.4472
      7  O7        72.3610   97.2660  127.4390 O.2   504  ANJ504     -0.2481
      8  O8        70.3740   92.5150  128.7420 O.3   504  ANJ504     -0.4479
      9  O9        69.7600   92.8060  130.8980 O.2   504  ANJ504     -0.2501
     10  N1        73.4590  103.0980  124.1790 N.am  504  ANJ504     -0.1683
     11  N2        70.7890   99.0850  126.1540 N.am  504  ANJ504     -0.1881
     12  C1        74.1030  104.1920  123.6730 C.2   504  ANJ504      0.3247
     13  C2        72.2640  103.0440  124.9860 C.ar  504  ANJ504      0.1128
     14  C3        71.5580  104.1890  125.3540 C.ar  504  ANJ504      0.0199
     15  C4        70.3740  104.0390  126.1450 C.ar  504  ANJ504      0.0017
     16  C5        69.9360  102.7810  126.4990 C.ar  504  ANJ504      0.0079
     17  C6        70.6430  101.5500  126.1410 C.ar  504  ANJ504      0.0952
     18  C7        71.8100  101.7310  125.3510 C.ar  504  ANJ504      0.2152
     19  C8        70.1470  100.2240  126.5070 C.2   504  ANJ504      0.2685
     20  C9        70.2470   97.7850  126.4830 C.3   504  ANJ504      0.2333
     21  C10       69.7750   97.0140  125.1880 C.3   504  ANJ504      0.1996
     22  C11       70.7150   97.1140  124.0440 C.3   504  ANJ504      0.0498
     23  C12       68.7310   95.0320  126.3610 C.2   504  ANJ504      0.3201
     24  C13       69.1410   93.6610  127.0040 C.3   504  ANJ504      0.1426
     25  C14       69.9810   93.8660  128.3060 C.3   504  ANJ504      0.2189
     26  C15       71.2630   94.6090  127.9460 C.3   504  ANJ504      0.2092
     27  C16       72.1520   94.8650  129.1370 C.3   504  ANJ504      0.0513
     28  C17       71.2610   96.9910  127.2520 C.2   504  ANJ504      0.3407
     29  C18       67.8190   92.8460  127.2820 C.3   504  ANJ504      0.0149
     30  C19       67.2660   92.2030  126.0200 C.3   504  ANJ504      0.0007
     31  C20       66.0670   91.2320  126.3430 C.3   504  ANJ504      0.0000
     32  C21       65.6760   90.3910  125.1100 C.3   504  ANJ504      0.0000
     33  C22       64.6340   89.2230  125.5210 C.3   504  ANJ504      0.0000
     34  C23       64.3320   88.2780  124.3640 C.3   504  ANJ504      0.0000
     35  C24       70.2130   92.1240  130.0420 C.2   504  ANJ504      0.3164
     36  C25       70.7110   90.6580  130.2640 C.3   504  ANJ504      0.0991
     37  C26       69.4440   89.8640  130.8810 C.3   504  ANJ504      0.0116
     38  C27       71.2660   90.0110  128.9930 C.3   504  ANJ504      0.0111
     39  C28       72.7010   90.4050  128.7980 C.3   504  ANJ504      0.0006
@<TRIPOS>BOND
     1    12     1    2
     2    12    10   am
     3    22    21    1
     4    10    13    1
     5    34    33    1
     6     2    18    1
     7    13    18   ar
     8    13    14   ar
     9    32    33    1
    10    32    31    1
    11    21     4    1
    12    21    20    1
    13    18    17   ar
    14    14    15   ar
    15     4    23    1
    16    30    31    1
    17    30    29    1
    18    17    16   ar
    19    17    19    1
    20    15    16   ar
    21    11    20    1
    22    11    19   am
    23    23     5    2
    24    23    24    1
    25    20    28    1
    26    19     3    2
    27    24    29    1
    28    24    25    1
    29    28     7    2
    30    28     6    1
    31     6    26    1
    32    26    25    1
    33    26    27    1
    34    25     8    1
    35     8    35    1
    36    39    38    1
    37    38    36    1
    38    35    36    1
    39    35     9    2
    40    36    37    1
