@<TRIPOS>MOLECULE
2qjm_CS2_A_1.pdb
 13 12 0 0 0
SMALL
GASTEIGER

@<TRIPOS>ATOM
      1  C2        15.7660   56.6840   68.2910 C.3   2001  CS22001     0.2865
      2  C3        14.9680   57.5310   69.2920 C.3   2001  CS22001     0.2260
      3  O1A       16.5670   55.1960   69.9420 O.co2 2001  CS22001    -0.2427
      4  C1        16.0570   55.2700   68.8130 C.2   2001  CS22001     0.3973
      5  O1B       15.7680   54.2920   68.0860 O.co2 2001  CS22001    -0.2427
      6  O2        15.0420   56.6300   67.0620 O.3   2001  CS22001    -0.2080
      7  O3        15.9010   58.1020   70.2250 O.3   2001  CS22001    -0.2169
      8  C4        14.0840   58.6730   68.7150 C.3   2001  CS22001     0.2180
      9  O4        14.8610   59.6060   67.9660 O.3   2001  CS22001    -0.2175
     10  C5        13.2960   59.4650   69.8110 C.3   2001  CS22001     0.2175
     11  O5        12.5880   58.5110   70.6130 O.3   2001  CS22001    -0.2175
     12  C6        12.2480   60.4550   69.2770 C.3   2001  CS22001     0.2175
     13  O6        11.6000   61.1150   70.3640 O.3   2001  CS22001    -0.2175
@<TRIPOS>BOND
     1     6     1    1
     2     9     8    1
     3     5     4   ar
     4     1     4    1
     5     1     2    1
     6     8     2    1
     7     8    10    1
     8     4     3   ar
     9    12    10    1
    10    12    13    1
    11     2     7    1
    12    10    11    1
