@<TRIPOS>MOLECULE
2qjn_KDG_A_1.pdb
 12 11 0 0 0
SMALL
GASTEIGER

@<TRIPOS>ATOM
      1  O1B       11.2180   60.8370   70.4720 O.3   2001  KDG2001    -0.2175
      2  C1        11.9030   60.1860   69.3930 C.3   2001  KDG2001     0.2174
      3  C2        13.0280   59.3150   69.9460 C.3   2001  KDG2001     0.2153
      4  O2        12.4490   58.3790   70.8650 O.3   2001  KDG2001    -0.2176
      5  C3        13.8140   58.5720   68.8440 C.3   2001  KDG2001     0.1927
      6  O3        14.5250   59.5440   68.0720 O.3   2001  KDG2001    -0.2198
      7  C4        14.8380   57.5730   69.3920 C.3   2001  KDG2001     0.1118
      8  O5        15.1170   56.6310   67.2110 O.2   2001  KDG2001    -0.2842
      9  C5        15.2510   56.4630   68.4280 C.2   2001  KDG2001     0.2546
     10  C6        15.8380   55.1450   69.0040 C.2   2001  KDG2001     0.4219
     11  O6A       15.6840   54.0870   68.3590 O.co2 2001  KDG2001    -0.2373
     12  O6B       16.4440   55.1970   70.0940 O.co2 2001  KDG2001    -0.2373
@<TRIPOS>BOND
     1     8     9    2
     2     6     5    1
     3    11    10   ar
     4     9    10    1
     5     9     7    1
     6     5     7    1
     7     5     3    1
     8    10    12   ar
     9     2     3    1
    10     2     1    1
    11     3     4    1
