@<TRIPOS>MOLECULE
2qjo_NAD_A_1.pdb
 44 48 0 0 0
SMALL
GASTEIGER

@<TRIPOS>ATOM
      1  PA       -92.4780   19.2910  -23.8920 P.3   601  NAD601      0.2189
      2  O1A      -93.5380   20.3200  -24.0720 O.2   601  NAD601     -0.5170
      3  O2A      -91.1450   19.7750  -23.6410 O.3   601  NAD601     -0.4371
      4  O5B      -92.4830   18.3270  -25.1680 O.3   601  NAD601     -0.3112
      5  C5B      -93.7240   17.7880  -25.5650 C.3   601  NAD601      0.1813
      6  C4B      -93.4780   16.5530  -26.4340 C.3   601  NAD601      0.1821
      7  O4B      -93.1140   16.9970  -27.7420 O.3   601  NAD601     -0.3135
      8  C3B      -92.3350   15.6890  -25.9000 C.3   601  NAD601      0.2184
      9  O3B      -92.4690   14.3420  -26.2890 O.3   601  NAD601     -0.2174
     10  C2B      -91.1980   16.2250  -26.7070 C.3   601  NAD601      0.2570
     11  O2B      -90.1960   15.2580  -26.7220 O.3   601  NAD601     -0.2130
     12  C1B      -91.8630   16.4700  -28.0530 C.3   601  NAD601      0.3186
     13  N9A      -91.0370   17.4210  -28.7810 N.pl3 601  NAD601     -0.1439
     14  C8A      -90.6790   18.6810  -28.3920 C.3   601  NAD601      0.3377
     15  N7A      -89.8670   19.1960  -29.3300 N.2   601  NAD601     -0.2095
     16  C5A      -89.6970   18.2870  -30.3170 C.2   601  NAD601      0.2526
     17  C6A      -88.9530   18.3060  -31.5000 C.2   601  NAD601      0.4393
     18  N6A      -88.1480   19.3360  -31.7900 N.pl3 601  NAD601      0.2180
     19  N1A      -88.9770   17.1930  -32.3160 N.2   601  NAD601      0.0021
     20  C2A      -89.7320   16.0830  -31.9630 C.3   601  NAD601      0.5254
     21  N3A      -90.4620   16.0750  -30.7840 N.2   601  NAD601     -0.0055
     22  C4A      -90.4370   17.1610  -29.9830 C.2   601  NAD601      0.3518
     23  O3       -93.0580   18.3990  -22.6670 O.3   601  NAD601     -0.2703
     24  PN       -92.2700   17.5310  -21.5730 P.3   601  NAD601      0.2189
     25  O1N      -91.3590   18.4020  -20.7780 O.3   601  NAD601     -0.4371
     26  O2N      -91.7940   16.2540  -22.1030 O.2   601  NAD601     -0.5170
     27  O5D      -93.6320   17.2450  -20.7340 O.3   601  NAD601     -0.3112
     28  C5D      -93.7120   16.3100  -19.6580 C.3   601  NAD601      0.1813
     29  C4D      -94.7220   16.8290  -18.6460 C.3   601  NAD601      0.1799
     30  O4D      -95.0700   15.8560  -17.6670 O.3   601  NAD601     -0.3327
     31  C3D      -94.1230   17.9520  -17.8620 C.3   601  NAD601      0.2158
     32  O3D      -95.2440   18.7200  -17.4730 O.3   601  NAD601     -0.2175
     33  C2D      -93.5150   17.2500  -16.6830 C.3   601  NAD601      0.2309
     34  O2D      -93.4210   18.1460  -15.6020 O.3   601  NAD601     -0.2158
     35  C1D      -94.5720   16.1920  -16.3950 C.3   601  NAD601      0.2263
     36  N1N      -93.9740   15.0680  -15.6550 N.pl3 601  NAD601     -0.2787
     37  C2N      -94.2230   15.0020  -14.3030 C.3   601  NAD601      0.1244
     38  C3N      -93.6530   13.9820  -13.5280 C.2   601  NAD601      0.0544
     39  C7N      -93.8400   14.0450  -12.0370 C.2   601  NAD601      0.2818
     40  O7N      -94.6270   15.0910  -11.5370 O.2   601  NAD601     -0.2670
     41  N7N      -93.3060   13.1560  -11.2010 N.am  601  NAD601     -0.0839
     42  C4N      -92.8360   13.0180  -14.1520 C.2   601  NAD601      0.0033
     43  C5N      -92.5990   13.0770  -15.5350 C.2   601  NAD601      0.0157
     44  C6N      -93.1650   14.1210  -16.2730 C.2   601  NAD601      0.0633
@<TRIPOS>BOND
     1    19    20    1
     2    19    17    2
     3    20    21    1
     4    18    17    1
     5    17    16    1
     6    21    22    2
     7    16    22    1
     8    16    15    2
     9    22    13    1
    10    15    14    1
    11    13    14    1
    12    13    12    1
    13    12     7    1
    14    12    10    1
    15     7     6    1
    16    11    10    1
    17    10     8    1
    18     6     8    1
    19     6     5    1
    20     9     8    1
    21     5     4    1
    22     4     1    1
    23     2     1    2
    24     1     3    1
    25     1    23    1
    26    23    24    1
    27    26    24    2
    28    24    25    1
    29    24    27    1
    30    27    28    1
    31    28    29    1
    32    29    31    1
    33    29    30    1
    34    31    32    1
    35    31    33    1
    36    30    35    1
    37    33    35    1
    38    33    34    1
    39    35    36    1
    40    44    36    1
    41    44    43    2
    42    36    37    1
    43    43    42    1
    44    37    38    1
    45    42    38    2
    46    38    39    1
    47    39    40    2
    48    39    41   am
