@<TRIPOS>MOLECULE
2qjo_APR_A_1.pdb
 36 39 0 0 0
SMALL
GASTEIGER

@<TRIPOS>ATOM
      1  N1       -73.7570   31.8890   -2.0760 N.2   501  APR501      0.0021
      2  C2       -74.0030   32.7540   -1.0600 C.3   501  APR501      0.5254
      3  N3       -74.9160   33.7330   -1.1160 N.2   501  APR501     -0.0055
      4  C4       -75.6450   33.9090   -2.2340 C.2   501  APR501      0.3518
      5  C5       -75.4350   33.0130   -3.3790 C.2   501  APR501      0.2526
      6  C6       -74.4260   31.9690   -3.2420 C.2   501  APR501      0.4393
      7  N6       -74.1950   31.1160   -4.2590 N.pl3 501  APR501      0.2180
      8  N7       -76.2810   33.3820   -4.3530 N.2   501  APR501     -0.2095
      9  C8       -76.9780   34.4530   -3.8550 C.3   501  APR501      0.3377
     10  N9       -76.6040   34.7560   -2.5880 N.pl3 501  APR501     -0.1439
     11  C1'      -77.1260   35.8620   -1.7490 C.3   501  APR501      0.3186
     12  C2'      -77.7280   36.9650   -2.6270 C.3   501  APR501      0.2570
     13  O2'      -77.5710   38.1940   -1.9050 O.3   501  APR501     -0.2130
     14  C3'      -79.1990   36.6430   -2.6260 C.3   501  APR501      0.2184
     15  O3'      -80.0230   37.7880   -2.8980 O.3   501  APR501     -0.2174
     16  O4'      -78.1830   35.4580   -0.8630 O.3   501  APR501     -0.3135
     17  C4'      -79.4090   36.1270   -1.2060 C.3   501  APR501      0.1821
     18  C5'      -80.5580   35.1350   -1.1670 C.3   501  APR501      0.1813
     19  O5'      -81.0290   35.0290    0.1720 O.3   501  APR501     -0.3112
     20  PA       -81.2450   33.6130    0.8830 P.3   501  APR501      0.2189
     21  O1A      -82.4500   33.8070    1.7640 O.3   501  APR501     -0.4371
     22  O2A      -79.9280   33.1890    1.4640 O.2   501  APR501     -0.5170
     23  O3A      -81.5400   32.6120   -0.3520 O.3   501  APR501     -0.2703
     24  PB       -82.9610   32.5060   -1.1240 P.3   501  APR501      0.2189
     25  O1B      -83.0880   33.5470   -2.2180 O.2   501  APR501     -0.5170
     26  O2B      -84.1150   32.3420   -0.1610 O.3   501  APR501     -0.4371
     27  O5D      -82.7480   31.0840   -1.8430 O.3   501  APR501     -0.3112
     28  C5D      -82.7910   29.8750   -1.0810 C.3   501  APR501      0.1813
     29  O4D      -83.6510   28.5560   -2.9550 O.3   501  APR501     -0.3237
     30  O1D      -83.6070   26.4920   -4.0960 O.3   501  APR501     -0.1869
     31  C1D      -84.2400   27.2720   -3.0820 C.3   501  APR501      0.3023
     32  O2D      -85.1260   25.7210   -1.4820 O.3   501  APR501     -0.2148
     33  C2D      -84.0660   26.6350   -1.7220 C.3   501  APR501      0.2433
     34  O3D      -85.4360   27.9250   -0.1570 O.3   501  APR501     -0.2175
     35  C3D      -84.1460   27.8050   -0.7600 C.3   501  APR501      0.2168
     36  C4D      -83.9240   29.0270   -1.6250 C.3   501  APR501      0.1807
@<TRIPOS>BOND
     1     8     9    1
     2     8     5    2
     3     7     6    1
     4    30    31    1
     5     9    10    1
     6     5     6    1
     7     5     4    1
     8     6     1    2
     9    31    29    1
    10    31    33    1
    11    29    36    1
    12    15    14    1
    13    12    14    1
    14    12    13    1
    15    12    11    1
    16    14    17    1
    17    10     4    1
    18    10    11    1
    19     4     3    2
    20    25    24    2
    21     1     2    1
    22    27    24    1
    23    27    28    1
    24    11    16    1
    25    33    32    1
    26    33    35    1
    27    36    28    1
    28    36    35    1
    29    17    18    1
    30    17    16    1
    31    18    19    1
    32    24    23    1
    33    24    26    1
    34     3     2    1
    35    35    34    1
    36    23    20    1
    37    19    20    1
    38    20    22    2
    39    20    21    1
