@<TRIPOS>MOLECULE
2qjp_SMA_A_1.pdb
 37 38 0 0 0
SMALL
GASTEIGER

@<TRIPOS>ATOM
      1  C2       -25.8100   92.8180   36.2530 C.ar    1  SMA1        0.1220
      2  C3       -27.1460   93.1390   36.0880 C.ar    1  SMA1        0.0475
      3  C3M      -27.5630   94.1950   35.0850 C.3     1  SMA1        0.0373
      4  C4       -28.1220   92.5190   36.8850 C.ar    1  SMA1        0.2002
      5  C4A      -27.7650   91.5420   37.8330 C.ar    1  SMA1        0.1105
      6  C5       -28.7230   90.8950   38.6350 C.ar    1  SMA1        0.1479
      7  C5M      -30.9430   90.9510   39.6870 C.3     1  SMA1        0.2525
      8  C6       -28.2940   89.9410   39.5680 C.ar    1  SMA1        0.0774
      9  C7       -26.9750   89.6160   39.7010 C.ar    1  SMA1        0.1835
     10  C7M      -25.6480   89.0620   41.7000 C.3     1  SMA1        0.2526
     11  C8       -26.0280   90.2640   38.9270 C.ar    1  SMA1        0.2636
     12  C8A      -26.4190   91.1980   37.9860 C.ar    1  SMA1        0.1925
     13  C9       -24.7090   93.5080   35.4280 C.3     1  SMA1        0.0644
     14  C10      -24.3270   92.8600   34.0910 C.3     1  SMA1        0.0104
     15  C11      -22.8540   93.2590   33.7540 C.3     1  SMA1        0.0278
     16  C12      -22.4190   92.9750   32.2950 C.3     1  SMA1        0.1179
     17  C13      -22.4640   91.4740   31.9390 C.3     1  SMA1        0.0586
     18  C14      -21.9150   91.2240   30.5010 C.3     1  SMA1        0.1395
     19  C15      -22.3390   89.8480   30.0430 C.2     1  SMA1        0.0029
     20  C16      -21.4970   88.8730   29.6690 C.2     1  SMA1       -0.0022
     21  C17      -22.0390   87.5760   29.3170 C.2     1  SMA1       -0.0006
     22  C18      -21.2360   86.5550   28.9760 C.2     1  SMA1       -0.0046
     23  C19      -21.7690   85.2080   28.7450 C.2     1  SMA1       -0.0261
     24  C20      -20.8880   84.2360   28.4300 C.2     1  SMA1       -0.0300
     25  C21      -21.3000   82.7900   28.2470 C.3     1  SMA1        0.0304
     26  C22      -22.5950   94.7660   34.0510 C.3     1  SMA1        0.0025
     27  C23      -22.4630   94.7130   30.6110 C.3     1  SMA1        0.1740
     28  C24      -21.6460   90.6450   32.9930 C.3     1  SMA1        0.0054
     29  C25      -19.9990   92.0230   29.2600 C.3     1  SMA1        0.1745
     30  C26      -23.2700   84.9230   28.8870 C.3     1  SMA1        0.0307
     31  O1       -25.4490   91.8400   37.2000 O.2     1  SMA1       -0.4544
     32  O4       -29.3030   92.8270   36.7200 O.2     1  SMA1       -0.2866
     33  O5       -30.1630   91.2350   38.4870 O.3     1  SMA1       -0.4711
     34  O7       -26.6030   88.5930   40.7060 O.3     1  SMA1       -0.4680
     35  O8       -24.6200   89.9350   39.0540 O.3     1  SMA1       -0.2800
     36  O12      -23.2670   93.7380   31.3600 O.3     1  SMA1       -0.3535
     37  O14      -20.4530   91.3630   30.4900 O.3     1  SMA1       -0.3491
@<TRIPOS>BOND
     1    25    24    1
     2    24    23    2
     3    23    30    1
     4    23    22    1
     5    22    21    2
     6    29    37    1
     7    21    20    1
     8    20    19    2
     9    19    18    1
    10    37    18    1
    11    18    17    1
    12    27    36    1
    13    36    16    1
    14    17    16    1
    15    17    28    1
    16    16    15    1
    17    15    26    1
    18    15    14    1
    19    14    13    1
    20     3     2    1
    21    13     1    1
    22     2     1   ar
    23     2     4   ar
    24     1    31   ar
    25    32     4    2
    26     4     5   ar
    27    31    12   ar
    28     5    12   ar
    29     5     6   ar
    30    12    11   ar
    31    33     6    1
    32    33     7    1
    33     6     8   ar
    34    11    35    1
    35    11     9   ar
    36     8     9   ar
    37     9    34    1
    38    34    10    1
