@<TRIPOS>MOLECULE
2qjp_ANJ_A_1.pdb
 39 40 0 0 0
SMALL
GASTEIGER

@<TRIPOS>ATOM
      1  O1         4.0400  105.5270   36.6900 O.2   504  ANJ504     -0.2629
      2  O2         3.9790  100.8450   35.1590 O.3   504  ANJ504     -0.2850
      3  O3         4.5410  100.0760   31.0730 O.2   504  ANJ504     -0.2682
      4  O4         5.4320   95.5760   32.8080 O.3   504  ANJ504     -0.4498
      5  O5         5.8830   95.5390   30.4800 O.2   504  ANJ504     -0.2500
      6  O6         3.2980   95.8440   32.2930 O.3   504  ANJ504     -0.4472
      7  O7         2.1720   97.3420   33.6060 O.2   504  ANJ504     -0.2481
      8  O8         2.5050   92.4660   31.4430 O.3   504  ANJ504     -0.4479
      9  O9         2.1040   92.2540   29.2390 O.2   504  ANJ504     -0.2501
     10  N1         3.9600  103.2710   36.2380 N.am  504  ANJ504     -0.1683
     11  N2         4.2300   99.1410   33.0880 N.am  504  ANJ504     -0.1881
     12  C1         3.9270  104.3890   37.0170 C.2   504  ANJ504      0.3247
     13  C2         4.1420  103.1660   34.7950 C.ar  504  ANJ504      0.1128
     14  C3         4.3050  104.2800   33.9700 C.ar  504  ANJ504      0.0199
     15  C4         4.4830  104.0680   32.5510 C.ar  504  ANJ504      0.0017
     16  C5         4.4920  102.7930   32.0410 C.ar  504  ANJ504      0.0079
     17  C6         4.3280  101.6060   32.8650 C.ar  504  ANJ504      0.0952
     18  C7         4.1450  101.8500   34.2590 C.ar  504  ANJ504      0.2152
     19  C8         4.3610  100.2500   32.3060 C.2   504  ANJ504      0.2685
     20  C9         4.3310   97.8070   32.5300 C.3   504  ANJ504      0.2333
     21  C10        5.7060   97.0660   32.9440 C.3   504  ANJ504      0.1996
     22  C11        6.1380   97.2580   34.3410 C.3   504  ANJ504      0.0498
     23  C12        5.4070   95.0100   31.4980 C.2   504  ANJ504      0.3201
     24  C13        4.6680   93.6520   31.4870 C.3   504  ANJ504      0.1426
     25  C14        3.1150   93.8250   31.3590 C.3   504  ANJ504      0.2189
     26  C15        2.5970   94.6060   32.5810 C.3   504  ANJ504      0.2092
     27  C16        1.1020   94.8180   32.4940 C.3   504  ANJ504      0.0513
     28  C17        3.0770   97.0060   32.9130 C.2   504  ANJ504      0.3407
     29  C18        5.2290   92.8270   30.2940 C.3   504  ANJ504      0.0149
     30  C19        6.6510   92.3630   30.4310 C.3   504  ANJ504      0.0007
     31  C20        6.9440   91.5030   29.1680 C.3   504  ANJ504      0.0000
     32  C21        8.3690   90.9940   29.0400 C.3   504  ANJ504      0.0000
     33  C22        8.3820   90.1390   27.6900 C.3   504  ANJ504      0.0000
     34  C23        9.7660   89.6260   27.3770 C.3   504  ANJ504      0.0000
     35  C24        2.0480   91.8240   30.3340 C.2   504  ANJ504      0.3164
     36  C25        1.4330   90.4580   30.7090 C.3   504  ANJ504      0.0991
     37  C26        0.4390   90.7770   31.9480 C.3   504  ANJ504      0.0116
     38  C27        0.7390   89.7980   29.5230 C.3   504  ANJ504      0.0111
     39  C28       -0.1510   88.6590   29.9650 C.3   504  ANJ504      0.0006
@<TRIPOS>BOND
     1    34    33    1
     2    33    32    1
     3    32    31    1
     4    31    30    1
     5     9    35    2
     6    38    39    1
     7    38    36    1
     8    29    30    1
     9    29    24    1
    10    35    36    1
    11    35     8    1
    12     5    23    2
    13    36    37    1
    14     3    19    2
    15    25     8    1
    16    25    24    1
    17    25    26    1
    18    24    23    1
    19    23     4    1
    20    16    15   ar
    21    16    17   ar
    22     6    26    1
    23     6    28    1
    24    19    17    1
    25    19    11   am
    26    27    26    1
    27    20    28    1
    28    20    21    1
    29    20    11    1
    30    15    14   ar
    31     4    21    1
    32    17    18   ar
    33    28     7    2
    34    21    22    1
    35    14    13   ar
    36    18    13   ar
    37    18     2    1
    38    13    10    1
    39    10    12   am
    40     1    12    2
