@<TRIPOS>MOLECULE
2qjp_HEM_A_1.pdb
 43 50 0 0 0
SMALL
GASTEIGER

@<TRIPOS>ATOM
      1 FE         -4.6650  100.0670   30.1930 Fe    501  HEM501      0.0000
      2  CHA       -2.2030  102.3820   29.8050 C.2   501  HEM501      0.0000
      3  CHB       -2.4220   97.9220   31.6140 C.2   501  HEM501      0.0000
      4  CHC       -7.1820   97.8190   30.9030 C.2   501  HEM501      0.0000
      5  CHD       -6.9710  102.3000   29.0340 C.2   501  HEM501      0.0000
      6  NA        -2.7380  100.1240   30.5720 N.2   501  HEM501      0.0000
      7  C1A       -1.8720  101.1860   30.4150 C.2   501  HEM501      0.0000
      8  C2A       -0.5720  100.8890   30.9650 C.2   501  HEM501      0.0000
      9  C3A       -0.6280   99.6300   31.4230 C.2   501  HEM501      0.0000
     10  C4A       -1.9650   99.1610   31.1980 C.2   501  HEM501      0.0000
     11  CMA        0.5100   98.8460   32.0250 C.3   501  HEM501      0.0000
     12  CAA        0.6030  101.8410   31.1210 C.3   501  HEM501      0.0000
     13  CBA        0.7150  102.4130   32.5430 C.3   501  HEM501      0.0000
     14  CGA       -0.4570  103.3150   32.9270 C.2   501  HEM501      0.0000
     15  O1A       -1.3010  102.8920   33.7510 O.co2 501  HEM501      0.0000
     16  O2A       -0.5270  104.4460   32.3970 O.co2 501  HEM501      0.0000
     17  NB        -4.7710   98.2470   31.0260 N.ar  501  HEM501      0.0000
     18  C1B       -3.7230   97.4930   31.5420 C.ar  501  HEM501      0.0000
     19  C2B       -4.1710   96.2210   32.0580 C.ar  501  HEM501      0.0000
     20  C3B       -5.5390   96.1820   31.8850 C.ar  501  HEM501      0.0000
     21  C4B       -5.8910   97.4470   31.2340 C.ar  501  HEM501      0.0000
     22  CMB       -3.2610   95.1520   32.6610 C.3   501  HEM501      0.0000
     23  CAB       -6.4640   95.2080   32.3450 C.3   501  HEM501      0.0000
     24  CBB       -5.9580   93.7750   32.1160 C.3   501  HEM501      0.0000
     25  NC        -6.6430  100.0330   29.9600 N.2   501  HEM501      0.0000
     26  C1C       -7.5460   99.0400   30.3350 C.2   501  HEM501      0.0000
     27  C2C       -8.9170   99.4530   30.1170 C.2   501  HEM501      0.0000
     28  C3C       -8.8730  100.7150   29.6130 C.2   501  HEM501      0.0000
     29  C4C       -7.4500  101.0690   29.5060 C.2   501  HEM501      0.0000
     30  CMC      -10.1730   98.6390   30.4080 C.3   501  HEM501      0.0000
     31  CAC       -9.9740  101.5320   29.3550 C.3   501  HEM501      0.0000
     32  CBC      -10.2260  101.6140   27.8590 C.3   501  HEM501      0.0000
     33  ND        -4.5910  101.9260   29.5370 N.ar  501  HEM501      0.0000
     34  C1D       -5.6290  102.6920   29.0370 C.ar  501  HEM501      0.0000
     35  C2D       -5.1450  103.9740   28.5420 C.ar  501  HEM501      0.0000
     36  C3D       -3.8050  103.9850   28.7370 C.ar  501  HEM501      0.0000
     37  C4D       -3.4720  102.7240   29.3680 C.ar  501  HEM501      0.0000
     38  CMD       -5.9820  105.1050   27.9520 C.3   501  HEM501      0.0000
     39  CAD       -2.8330  105.0930   28.3100 C.3   501  HEM501      0.0000
     40  CBD       -2.0520  104.7310   27.0400 C.3   501  HEM501      0.0000
     41  CGD       -0.9740  105.7550   26.6530 C.2   501  HEM501      0.0000
     42  O1D       -0.5290  106.5310   27.5350 O.co2 501  HEM501      0.0000
     43  O2D       -0.5680  105.7580   25.4620 O.co2 501  HEM501      0.0000
@<TRIPOS>BOND
     1    43    41   ar
     2    41    40    1
     3    41    42   ar
     4    40    39    1
     5    32    31    1
     6    38    35    1
     7    39    36    1
     8    35    36   ar
     9    35    34   ar
    10    36    37   ar
    11     5    34    2
    12     5    29    1
    13    34    33   ar
    14    31    28    1
    15    37    33   ar
    16    37     2    2
    17    29    28    1
    18    29    25    2
    19    33     1    1
    20    28    27    2
    21     2     7    1
    22    25     1    1
    23    25    26    1
    24    27    26    1
    25    27    30    1
    26     1     6    1
    27     1    17    1
    28    26     4    2
    29     7     6    2
    30     7     8    1
    31     6    10    1
    32     4    21    1
    33     8    12    1
    34     8     9    2
    35    17    21   ar
    36    17    18   ar
    37    12    13    1
    38    10     9    1
    39    10     3    2
    40    21    20   ar
    41     9    11    1
    42    18     3    1
    43    18    19   ar
    44    20    19   ar
    45    20    23    1
    46    19    22    1
    47    24    23    1
    48    16    14   ar
    49    13    14    1
    50    14    15   ar
