@<TRIPOS>MOLECULE
2qjp_LOP_A_1.pdb
 45 44 0 0 0
SMALL
GASTEIGER

@<TRIPOS>ATOM
      1  N1        -0.0690  115.8600   40.9780 N.3   503  LOP503     -0.1286
      2  C1        -1.4310  116.3150   41.0500 C.3   503  LOP503      0.1417
      3  C2        -1.8840  116.7700   39.7040 C.3   503  LOP503      0.1696
      4  O1        -3.2510  117.2150   39.7900 O.3   503  LOP503     -0.3125
      5  P1        -3.9890  117.1680   38.4050 P.3   503  LOP503      0.2141
      6  O2        -5.3850  116.5400   38.7930 O.3   503  LOP503     -0.3100
      7  O3        -3.2720  116.2530   37.4590 O.2   503  LOP503     -0.5172
      8  O4        -4.2190  118.5730   37.9690 O.3   503  LOP503     -0.4373
      9  C3        -5.2780  115.1050   38.9770 C.3   503  LOP503      0.1964
     10  C4        -6.5660  114.4950   39.5090 C.3   503  LOP503      0.2420
     11  C5        -7.3920  113.9550   38.3330 C.3   503  LOP503      0.2543
     12  O5        -6.2180  113.4170   40.3590 O.3   503  LOP503     -0.4457
     13  O6        -8.2640  112.8900   38.7590 O.3   503  LOP503     -0.4444
     14  C6        -6.7980  113.4380   41.5950 C.2   503  LOP503      0.3171
     15  O7        -7.5730  114.3280   41.9540 O.2   503  LOP503     -0.2501
     16  C7        -6.4430  112.3240   42.5200 C.3   503  LOP503      0.1096
     17  C8        -7.5460  111.2660   42.6440 C.3   503  LOP503      0.0116
     18  C9        -6.9520  110.1880   43.5500 C.3   503  LOP503      0.0006
     19  C10       -7.8880  109.0180   43.8480 C.3   503  LOP503      0.0000
     20  C11       -7.0340  107.9330   44.5320 C.3   503  LOP503      0.0003
     21  C12       -7.9320  106.8440   45.1140 C.3   503  LOP503      0.0047
     22  C13       -7.1420  105.6360   45.6470 C.3   503  LOP503      0.0257
     23  C14       -8.2040  104.7630   46.3210 C.2   503  LOP503     -0.0307
     24  C15       -8.0230  103.5330   46.7920 C.2   503  LOP503     -0.0307
     25  C16       -6.7260  102.7100   46.7550 C.3   503  LOP503      0.0257
     26  C17       -7.2630  101.3870   47.3040 C.3   503  LOP503      0.0047
     27  C18       -6.3610  100.1530   47.3160 C.3   503  LOP503      0.0003
     28  C19       -7.4010   99.1120   47.7350 C.3   503  LOP503      0.0000
     29  C20       -7.0130   97.6400   47.6780 C.3   503  LOP503      0.0000
     30  C21       -8.3420   96.9420   47.9980 C.3   503  LOP503      0.0000
     31  C22       -8.2820   95.4240   47.8920 C.3   503  LOP503      0.0000
     32  C23       -9.6800   94.8760   48.1980 C.3   503  LOP503      0.0000
     33  C24       -7.9470  111.6780   38.2040 C.2   503  LOP503      0.3171
     34  O8        -6.9990  111.5600   37.4290 O.2   503  LOP503     -0.2501
     35  C25       -8.7460  110.4450   38.5260 C.3   503  LOP503      0.1096
     36  C26      -10.1500  110.6470   39.1350 C.3   503  LOP503      0.0116
     37  C27      -10.6900  109.2210   39.3240 C.3   503  LOP503      0.0006
     38  C28      -12.0940  109.0810   39.9260 C.3   503  LOP503      0.0000
     39  C29      -12.3050  107.5560   39.9840 C.3   503  LOP503      0.0000
     40  C30      -13.6090  107.1240   40.6610 C.3   503  LOP503      0.0000
     41  C31      -13.6360  105.5860   40.7820 C.3   503  LOP503      0.0000
     42  C32      -14.8610  105.2150   41.6200 C.3   503  LOP503      0.0000
     43  C33      -14.9610  103.7280   41.9720 C.3   503  LOP503      0.0000
     44  C34      -16.1930  103.6130   42.8820 C.3   503  LOP503      0.0000
     45  C35      -16.4180  102.1810   43.3740 C.3   503  LOP503      0.0000
@<TRIPOS>BOND
     1    34    33    2
     2     7     5    2
     3     8     5    1
     4    33    35    1
     5    33    13    1
     6    11    13    1
     7    11    10    1
     8     5     6    1
     9     5     4    1
    10    35    36    1
    11     6     9    1
    12     9    10    1
    13    36    37    1
    14    37    38    1
    15    10    12    1
    16     3     4    1
    17     3     2    1
    18    38    39    1
    19    39    40    1
    20    12    14    1
    21    40    41    1
    22    41    42    1
    23     1     2    1
    24    14    15    2
    25    14    16    1
    26    42    43    1
    27    43    44    1
    28    16    17    1
    29    17    18    1
    30    44    45    1
    31    18    19    1
    32    19    20    1
    33    20    21    1
    34    21    22    1
    35    22    23    1
    36    23    24    2
    37    25    24    1
    38    25    26    1
    39    26    27    1
    40    27    28    1
    41    29    28    1
    42    29    30    1
    43    31    30    1
    44    31    32    1
