@<TRIPOS>MOLECULE
2qjr_PZF_A_1.pdb
 29 32 0 0 0
SMALL
GASTEIGER

@<TRIPOS>ATOM
      1  N3        21.6840   16.6520   28.8580 N.ar  900  PZF900     -0.2101
      2  C4        21.9340   17.3710   27.7510 C.ar  900  PZF900      0.2250
      3  C6        20.5200   19.1080   28.4790 C.ar  900  PZF900      0.0075
      4  C13       17.5320   17.2730   36.0840 C.3   900  PZF900      0.0930
      5  C21       17.0020   17.5400   37.4380 C.ar  900  PZF900      0.0129
      6  C8        17.3950   19.9410   31.2920 C.3   900  PZF900      0.3911
      7  C16       19.4640   17.1420   34.6580 C.3   900  PZF900      0.2214
      8  C19       22.9570   17.5960   25.5770 C.3   900  PZF900      0.2542
      9  C26       17.4270   18.6380   38.1690 C.ar  900  PZF900      0.0301
     10  F29       15.5450   18.3050   41.1930 F     900  PZF900     -0.2017
     11  C24       16.0490   18.0320   39.9880 C.ar  900  PZF900      0.1696
     12  C23       15.5660   16.9450   39.2870 C.ar  900  PZF900      0.0612
     13  C22       16.0580   16.7100   38.0010 C.ar  900  PZF900      0.1387
     14  F27       15.6340   15.6750   37.2850 F     900  PZF900     -0.2044
     15  C25       16.9860   18.8910   39.4260 C.ar  900  PZF900      0.1672
     16  F28       17.4560   19.9960   40.0290 F     900  PZF900     -0.2018
     17  C17       18.9820   16.9150   36.1010 C.3   900  PZF900      0.1464
     18  N20       19.2320   15.5560   36.4710 N.3   900  PZF900     -0.1280
     19  N15       18.4450   18.1010   34.2020 N.pl3 900  PZF900     -0.1923
     20  C14       17.4330   18.4790   35.1570 C.3   900  PZF900      0.2079
     21  C12       18.4060   18.5920   32.9060 C.2   900  PZF900      0.3031
     22  N7        17.4270   19.4520   32.5390 N.2   900  PZF900     -0.0407
     23  C11       19.3490   18.1910   31.9540 C.3   900  PZF900      0.1621
     24  C10       19.3240   18.7470   30.6860 C.2   900  PZF900      0.0718
     25  N9        18.3230   19.5850   30.4090 N.2   900  PZF900     -0.2224
     26  C1        20.2780   18.3450   29.6160 C.ar  900  PZF900      0.0333
     27  C5        21.3750   18.6110   27.5220 C.ar  900  PZF900      0.0578
     28  O18       22.7820   16.8510   26.8180 O.3   900  PZF900     -0.4561
     29  C2        20.8540   17.1120   29.7350 C.ar  900  PZF900      0.1032
@<TRIPOS>BOND
     1     8    28    1
     2    28     2    1
     3    27     2   ar
     4    27     3   ar
     5     2     1   ar
     6     3    26   ar
     7     1    29   ar
     8    26    29   ar
     9    26    24    1
    10    25    24    2
    11    25     6    1
    12    24    23    1
    13     6    22    1
    14    23    21    1
    15    22    21    2
    16    21    19    1
    17    19     7    1
    18    19    20    1
    19     7    17    1
    20    20     4    1
    21     4    17    1
    22     4     5    1
    23    17    18    1
    24    14    13    1
    25     5    13   ar
    26     5     9   ar
    27    13    12   ar
    28     9    15   ar
    29    12    11   ar
    30    15    11   ar
    31    15    16    1
    32    11    10    1
