@<TRIPOS>MOLECULE
2qjt_AMP_A_1.pdb
 23 25 0 0 0
SMALL
GASTEIGER

@<TRIPOS>ATOM
      1  P         12.9950   26.1980   38.0290 P.3   601  AMP601      0.5327
      2  O1P       12.5440   27.0910   36.9330 O.2   601  AMP601     -0.2224
      3  O2P       11.9340   25.1470   38.4370 O.3   601  AMP601     -0.1145
      4  O3P       14.3100   25.6040   37.7340 O.3   601  AMP601     -0.1145
      5  O5'       13.1070   27.1550   39.3520 O.3   601  AMP601     -0.2675
      6  C5'       13.4840   28.5570   39.2620 C.3   601  AMP601      0.1860
      7  C4'       14.9800   28.8300   39.5580 C.3   601  AMP601      0.1823
      8  O4'       15.9110   28.4760   38.5310 O.3   601  AMP601     -0.3135
      9  C3'       15.2160   30.3300   39.7700 C.3   601  AMP601      0.2184
     10  O3'       14.8470   30.7340   41.1130 O.3   601  AMP601     -0.2174
     11  C2'       16.6790   30.5330   39.4730 C.3   601  AMP601      0.2570
     12  O2'       17.4750   30.4040   40.6570 O.3   601  AMP601     -0.2130
     13  C1'       17.0470   29.3850   38.5410 C.3   601  AMP601      0.3186
     14  N9        17.2520   29.9910   37.1920 N.pl3 601  AMP601     -0.1439
     15  C8        16.6410   31.1300   36.7460 C.3   601  AMP601      0.3377
     16  N7        17.0250   31.4010   35.4810 N.2   601  AMP601     -0.2095
     17  C5        17.8910   30.4090   35.1090 C.2   601  AMP601      0.2526
     18  C6        18.6760   30.0820   33.9030 C.2   601  AMP601      0.4393
     19  N6        18.6180   30.8740   32.7880 N.pl3 601  AMP601      0.2180
     20  N1        19.4540   28.9770   33.9450 N.2   601  AMP601      0.0021
     21  C2        19.5490   28.1640   35.0230 C.3   601  AMP601      0.5254
     22  N3        18.8730   28.4140   36.1440 N.2   601  AMP601     -0.0055
     23  C4        18.0510   29.4990   36.2400 C.2   601  AMP601      0.3518
@<TRIPOS>BOND
     1    19    18    1
     2    18    20    2
     3    18    17    1
     4    20    21    1
     5    21    22    1
     6    17    16    2
     7    17    23    1
     8    16    15    1
     9    22    23    2
    10    23    14    1
    11    15    14    1
    12     2     1    2
    13    14    13    1
    14     4     1    1
    15     1     3    1
    16     1     5    1
    17     8    13    1
    18     8     7    1
    19    13    11    1
    20     6     5    1
    21     6     7    1
    22    11     9    1
    23    11    12    1
    24     7     9    1
    25     9    10    1
