@<TRIPOS>MOLECULE
2qju_DSM_A_1.pdb
 20 22 0 0 0
SMALL
GASTEIGER

@<TRIPOS>ATOM
      1  C18       17.7390  -15.3290  -26.0670 C.3   801  DSM801      0.1075
      2  N2        16.4430  -14.5350  -25.9120 N.3   801  DSM801     -0.2165
      3  C17       15.7990  -13.7810  -24.7460 C.3   801  DSM801      0.0905
      4  C16       15.9540  -12.2340  -25.0660 C.3   801  DSM801      0.0406
      5  C15       15.4550  -11.0860  -24.1950 C.3   801  DSM801      0.0970
      6  N1        16.2700  -10.6330  -23.0100 N.pl3 801  DSM801     -0.2873
      7  C14       15.8780   -9.5300  -22.1190 C.ar  801  DSM801      0.0475
      8  C1        15.5080   -8.2760  -22.7010 C.ar  801  DSM801      0.0145
      9  C2        15.1210   -7.1410  -21.9360 C.ar  801  DSM801      0.0013
     10  C3        15.1100   -7.1420  -20.5390 C.ar  801  DSM801     -0.0002
     11  C4        15.5030   -8.4530  -19.9130 C.ar  801  DSM801     -0.0030
     12  C13       15.8850   -9.5540  -20.6610 C.ar  801  DSM801     -0.0082
     13  C5        16.2050  -10.7030  -19.7490 C.3   801  DSM801      0.0323
     14  C6        16.5990  -12.0140  -20.4100 C.3   801  DSM801      0.0323
     15  C12       17.7620  -11.8620  -21.3850 C.ar  801  DSM801     -0.0082
     16  C11       17.5260  -11.1940  -22.6040 C.ar  801  DSM801      0.0475
     17  C7        19.0150  -12.3730  -21.0740 C.ar  801  DSM801     -0.0030
     18  C8        20.2000  -12.2440  -22.0350 C.ar  801  DSM801     -0.0002
     19  C9        19.9460  -11.5770  -23.2430 C.ar  801  DSM801      0.0013
     20  C10       18.6370  -11.0950  -23.4600 C.ar  801  DSM801      0.0145
@<TRIPOS>BOND
     1     1     2    1
     2     2     3    1
     3     4     3    1
     4     4     5    1
     5     5     6    1
     6    20    19   ar
     7    20    16   ar
     8    19    18   ar
     9     6    16    1
    10     6     7    1
    11     8     7   ar
    12     8     9   ar
    13    16    15   ar
    14     7    12   ar
    15    18    17   ar
    16     9    10   ar
    17    15    17   ar
    18    15    14    1
    19    12    11   ar
    20    12    13    1
    21    10    11   ar
    22    14    13    1
