@<TRIPOS>MOLECULE
2qjy_SMA_A_1.pdb
 37 38 0 0 0
SMALL
GASTEIGER

@<TRIPOS>ATOM
      1  C2        91.1120   93.2670  148.5350 C.ar  1001  SMA1001     0.1220
      2  C3        91.8460   93.5970  149.6650 C.ar  1001  SMA1001     0.0475
      3  C3M       91.3250   94.6630  150.6370 C.3   1001  SMA1001     0.0373
      4  C4        93.0140   92.8700  149.9600 C.ar  1001  SMA1001     0.2002
      5  C4A       93.5430   91.9740  149.0280 C.ar  1001  SMA1001     0.1105
      6  C5        94.6950   91.1860  149.2820 C.ar  1001  SMA1001     0.1479
      7  C5M       96.9920   91.6000  150.0000 C.3   1001  SMA1001     0.2525
      8  C6        95.1040   90.2520  148.3230 C.ar  1001  SMA1001     0.0774
      9  C7        94.3180   89.9760  147.2290 C.ar  1001  SMA1001     0.1835
     10  C7M       96.0700   88.4420  146.4440 C.3   1001  SMA1001     0.2526
     11  C8        93.1800   90.7060  147.0210 C.ar  1001  SMA1001     0.2636
     12  C8A       92.7410   91.5870  147.9590 C.ar  1001  SMA1001     0.1925
     13  C9        89.8370   94.0000  148.1740 C.3   1001  SMA1001     0.0644
     14  C10       88.5710   93.2900  148.5780 C.3   1001  SMA1001     0.0104
     15  C11       87.4380   93.7240  147.6260 C.3   1001  SMA1001     0.0278
     16  C12       86.0360   93.4940  148.2470 C.3   1001  SMA1001     0.1179
     17  C13       85.8010   92.0210  148.5990 C.3   1001  SMA1001     0.0586
     18  C14       84.3410   91.8330  149.0450 C.3   1001  SMA1001     0.1395
     19  C15       84.2440   90.4950  149.7180 C.2   1001  SMA1001     0.0029
     20  C16       83.4520   89.5540  149.2670 C.2   1001  SMA1001    -0.0022
     21  C17       83.4300   88.2890  149.9390 C.2   1001  SMA1001    -0.0006
     22  C18       82.6320   87.3280  149.5030 C.2   1001  SMA1001    -0.0046
     23  C19       82.6190   86.0300  150.1540 C.2   1001  SMA1001    -0.0261
     24  C20       81.7720   85.1070  149.6520 C.2   1001  SMA1001    -0.0300
     25  C21       81.6660   83.7090  150.2320 C.3   1001  SMA1001     0.0304
     26  C22       87.5560   95.2230  147.2120 C.3   1001  SMA1001     0.0025
     27  C23       84.8210   95.3060  149.2670 C.3   1001  SMA1001     0.1740
     28  C24       86.1160   91.0850  147.3740 C.3   1001  SMA1001     0.0054
     29  C25       82.2530   92.6710  148.1770 C.3   1001  SMA1001     0.1745
     30  C26       83.5970   85.7060  151.2860 C.3   1001  SMA1001     0.0307
     31  O1        91.6020   92.3250  147.6610 O.2   1001  SMA1001    -0.4544
     32  O4        93.6740   93.1940  150.9710 O.2   1001  SMA1001    -0.2866
     33  O5        95.6010   91.4420  150.4240 O.3   1001  SMA1001    -0.4711
     34  O7        94.7250   88.9770  146.2290 O.3   1001  SMA1001    -0.4680
     35  O8        92.3540   90.4150  145.8620 O.3   1001  SMA1001    -0.2800
     36  O12       85.8850   94.3050  149.4540 O.3   1001  SMA1001    -0.3535
     37  O14       83.4580   91.9050  147.8720 O.3   1001  SMA1001    -0.3491
@<TRIPOS>BOND
     1    35    11    1
     2    34    10    1
     3    34     9    1
     4    11     9   ar
     5    11    12   ar
     6    26    15    1
     7     9     8   ar
     8    28    17    1
     9    15    16    1
    10    15    14    1
    11    31    12   ar
    12    31     1   ar
    13    37    29    1
    14    37    18    1
    15    12     5   ar
    16    13     1    1
    17    13    14    1
    18    16    17    1
    19    16    36    1
    20     8     6   ar
    21     1     2   ar
    22    17    18    1
    23     5     6   ar
    24     5     4   ar
    25    18    19    1
    26    20    19    2
    27    20    21    1
    28    27    36    1
    29     6    33    1
    30    22    21    2
    31    22    23    1
    32    24    23    2
    33    24    25    1
    34     2     4   ar
    35     2     3    1
    36     4    32    2
    37     7    33    1
    38    23    30    1
