@<TRIPOS>MOLECULE
2qjy_UQ2_A_1.pdb
 23 23 0 0 0
SMALL
GASTEIGER

@<TRIPOS>ATOM
      1  C1        69.7510   98.5040  126.9880 C.2   1101  UQ21101     0.2285
      2  C2        68.9410   99.7470  127.1740 C.2   1101  UQ21101     0.2140
      3  C3        67.5600   99.6510  127.2990 C.2   1101  UQ21101     0.2140
      4  C4        66.9100   98.3190  127.2740 C.2   1101  UQ21101     0.2282
      5  C5        67.7020   97.0770  127.1310 C.2   1101  UQ21101     0.0198
      6  C6        69.0980   97.1450  126.9870 C.2   1101  UQ21101     0.0235
      7  CM2       69.3410  102.0460  126.2940 C.3   1101  UQ21101     0.2528
      8  CM3       65.9350  101.2210  126.3500 C.3   1101  UQ21101     0.2528
      9  CM5       66.9500   95.7480  127.1450 C.3   1101  UQ21101     0.0343
     10  C7        69.9660   95.8870  126.7100 C.3   1101  UQ21101     0.0548
     11  C8        70.0270   94.8230  127.8430 C.2   1101  UQ21101    -0.0298
     12  C9        70.2690   93.4940  127.5940 C.2   1101  UQ21101    -0.0475
     13  C10       70.4730   92.9990  126.1600 C.3   1101  UQ21101     0.0260
     14  C11       70.4520   92.5280  128.7790 C.3   1101  UQ21101     0.0264
     15  C12       69.9720   91.0830  128.4970 C.3   1101  UQ21101     0.0297
     16  C13       70.8520   90.0500  129.2200 C.2   1101  UQ21101    -0.0342
     17  C14       70.5600   89.5120  130.4310 C.2   1101  UQ21101    -0.0478
     18  C15       69.3250   89.9200  131.2190 C.3   1101  UQ21101     0.0260
     19  C16       71.4450   88.4180  130.9890 C.3   1101  UQ21101     0.0260
     20  O1        70.9700   98.6040  126.8250 O.2   1101  UQ21101    -0.2835
     21  O2        69.6000  101.0050  127.2910 O.2   1101  UQ21101    -0.4652
     22  O3        66.7730  100.8120  127.4690 O.2   1101  UQ21101    -0.4652
     23  O4        65.6850   98.2400  127.3610 O.2   1101  UQ21101    -0.2836
@<TRIPOS>BOND
     1    13    12    1
     2     7    21    1
     3     8    22    1
     4    10     6    1
     5    10    11    1
     6    20     1    2
     7     6     1    1
     8     6     5    2
     9     1     2    1
    10     5     9    1
    11     5     4    1
    12     2    21    1
    13     2     3    2
    14     4     3    1
    15     4    23    2
    16     3    22    1
    17    12    11    2
    18    12    14    1
    19    15    14    1
    20    15    16    1
    21    16    17    2
    22    17    19    1
    23    17    18    1
