@<TRIPOS>MOLECULE
2qjy_HEM_A_1.pdb
 43 50 0 0 0
SMALL
GASTEIGER

@<TRIPOS>ATOM
      1  CHA       71.8220  102.6550  133.1780 C.2   501  HEM501      0.0000
      2  CHB       73.2400   98.1330  132.5110 C.2   501  HEM501      0.0000
      3  CHC       75.7050   98.2720  136.6760 C.2   501  HEM501      0.0000
      4  CHD       73.8680  102.6270  137.5110 C.2   501  HEM501      0.0000
      5  C1A       72.0590  101.4380  132.6030 C.ar  501  HEM501      0.0000
      6  C2A       71.7060  101.0980  131.2450 C.ar  501  HEM501      0.0000
      7  C3A       72.0770   99.8100  131.0660 C.ar  501  HEM501      0.0000
      8  C4A       72.6760   99.3780  132.3150 C.ar  501  HEM501      0.0000
      9  CMA       71.9080   98.9860  129.7990 C.3   501  HEM501      0.0000
     10  CAA       71.1100  102.0390  130.1910 C.3   501  HEM501      0.0000
     11  CBA       72.1230  102.5240  129.1380 C.3   501  HEM501      0.0000
     12  CGA       73.2920  103.3150  129.7190 C.2   501  HEM501      0.0000
     13  O1A       74.4390  102.8280  129.6270 O.co2 501  HEM501      0.0000
     14  O2A       73.0680  104.4180  130.2620 O.co2 501  HEM501      0.0000
     15  C1B       73.9910   97.7580  133.6200 C.2   501  HEM501      0.0000
     16  C2B       74.6920   96.5020  133.7080 C.2   501  HEM501      0.0000
     17  C3B       75.4400   96.5470  134.8670 C.2   501  HEM501      0.0000
     18  C4B       75.1450   97.8350  135.4860 C.2   501  HEM501      0.0000
     19  CMB       74.5690   95.3690  132.7120 C.3   501  HEM501      0.0000
     20  CAB       76.4240   95.6540  135.3190 C.3   501  HEM501      0.0000
     21  CBB       75.9230   94.2140  135.2920 C.3   501  HEM501      0.0000
     22  C1C       75.4340   99.4940  137.2700 C.ar  501  HEM501      0.0000
     23  C2C       76.0650   99.9810  138.4810 C.ar  501  HEM501      0.0000
     24  C3C       75.5440  101.2380  138.7060 C.ar  501  HEM501      0.0000
     25  C4C       74.6020  101.4640  137.6400 C.ar  501  HEM501      0.0000
     26  CMC       77.1150   99.2320  139.3060 C.3   501  HEM501      0.0000
     27  CAC       75.8990  102.2350  139.6640 C.3   501  HEM501      0.0000
     28  CBC       76.1950  101.6310  141.0270 C.3   501  HEM501      0.0000
     29  C1D       73.0940  102.9610  136.4370 C.2   501  HEM501      0.0000
     30  C2D       72.3920  104.2000  136.3290 C.2   501  HEM501      0.0000
     31  C3D       71.8690  104.2420  135.0860 C.2   501  HEM501      0.0000
     32  C4D       72.2100  103.0000  134.4450 C.2   501  HEM501      0.0000
     33  CMD       72.1920  105.2060  137.4230 C.3   501  HEM501      0.0000
     34  CAD       71.1370  105.3980  134.4640 C.3   501  HEM501      0.0000
     35  CBD       69.6490  105.2820  134.6570 C.3   501  HEM501      0.0000
     36  CGD       68.8860  106.3110  133.8600 C.2   501  HEM501      0.0000
     37  O1D       69.4510  106.8680  132.8920 O.co2 501  HEM501      0.0000
     38  O2D       67.7090  106.5460  134.1910 O.co2 501  HEM501      0.0000
     39  NA        72.6660  100.3800  133.2530 N.ar  501  HEM501      0.0000
     40  NB        74.2550   98.5740  134.7150 N.2   501  HEM501      0.0000
     41  NC        74.5440  100.4100  136.7620 N.ar  501  HEM501      0.0000
     42  ND        72.9690  102.1980  135.2850 N.2   501  HEM501      0.0000
     43 FE         73.5670  100.3650  135.0210 Fe    501  HEM501      0.0000
@<TRIPOS>BOND
     1    11    12    1
     2    11    10    1
     3    13    12   ar
     4    12    14   ar
     5     9     7    1
     6    10     6    1
     7     7     6   ar
     8     7     8   ar
     9     6     5   ar
    10     8     2    2
    11     8    39   ar
    12     2    15    1
    13     5     1    2
    14     5    39   ar
    15    19    16    1
    16    37    36   ar
    17     1    32    1
    18    39    43    1
    19    15    16    1
    20    15    40    2
    21    16    17    2
    22    36    38   ar
    23    36    35    1
    24    32    31    1
    25    32    42    2
    26    34    35    1
    27    34    31    1
    28    40    43    1
    29    40    18    1
    30    17    20    1
    31    17    18    1
    32    43    42    1
    33    43    41    1
    34    31    30    2
    35    42    29    1
    36    21    20    1
    37    18     3    2
    38    30    29    1
    39    30    33    1
    40    29     4    2
    41     3    22    1
    42    41    22   ar
    43    41    25   ar
    44    22    23   ar
    45     4    25    1
    46    25    24   ar
    47    23    24   ar
    48    23    26    1
    49    24    27    1
    50    27    28    1
