@<TRIPOS>MOLECULE
2qjy_LOP_A_1.pdb
 45 44 0 0 0
SMALL
GASTEIGER

@<TRIPOS>ATOM
      1  N1        80.0750  115.6950  124.5680 N.3   1021  LOP1021    -0.1286
      2  C1        80.8880  115.9370  125.7380 C.3   1021  LOP1021     0.1417
      3  C2        80.2670  117.0130  126.5760 C.3   1021  LOP1021     0.1696
      4  O1        81.0840  117.2440  127.7490 O.3   1021  LOP1021    -0.3125
      5  P1        80.2690  117.1310  129.1000 P.3   1021  LOP1021     0.2141
      6  O2        81.1960  116.1850  129.9690 O.3   1021  LOP1021    -0.3100
      7  O3        78.9580  116.4480  128.8700 O.2   1021  LOP1021    -0.5172
      8  O4        80.2490  118.4810  129.7400 O.3   1021  LOP1021    -0.4373
      9  C3        81.4080  114.8940  129.3170 C.3   1021  LOP1021     0.1964
     10  C4        82.5460  114.0970  129.9490 C.3   1021  LOP1021     0.2420
     11  C5        82.0180  113.3040  131.1580 C.3   1021  LOP1021     0.2543
     12  O5        83.0560  113.1400  129.0050 O.3   1021  LOP1021    -0.4457
     13  O6        82.8490  112.1430  131.3030 O.3   1021  LOP1021    -0.4444
     14  C6        84.4300  113.0340  128.9560 C.2   1021  LOP1021     0.3171
     15  O7        85.1670  113.7530  129.6320 O.2   1021  LOP1021    -0.2501
     16  C7        85.0220  111.9580  128.1020 C.3   1021  LOP1021     0.1096
     17  C8        85.5670  110.8050  128.9760 C.3   1021  LOP1021     0.0116
     18  C9        86.1210  109.7200  128.0280 C.3   1021  LOP1021     0.0006
     19  C10       86.8050  108.5520  128.7630 C.3   1021  LOP1021     0.0000
     20  C11       87.1040  107.4390  127.7200 C.3   1021  LOP1021     0.0003
     21  C12       87.9160  106.3060  128.3680 C.3   1021  LOP1021     0.0047
     22  C13       88.0170  105.0590  127.4480 C.3   1021  LOP1021     0.0257
     23  C14       88.7950  103.9960  128.2440 C.2   1021  LOP1021    -0.0307
     24  C15       88.8450  102.6930  127.9290 C.2   1021  LOP1021    -0.0307
     25  C16       88.1420  102.0400  126.7140 C.3   1021  LOP1021     0.0257
     26  C17       88.0110  100.5570  127.1140 C.3   1021  LOP1021     0.0047
     27  C18       87.9580   99.5150  125.9810 C.3   1021  LOP1021     0.0003
     28  C19       87.9940   98.2240  126.8020 C.3   1021  LOP1021     0.0000
     29  C20       88.8410   97.0880  126.2310 C.3   1021  LOP1021     0.0000
     30  C21       89.0480   96.1840  127.4660 C.3   1021  LOP1021     0.0000
     31  C22       90.2030   95.1930  127.3490 C.3   1021  LOP1021     0.0000
     32  C23       90.3400   94.4370  128.6850 C.3   1021  LOP1021     0.0000
     33  C24       82.4740  111.2510  132.2500 C.2   1021  LOP1021     0.3171
     34  O8        81.4740  111.4150  132.9470 O.2   1021  LOP1021    -0.2501
     35  C25       83.3110  110.0280  132.4360 C.3   1021  LOP1021     0.1096
     36  C26       84.4840  110.3090  133.3810 C.3   1021  LOP1021     0.0116
     37  C27       85.2950  109.0230  133.5490 C.3   1021  LOP1021     0.0006
     38  C28       86.3610  109.0850  134.6680 C.3   1021  LOP1021     0.0000
     39  C29       86.8130  107.6300  134.8010 C.3   1021  LOP1021     0.0000
     40  C30       87.8660  107.3070  135.8650 C.3   1021  LOP1021     0.0000
     41  C31       88.0950  105.7810  135.6820 C.3   1021  LOP1021     0.0000
     42  C32       89.3050  105.2550  136.4580 C.3   1021  LOP1021     0.0000
     43  C33       89.6310  103.8000  136.0180 C.3   1021  LOP1021     0.0000
     44  C34       90.9110  103.3310  136.7440 C.3   1021  LOP1021     0.0000
     45  C35       91.4490  102.0280  136.1270 C.3   1021  LOP1021     0.0000
@<TRIPOS>BOND
     1     1     2    1
     2     2     3    1
     3    27    28    1
     4    27    26    1
     5    29    28    1
     6    29    30    1
     7     3     4    1
     8    25    26    1
     9    25    24    1
    10    31    30    1
    11    31    32    1
    12    22    23    1
    13    22    21    1
    14    20    21    1
    15    20    19    1
    16     4     5    1
    17    24    23    2
    18    18    19    1
    19    18    17    1
    20    16    14    1
    21    16    17    1
    22     7     5    2
    23    14    12    1
    24    14    15    2
    25    12    10    1
    26     5     8    1
    27     5     6    1
    28     9    10    1
    29     9     6    1
    30    10    11    1
    31    11    13    1
    32    13    33    1
    33    33    35    1
    34    33    34    2
    35    35    36    1
    36    36    37    1
    37    37    38    1
    38    38    39    1
    39    39    40    1
    40    41    40    1
    41    41    42    1
    42    43    42    1
    43    43    44    1
    44    45    44    1
