@<TRIPOS>MOLECULE
2qk4_ATP_A_1.pdb
 31 33 0 0 0
SMALL
GASTEIGER

@<TRIPOS>ATOM
      1  PG       -30.9040    5.2330  103.1530 P.3   501  ATP501      0.5373
      2  O1G      -31.8290    4.0340  103.1140 O.3   501  ATP501     -0.1143
      3  O2G      -29.9570    5.2960  101.9680 O.2   501  ATP501     -0.2221
      4  O3G      -31.6790    6.4990  103.4310 O.3   501  ATP501     -0.1143
      5  PB       -28.3290    4.8550  104.5380 P.3   501  ATP501      0.2277
      6  O1B      -27.6740    5.6160  103.4140 O.2   501  ATP501     -0.5168
      7  O2B      -27.9640    3.3900  104.6920 O.3   501  ATP501     -0.4368
      8  O3B      -29.9580    5.0230  104.4690 O.3   501  ATP501     -0.2258
      9  PA       -26.7070    6.6800  106.0390 P.3   501  ATP501      0.2189
     10  O1A      -26.6030    7.1460  107.4760 O.3   501  ATP501     -0.4371
     11  O2A      -26.7420    7.6840  104.9080 O.2   501  ATP501     -0.5170
     12  O3A      -27.9590    5.6510  105.9080 O.3   501  ATP501     -0.2700
     13  O5'      -25.4480    5.7220  105.7870 O.3   501  ATP501     -0.3112
     14  C5'      -24.6300    5.8590  104.6380 C.3   501  ATP501      0.1813
     15  C4'      -23.2420    6.1730  105.1620 C.3   501  ATP501      0.1821
     16  O4'      -22.8220    5.1910  106.1110 O.3   501  ATP501     -0.3135
     17  C3'      -22.2160    6.1690  104.0400 C.3   501  ATP501      0.2184
     18  O3'      -21.7860    7.5250  103.8700 O.3   501  ATP501     -0.2174
     19  C2'      -21.1070    5.2680  104.5450 C.3   501  ATP501      0.2570
     20  O2'      -19.8020    5.8240  104.3590 O.3   501  ATP501     -0.2130
     21  C1'      -21.4110    5.1900  106.0300 C.3   501  ATP501      0.3186
     22  N9       -20.7020    4.0320  106.6240 N.pl3 501  ATP501     -0.1439
     23  C8       -20.0680    3.0680  105.9150 C.3   501  ATP501      0.3377
     24  N7       -19.4500    2.1870  106.7330 N.2   501  ATP501     -0.2095
     25  C5       -19.6880    2.5940  107.9960 C.2   501  ATP501      0.2526
     26  C6       -19.3330    2.0980  109.3360 C.2   501  ATP501      0.4393
     27  N6       -18.5900    0.9800  109.4580 N.pl3 501  ATP501      0.2180
     28  N1       -19.7580    2.8110  110.4070 N.2   501  ATP501      0.0021
     29  C2       -20.5040    3.9300  110.2660 C.3   501  ATP501      0.5254
     30  N3       -20.8730    4.4370  109.0720 N.2   501  ATP501     -0.0055
     31  C4       -20.5010    3.8190  107.9260 C.2   501  ATP501      0.3518
@<TRIPOS>BOND
     1     3     1    2
     2     2     1    1
     3     1     4    1
     4     1     8    1
     5     6     5    2
     6    18    17    1
     7    17    19    1
     8    17    15    1
     9    20    19    1
    10     8     5    1
    11     5     7    1
    12     5    12    1
    13    19    21    1
    14    14    15    1
    15    14    13    1
    16    11     9    2
    17    15    16    1
    18    13     9    1
    19    12     9    1
    20    23    22    1
    21    23    24    1
    22    21    16    1
    23    21    22    1
    24     9    10    1
    25    22    31    1
    26    24    25    2
    27    31    25    1
    28    31    30    2
    29    25    26    1
    30    30    29    1
    31    26    27    1
    32    26    28    2
    33    29    28    1
