@<TRIPOS>MOLECULE
2qk5_CS5_A_1.pdb
 42 44 0 0 0
SMALL
GASTEIGER

@<TRIPOS>ATOM
      1  C1        26.9150   15.4620   24.4970 C.ar    1  CS51        0.0003
      2  C2        25.6110   15.8600   24.9200 C.ar    1  CS51       -0.0216
      3  C3        24.4840   15.0350   24.6320 C.ar    1  CS51        0.0003
      4  C4        24.6710   13.8020   23.9250 C.ar    1  CS51        0.0549
      5  C5        25.9790   13.4070   23.5030 C.ar    1  CS51        0.0091
      6  C6        27.1110   14.2370   23.7870 C.ar    1  CS51        0.0534
      7  C7        28.4740   13.8300   23.3630 C.2     1  CS51        0.2490
      8  N1        28.7080   13.6750   22.0170 N.am    1  CS51       -0.2761
      9  O1        29.3720   13.6250   24.1820 O.2     1  CS51       -0.2699
     10  C8        27.7180   13.9020   20.9730 C.3     1  CS51        0.0937
     11  C9        28.3010   14.8590   19.9510 C.3     1  CS51        0.0215
     12  C10       28.7320   16.1720   20.6070 C.3     1  CS51        0.0018
     13  C11       30.0500   13.2700   21.6190 C.3     1  CS51        0.0937
     14  C12       30.1130   11.7900   21.2340 C.3     1  CS51        0.0215
     15  C13       29.1400   10.9140   22.0110 C.3     1  CS51        0.0018
     16  C14       23.5220   12.9470   23.6180 C.2     1  CS51        0.2648
     17  N2        23.8100   11.6300   23.4600 N.am    1  CS51       -0.2004
     18  O2        22.3790   13.3760   23.5090 O.2     1  CS51       -0.2684
     19  C15       22.6700   10.7540   23.1400 C.3     1  CS51        0.1316
     20  C16       22.1840    9.9440   24.3660 C.3     1  CS51        0.1894
     21  C17       23.0250    9.8320   21.9700 C.3     1  CS51        0.0508
     22  O3        21.2070    9.0010   23.9100 O.3     1  CS51       -0.2197
     23  C18       21.5440   10.8710   25.4290 C.3     1  CS51        0.1237
     24  N3        20.8420   10.0490   26.4420 N.3     1  CS51       -0.2105
     25  C19       19.8880   10.8390   27.2550 C.3     1  CS51        0.1152
     26  C20       18.7540   11.4310   26.4350 C.ar    1  CS51       -0.0018
     27  C21       23.6970   10.6320   20.8840 C.ar    1  CS51       -0.0159
     28  C22       25.0430   10.3520   20.5260 C.ar    1  CS51        0.0256
     29  C23       25.6750   11.1110   19.4980 C.ar    1  CS51        0.1421
     30  C24       24.9640   12.1450   18.8310 C.ar    1  CS51        0.0592
     31  C25       23.6180   12.4240   19.1910 C.ar    1  CS51        0.1421
     32  C26       22.9830   11.6680   20.2170 C.ar    1  CS51        0.0256
     33  C27       18.4900   12.8340   26.4940 C.ar    1  CS51       -0.0027
     34  C28       17.4270   13.3950   25.7250 C.ar    1  CS51        0.0028
     35  C29       16.6240   12.5550   24.8970 C.ar    1  CS51        0.0369
     36  C30       16.8830   11.1530   24.8360 C.ar    1  CS51        0.1385
     37  C31       17.9510   10.5920   25.6080 C.ar    1  CS51        0.0340
     38  O4        16.0900   10.3560   24.0230 O.3     1  CS51       -0.4714
     39  C32       16.2830    8.9680   24.2750 C.3     1  CS51        0.2525
     40  C33       25.4320   17.1280   25.6490 C.3     1  CS51        0.0310
     41  F2        26.9410   10.8510   19.1590 F       1  CS51       -0.2041
     42  F1        22.9570   13.3980   18.5600 F       1  CS51       -0.2041
@<TRIPOS>BOND
     1    42    31    1
     2    30    31   ar
     3    30    29   ar
     4    41    29    1
     5    31    32   ar
     6    29    28   ar
     7    11    12    1
     8    11    10    1
     9    32    27   ar
    10    28    27   ar
    11    27    21    1
    12    10     8    1
    13    14    13    1
    14    14    15    1
    15    13     8    1
    16    21    19    1
    17     8     7   am
    18    19    17    1
    19    19    20    1
    20     7     6    1
    21     7     9    2
    22    17    16   am
    23     5     6   ar
    24     5     4   ar
    25    18    16    2
    26    16     4    1
    27     6     1   ar
    28    22    20    1
    29     4     3   ar
    30    38    39    1
    31    38    36    1
    32    20    23    1
    33     1     2   ar
    34     3     2   ar
    35    36    35   ar
    36    36    37   ar
    37    35    34   ar
    38     2    40    1
    39    23    24    1
    40    37    26   ar
    41    34    33   ar
    42    26    33   ar
    43    26    25    1
    44    24    25    1
