@<TRIPOS>MOLECULE
2qk8_MTX_A_1.pdb
 33 35 0 0 0
SMALL
GASTEIGER

@<TRIPOS>ATOM
      1  N1        -3.4950   -6.0660   17.3120 N.2   200  MTX200     -0.2684
      2  C2        -3.9620   -7.3240   17.2380 C.1   200  MTX200      0.2519
      3  NA2       -3.3580   -8.2450   17.9380 N.pl3 200  MTX200     -0.0226
      4  N3        -5.0490   -7.6650   16.4730 N.2   200  MTX200     -0.3033
      5  C4        -5.6860   -6.7350   15.6940 C.2   200  MTX200      0.2728
      6  NA4       -6.8490   -7.1010   15.1010 N.pl3 200  MTX200     -0.0887
      7  C4A       -5.2220   -5.4150   15.7580 C.2   200  MTX200      0.2518
      8  N5        -5.8280   -4.3980   15.0450 N.2   200  MTX200     -0.3917
      9  C6        -5.3590   -3.0800   15.1250 C.2   200  MTX200      0.1330
     10  C7        -4.2700   -2.7840   15.9430 C.3   200  MTX200      0.1930
     11  N8        -3.6560   -3.7940   16.6750 N.2   200  MTX200     -0.1998
     12  C8A       -4.1270   -5.1020   16.5750 C.1   200  MTX200      0.1314
     13  C9        -6.0040   -1.9700   14.3580 C.3   200  MTX200      0.1481
     14  N10       -5.1340   -0.7800   14.2830 N.pl3 200  MTX200     -0.2999
     15  CM        -5.7960    0.5140   14.4610 C.3   200  MTX200      0.1125
     16  C11       -1.5200   -0.7860   12.0370 C.ar  200  MTX200      0.0551
     17  C12       -2.1210    0.4330   12.3890 C.ar  200  MTX200      0.0058
     18  C13       -3.2910    0.4300   13.1380 C.ar  200  MTX200      0.0147
     19  C14       -3.8980   -0.7880   13.5240 C.ar  200  MTX200      0.0482
     20  C15       -3.2750   -1.9910   13.1500 C.ar  200  MTX200      0.0147
     21  C16       -2.1010   -1.9440   12.3790 C.ar  200  MTX200      0.0058
     22  C         -0.2260   -0.8310   11.2560 C.2   200  MTX200      0.2652
     23  O          0.2670    0.3340   10.6240 O.2   200  MTX200     -0.2684
     24  N          0.4100   -2.0050   11.2380 N.am  200  MTX200     -0.1918
     25  CA         1.6370   -2.3060   10.5340 C.3   200  MTX200      0.1986
     26  CT         1.4110   -3.5310    9.6540 C.2   200  MTX200      0.3842
     27  O1         0.7450   -4.5220   10.0970 O.co2 200  MTX200     -0.2437
     28  O2         1.8640   -3.5820    8.4630 O.co2 200  MTX200     -0.2437
     29  CB         2.6880   -2.6170   11.6120 C.3   200  MTX200      0.0451
     30  CG         3.9900   -1.7870   11.6650 C.3   200  MTX200      0.1164
     31  CD         3.7200   -0.3130   11.4530 C.2   200  MTX200      0.3649
     32  OE1        4.0660    0.2550   10.3760 O.co2 200  MTX200     -0.2457
     33  OE2        3.1430    0.3670   12.3370 O.co2 200  MTX200     -0.2457
@<TRIPOS>BOND
     1    28    26   ar
     2    26    27   ar
     3    26    25    1
     4    32    31   ar
     5    25    24    1
     6    25    29    1
     7    23    22    2
     8    24    22   am
     9    22    16    1
    10    31    30    1
    11    31    33   ar
    12    29    30    1
    13    16    21   ar
    14    16    17   ar
    15    21    20   ar
    16    17    18   ar
    17    18    19   ar
    18    20    19   ar
    19    19    14    1
    20    14    13    1
    21    14    15    1
    22    13     9    1
    23     8     9    2
    24     8     7    2
    25     6     5    1
    26     9    10    1
    27     5     7    1
    28     5     4    2
    29     7    12    1
    30    10    11    1
    31     4     2    2
    32    12    11    2
    33    12     1    2
    34     2     1    2
    35     2     3    1
