@<TRIPOS>MOLECULE
2qkm_ATP_B_1.pdb
 31 33 0 0 0
SMALL
GASTEIGER

@<TRIPOS>ATOM
      1  PG        -9.9850  -48.3040   38.5970 P.3   267  ATP267      0.5373
      2  O1G      -10.3370  -49.7820   38.3890 O.3   267  ATP267     -0.1143
      3  O2G      -10.8040  -47.3340   37.7480 O.2   267  ATP267     -0.2221
      4  O3G       -9.8290  -47.8800   40.0610 O.3   267  ATP267     -0.1143
      5  PB        -7.4630  -49.3850   38.0600 P.3   267  ATP267      0.2277
      6  O1B       -7.2390  -49.7850   39.5030 O.3   267  ATP267     -0.4368
      7  O2B       -7.9320  -50.4290   37.0710 O.2   267  ATP267     -0.5168
      8  O3B       -8.4940  -48.1480   38.0050 O.3   267  ATP267     -0.2258
      9  PA        -5.3980  -49.0670   36.1510 P.3   267  ATP267      0.2189
     10  O1A       -4.0600  -49.6600   36.5420 O.3   267  ATP267     -0.4371
     11  O2A       -6.3310  -49.8500   35.2460 O.2   267  ATP267     -0.5170
     12  O3A       -6.1340  -48.6570   37.5230 O.3   267  ATP267     -0.2700
     13  O5'       -5.1900  -47.6060   35.4940 O.3   267  ATP267     -0.3112
     14  C5'       -4.8270  -47.4460   34.1230 C.3   267  ATP267      0.1813
     15  C4'       -3.3690  -47.0050   34.0420 C.3   267  ATP267      0.1821
     16  O4'       -3.0220  -46.2250   35.1910 O.3   267  ATP267     -0.3135
     17  C3'       -2.4180  -48.1920   33.9950 C.3   267  ATP267      0.2184
     18  O3'       -1.6680  -48.1190   32.7780 O.3   267  ATP267     -0.2174
     19  C2'       -1.5120  -48.0740   35.2130 C.3   267  ATP267      0.2570
     20  O2'       -0.1310  -48.1530   34.8440 O.3   267  ATP267     -0.2130
     21  C1'       -1.8090  -46.6980   35.7920 C.3   267  ATP267      0.3186
     22  N9        -1.9220  -46.6820   37.2800 N.pl3 267  ATP267     -0.1439
     23  C8        -3.0360  -46.8930   38.0120 C.3   267  ATP267      0.3377
     24  N7        -2.7870  -46.7820   39.3440 N.2   267  ATP267     -0.2095
     25  C5        -1.4820  -46.4870   39.4780 C.2   267  ATP267      0.2526
     26  C6        -0.5510  -46.2300   40.6020 C.2   267  ATP267      0.4393
     27  N6        -0.9760  -46.2710   41.8830 N.pl3 267  ATP267      0.2180
     28  N1         0.7400  -45.9540   40.3020 N.2   267  ATP267      0.0021
     29  C2         1.1900  -45.9050   39.0300 C.3   267  ATP267      0.5254
     30  N3         0.4030  -46.1260   37.9610 N.2   267  ATP267     -0.0055
     31  C4        -0.9160  -46.4180   38.1170 C.2   267  ATP267      0.3518
@<TRIPOS>BOND
     1    18    17    1
     2    17    15    1
     3    17    19    1
     4    15    14    1
     5    15    16    1
     6    14    13    1
     7    20    19    1
     8    16    21    1
     9    19    21    1
    10    11     9    2
    11    13     9    1
    12    21    22    1
    13     9    10    1
    14     9    12    1
    15     7     5    2
    16    22    23    1
    17    22    31    1
    18    12     5    1
    19     3     1    2
    20    30    31    2
    21    30    29    1
    22     8     5    1
    23     8     1    1
    24    23    24    1
    25     5     6    1
    26    31    25    1
    27     2     1    1
    28     1     4    1
    29    29    28    1
    30    24    25    2
    31    25    26    1
    32    28    26    2
    33    26    27    1
