@<TRIPOS>MOLECULE
2qkn_245_A_1.pdb
 17 18 0 0 0
SMALL
GASTEIGER

@<TRIPOS>ATOM
      1 CL7        34.3500   10.8940    1.3480 Cl    1536  2451536    -0.0613
      2  C1        37.4320    7.2130    3.6290 C.2   1536  2451536     0.3477
      3  O1        36.5050    7.0980    2.8290 O.2   1536  2451536    -0.2484
      4  N2        37.8000    8.3960    4.1190 N.am  1536  2451536    -0.1606
      5  C3        37.2420    9.5440    3.7490 C.ar  1536  2451536     0.0789
      6  C4        37.7790   10.7420    4.2020 C.ar  1536  2451536     0.0374
      7  C5        37.2380   11.9450    3.7600 C.ar  1536  2451536     0.1012
      8  N6        36.2210   11.9560    2.9180 N.ar  1536  2451536    -0.2323
      9  C7        35.6740   10.8210    2.4600 C.ar  1536  2451536     0.1397
     10  C8        36.1690    9.5880    2.8650 C.ar  1536  2451536     0.0474
     11  N9        38.1070    6.1620    4.0860 N.am  1536  2451536    -0.1607
     12  C10       37.8710    4.9160    3.6800 C.ar  1536  2451536     0.0750
     13  C11       36.9130    4.6410    2.7120 C.ar  1536  2451536     0.0167
     14  C12       36.7140    3.3350    2.2770 C.ar  1536  2451536     0.0013
     15  C13       37.4730    2.3020    2.8120 C.ar  1536  2451536     0.0001
     16  C14       38.4310    2.5730    3.7830 C.ar  1536  2451536     0.0013
     17  C15       38.6290    3.8790    4.2140 C.ar  1536  2451536     0.0167
@<TRIPOS>BOND
     1     1     9    1
     2    14    13   ar
     3    14    15   ar
     4     9    10   ar
     5     9     8   ar
     6    13    12   ar
     7    15    16   ar
     8     3     2    2
     9    10     5   ar
    10     8     7   ar
    11     2    11   am
    12     2     4   am
    13    12    11    1
    14    12    17   ar
    15     5     4    1
    16     5     6   ar
    17     7     6   ar
    18    16    17   ar
