@<TRIPOS>MOLECULE
2qkr_IXM_A_1.pdb
 21 24 0 0 0
SMALL
GASTEIGER

@<TRIPOS>ATOM
      1  C1        23.2430    0.3730   15.0550 C.2   401  IXM401      0.0492
      2  C2        22.1500    1.1540   14.7070 C.2   401  IXM401      0.1563
      3  C3        24.3090    1.2580   15.1890 C.2   401  IXM401      0.1150
      4  N4        23.8690    2.4970   14.9340 N.2   401  IXM401     -0.4034
      5  C5        25.5690    0.7610   15.5410 C.3   401  IXM401      0.0850
      6  C7        25.7550   -0.6080   15.7540 C.2   401  IXM401     -0.0187
      7  C9        24.6820   -1.4890   15.6210 C.2   401  IXM401     -0.0040
      8  C11       23.4250   -0.9980   15.2710 C.2   401  IXM401      0.0036
      9  C13       22.5640    2.4910   14.6270 C.2   401  IXM401      0.1635
     10  C14       21.8120    3.6490   14.3210 C.2   401  IXM401      0.1242
     11  C15       22.3950    4.9090   14.2410 C.1   401  IXM401      0.2067
     12  N16       21.4750    5.8310   13.9640 N.2   401  IXM401     -0.3372
     13  C17       20.2860    5.2310   13.8570 C.2   401  IXM401      0.1234
     14  C18       20.4450    3.8530   14.0810 C.2   401  IXM401      0.0233
     15  C19       19.0230    5.7590   13.5840 C.3   401  IXM401      0.0853
     16  C20       17.9040    4.9280   13.5280 C.2   401  IXM401     -0.0229
     17  C21       18.0470    3.5610   13.7480 C.2   401  IXM401     -0.0255
     18  C22       19.3120    3.0310   14.0210 C.3   401  IXM401      0.0551
     19  O23       23.5930    5.1460   14.3970 O.2   401  IXM401     -0.2092
     20  N24       20.9360    0.6500   14.4900 N.2   401  IXM401     -0.0267
     21  O39       20.7110   -0.7010   14.5040 O.2   401  IXM401     -0.1431
@<TRIPOS>BOND
     1    16    15    1
     2    16    17    2
     3    15    13    1
     4    17    18    1
     5    13    12    2
     6    13    14    1
     7    12    11    2
     8    18    14    1
     9    14    10    2
    10    11    10    1
    11    11    19    2
    12    10     9    1
    13    20    21    1
    14    20     2    2
    15     9     2    1
    16     9     4    2
    17     2     1    1
    18     4     3    2
    19     1     3    1
    20     1     8    2
    21     3     5    1
    22     8     7    1
    23     5     6    1
    24     7     6    2
