@<TRIPOS>MOLECULE
2qkx_GN1_A_1.pdb
 19 19 0 0 0
SMALL
GASTEIGER

@<TRIPOS>ATOM
      1  C1'       34.0340   -3.6660   27.2590 C.3   401  GN1401      0.2675
      2  OP1       37.2600   -2.3750   25.6430 O.3   401  GN1401     -0.1145
      3  P         35.7530   -2.2640   25.6880 P.3   401  GN1401      0.5345
      4  OP2       35.1500   -0.8930   25.9400 O.3   401  GN1401     -0.1145
      5  OP3       35.0770   -2.9320   24.3750 O.2   401  GN1401     -0.2223
      6  C2'       33.9320   -3.5350   28.7920 C.3   401  GN1401      0.1846
      7  C3'       34.9020   -4.5320   29.4410 C.3   401  GN1401      0.2094
      8  C4'       34.7840   -5.9630   28.8730 C.3   401  GN1401      0.2136
      9  C5'       34.6880   -6.0280   27.3250 C.3   401  GN1401      0.1834
     10  C6'       34.3520   -7.4370   26.7750 C.3   401  GN1401      0.2142
     11  C8'       33.8660    0.1180   29.9980 C.3   401  GN1401      0.0964
     12  O1'       35.3630   -3.2820   26.8680 O.3   401  GN1401     -0.2425
     13  O3'       34.7450   -4.4960   30.8740 O.3   401  GN1401     -0.2183
     14  O4'       35.9320   -6.6730   29.3360 O.3   401  GN1401     -0.2176
     15  O5'       33.7560   -5.0240   26.8400 O.3   401  GN1401     -0.3259
     16  N2'       34.1990   -2.1650   29.2870 N.am  401  GN1401     -0.1992
     17  C7'       33.2900   -1.1830   29.5030 C.2   401  GN1401      0.2420
     18  O6'       34.8090   -7.7350   25.4330 O.3   401  GN1401     -0.2176
     19  O7'       32.0810   -1.3160   29.3180 O.2   401  GN1401     -0.2733
@<TRIPOS>BOND
     1     5     3    2
     2    18    10    1
     3     2     3    1
     4     3     4    1
     5     3    12    1
     6    10     9    1
     7    15     1    1
     8    15     9    1
     9    12     1    1
    10     1     6    1
    11     9     8    1
    12     6    16    1
    13     6     7    1
    14     8    14    1
    15     8     7    1
    16    16    17   am
    17    19    17    2
    18     7    13    1
    19    17    11    1
