@<TRIPOS>MOLECULE
2qky_13Z_A_1.pdb
 26 27 0 0 0
SMALL
GASTEIGER

@<TRIPOS>ATOM
      1  C1        -9.6440   13.5990   -9.1690 C.3   767  13Z767      0.1178
      2  C2        -9.8640   12.3330  -10.0230 C.3   767  13Z767      0.0600
      3  C3       -11.0460   12.6690  -10.9050 C.3   767  13Z767      0.1824
      4  C4       -11.8540   13.7420  -10.1770 C.3   767  13Z767      0.1287
      5  C5       -11.3640   15.1840   -8.1110 C.2   767  13Z767      0.2435
      6  C6       -12.7540   15.7770   -8.1350 C.3   767  13Z767      0.1737
      7  C7        -8.5170   14.5330   -9.7770 C.3   767  13Z767      0.2469
      8  N1       -10.9880   14.2520   -9.1020 N.am  767  13Z767     -0.2741
      9  N2        -8.1320   16.0770   -7.7670 N.ar  767  13Z767     -0.1090
     10  N3        -7.8780   17.4300   -7.6600 N.ar  767  13Z767     -0.1116
     11  N4       -12.7610   17.0480   -7.3200 N.3   767  13Z767     -0.2087
     12  C8        -8.2420   15.8130   -9.0400 C.ar  767  13Z767      0.2578
     13  C10       -7.6170   19.2880   -9.4320 C.3   767  13Z767      0.0704
     14  F1       -10.5590   13.1160  -12.0680 F     767  13Z767     -0.2354
     15  O1       -10.6180   15.5260   -7.2070 O.2   767  13Z767     -0.2733
     16  O2        -8.8370   14.9140  -11.1240 O.3   767  13Z767     -0.2112
     17  C9        -7.8510   17.8930   -8.8950 C.ar  767  13Z767      0.2253
     18  O3        -8.0740   16.9250   -9.8110 O.2   767  13Z767     -0.4207
     19  C12       -8.8960   19.8240  -10.1070 C.3   767  13Z767      0.0093
     20  C14       -6.4700   19.2560  -10.4550 C.3   767  13Z767      0.0093
     21  C16       -7.2150   20.2480   -8.2970 C.3   767  13Z767      0.0093
     22  C11      -13.1930   18.3990   -7.8970 C.3   767  13Z767      0.0905
     23  C13      -13.4140   18.3680   -9.4180 C.3   767  13Z767      0.0201
     24  C15      -14.4790   18.8200   -7.1540 C.3   767  13Z767      0.1979
     25  C17      -12.0600   19.3940   -7.5900 C.3   767  13Z767      0.0201
     26  O4       -14.5670   18.1630   -5.8850 O.3   767  13Z767     -0.2189
@<TRIPOS>BOND
     1    14     3    1
     2    16     7    1
     3     3     4    1
     4     3     2    1
     5    20    13    1
     6     4     8    1
     7    19    13    1
     8     2     1    1
     9    18    12   ar
    10    18    17   ar
    11     7     1    1
    12     7    12    1
    13    13    17    1
    14    13    21    1
    15    23    22    1
    16     1     8    1
    17     8     5   am
    18    12     9   ar
    19    17    10   ar
    20     6     5    1
    21     6    11    1
    22     5    15    2
    23    22    25    1
    24    22    11    1
    25    22    24    1
    26     9    10   ar
    27    24    26    1
