@<TRIPOS>MOLECULE
2ql1_GAL_C_1.pdb
 11 11 0 0 0
SMALL
GASTEIGER

@<TRIPOS>ATOM
      1  C1       -10.3770   17.5770   -3.8050 C.3     9  GAL9        0.1777
      2  C2       -11.6480   16.7480   -4.0250 C.3     9  GAL9        0.2141
      3  C3       -12.1420   16.2650   -2.6480 C.3     9  GAL9        0.2173
      4  C4       -10.9790   15.7490   -1.7430 C.3     9  GAL9        0.2142
      5  C5        -9.8140   16.7390   -1.7760 C.3     9  GAL9        0.1810
      6  C6        -8.6480   16.3690   -0.8910 C.3     9  GAL9        0.2141
      7  O2       -12.6430   17.4870   -4.7040 O.3     9  GAL9       -0.2176
      8  O3       -13.1430   15.2880   -2.8080 O.3     9  GAL9       -0.2175
      9  O4       -10.4810   14.4540   -2.0960 O.3     9  GAL9       -0.2176
     10  O5        -9.3920   16.8140   -3.1050 O.3     9  GAL9       -0.3481
     11  O6        -9.1000   16.4520    0.4540 O.3     9  GAL9       -0.2176
@<TRIPOS>BOND
     1     7     2    1
     2     2     1    1
     3     2     3    1
     4     1    10    1
     5    10     5    1
     6     8     3    1
     7     3     4    1
     8     9     4    1
     9     5     4    1
    10     5     6    1
    11     6    11    1
