@<TRIPOS>MOLECULE
2ql1_BMA_C_1.pdb
 11 11 0 0 0
SMALL
GASTEIGER

@<TRIPOS>ATOM
      1  C1        -4.8460   25.7690  -11.5680 C.3     3  BMA3        0.1777
      2  C2        -4.8110   25.6850  -13.0810 C.3     3  BMA3        0.2141
      3  C3        -5.6440   24.4980  -13.6510 C.3     3  BMA3        0.2173
      4  C4        -5.4720   23.2070  -12.8640 C.3     3  BMA3        0.2142
      5  C5        -5.4700   23.4960  -11.3730 C.3     3  BMA3        0.1810
      6  C6        -5.0970   22.2480  -10.6100 C.3     3  BMA3        0.2141
      7  O2        -3.4240   25.5700  -13.3560 O.3     3  BMA3       -0.2176
      8  O3        -5.4050   24.1890  -15.0330 O.3     3  BMA3       -0.2175
      9  O4        -6.5850   22.3460  -13.1170 O.3     3  BMA3       -0.2176
     10  O5        -4.5310   24.5020  -11.0340 O.3     3  BMA3       -0.3481
     11  O6        -5.3510   22.5990   -9.2690 O.3     3  BMA3       -0.2176
@<TRIPOS>BOND
     1     8     3    1
     2     3     2    1
     3     3     4    1
     4     7     2    1
     5     9     4    1
     6     2     1    1
     7     4     5    1
     8     1    10    1
     9     5    10    1
    10     5     6    1
    11     6    11    1
