@<TRIPOS>MOLECULE
2ql5_III_E_1.pdb
 36 35 0 0 0
SMALL
GASTEIGER

@<TRIPOS>ATOM
      1  C         47.1340  -10.7500   31.7510 C.2   701  ACE701      0.2423
      2  O         46.8590   -9.6110   31.4610 O.2   701  ACE701     -0.2733
      3  CH3       47.2450  -11.0950   33.2160 C.3   701  ACE701      0.0964
      4  N         47.5250  -11.6620   30.7800 N.am  702  ASP702     -0.1972
      5  CA        47.1790  -13.0850   30.8760 C.3   702  ASP702      0.1839
      6  C         48.1380  -13.8090   31.8110 C.2   702  ASP702      0.2622
      7  O         49.3010  -13.4170   31.9380 O.2   702  ASP702     -0.2715
      8  CB        47.2860  -13.5950   29.4330 C.3   702  ASP702      0.1450
      9  CG        46.2160  -13.0110   28.5090 C.2   702  ASP702      0.3671
     10  OD1       45.0140  -13.0630   28.8560 O.co2 702  ASP702     -0.2456
     11  OD2       46.5800  -12.5110   27.4240 O.co2 702  ASP702     -0.2456
     12  N         47.6350  -14.8550   32.4660 N.am  703  MET703     -0.1963
     13  CA        48.4090  -15.6540   33.4150 C.3   703  MET703      0.1736
     14  C         48.5540  -17.0910   32.9120 C.2   703  MET703      0.2616
     15  O         47.8960  -17.4840   31.9480 O.2   703  MET703     -0.2715
     16  CB        47.7030  -15.6630   34.7700 C.3   703  MET703      0.0427
     17  CG        47.5420  -14.2930   35.4070 C.3   703  MET703      0.0599
     18  SD        49.0700  -13.7100   36.1710 S.3   703  MET703     -0.1393
     19  CE        49.8820  -12.8740   34.7690 C.3   703  MET703      0.0692
     20  N         49.4100  -17.8710   33.5710 N.am  704  GLN704     -0.1963
     21  CA        49.6200  -19.2640   33.1790 C.3   704  GLN704      0.1733
     22  C         49.1440  -20.2490   34.2560 C.2   704  GLN704      0.2613
     23  O         49.1350  -19.9270   35.4450 O.2   704  GLN704     -0.2715
     24  CB        51.1000  -19.5240   32.8660 C.3   704  GLN704      0.0408
     25  CG        51.6970  -18.6560   31.7550 C.3   704  GLN704      0.0908
     26  CD        52.3150  -17.3650   32.2810 C.2   704  GLN704      0.2608
     27  OE1       53.1510  -17.3940   33.1870 O.2   704  GLN704     -0.2717
     28  NE2       51.9140  -16.2300   31.7120 N.am  704  GLN704     -0.0878
     29  N         48.7540  -21.4480   33.8270 N.am  705  ASP705     -0.2025
     30  CA        48.2760  -22.4940   34.7270 C.3   705  ASP705      0.1395
     31  C         49.1180  -23.7350   34.6330 C.3   705  ASP705      0.2041
     32  O         49.8000  -23.9860   35.8610 O.3   705  ASP705     -0.2185
     33  CB        46.8420  -22.8960   34.3820 C.3   705  ASP705      0.1383
     34  CG        45.8170  -21.9440   34.9490 C.2   705  ASP705      0.3667
     35  OD1       44.7730  -21.7370   34.2970 O.co2 705  ASP705     -0.2456
     36  OD2       46.0520  -21.4010   36.0450 O.co2 705  ASP705     -0.2456
@<TRIPOS>BOND
     1    11     9   ar
     2     9    10   ar
     3     9     8    1
     4     8     5    1
     5     4     5    1
     6     4     1   am
     7     5     6    1
     8     2     1    2
     9    28    26   am
    10     1     3    1
    11    25    26    1
    12    25    24    1
    13     6     7    2
    14     6    12   am
    15    15    14    2
    16    26    27    2
    17    12    13    1
    18    24    21    1
    19    14    13    1
    20    14    20   am
    21    21    20    1
    22    21    22    1
    23    13    16    1
    24    29    22   am
    25    29    30    1
    26    22    23    2
    27    35    34   ar
    28    33    30    1
    29    33    34    1
    30    31    30    1
    31    31    32    1
    32    19    18    1
    33    16    17    1
    34    34    36   ar
    35    17    18    1
