@<TRIPOS>MOLECULE
2ql6_ADP_A_1.pdb
 27 29 0 0 0
SMALL
GASTEIGER

@<TRIPOS>ATOM
      1  PB        13.4330   21.3440   60.5670 P.3   301  ADP301      0.5373
      2  O1B       14.1660   22.6070   60.8120 O.3   301  ADP301     -0.1143
      3  O2B       13.4020   20.9340   59.0110 O.2   301  ADP301     -0.2221
      4  O3B       14.0850   20.0860   61.3270 O.3   301  ADP301     -0.1143
      5  PA        10.9270   22.6540   60.7870 P.3   301  ADP301      0.2231
      6  O1A       11.3860   23.3620   59.5720 O.2   301  ADP301     -0.5169
      7  O2A       10.8310   23.4170   62.0510 O.3   301  ADP301     -0.4370
      8  O3A       11.8970   21.3940   61.0570 O.3   301  ADP301     -0.2261
      9  O5'        9.4940   21.9720   60.5050 O.3   301  ADP301     -0.3111
     10  C5'        9.1710   21.4560   59.2090 C.3   301  ADP301      0.1813
     11  C4'        7.6790   21.1450   59.0370 C.3   301  ADP301      0.1821
     12  O4'        7.2260   20.3950   60.1780 O.3   301  ADP301     -0.3135
     13  C3'        6.8570   22.4350   59.0560 C.3   301  ADP301      0.2184
     14  O3'        5.5320   22.1840   58.5820 O.3   301  ADP301     -0.2174
     15  C2'        6.7810   22.6640   60.5620 C.3   301  ADP301      0.2570
     16  O2'        5.7200   23.5820   60.8370 O.3   301  ADP301     -0.2130
     17  C1'        6.3550   21.2470   60.9460 C.3   301  ADP301      0.3186
     18  N9         6.5140   21.0090   62.3990 N.pl3 301  ADP301     -0.1439
     19  C8         7.5050   21.4650   63.1610 C.3   301  ADP301      0.3377
     20  N7         7.3660   21.0030   64.4010 N.2   301  ADP301     -0.2095
     21  C5         6.2720   20.2480   64.4330 C.2   301  ADP301      0.2526
     22  C6         5.6240   19.5340   65.4330 C.2   301  ADP301      0.4393
     23  N6         6.1590   19.4350   66.6480 N.pl3 301  ADP301      0.2180
     24  N1         4.4830   18.8970   65.1280 N.2   301  ADP301      0.0021
     25  C2         3.9850   18.9280   63.9030 C.3   301  ADP301      0.5254
     26  N3         4.5830   19.5860   62.9250 N.2   301  ADP301     -0.0055
     27  C4         5.7220   20.2560   63.1580 C.2   301  ADP301      0.3518
@<TRIPOS>BOND
     1    14    13    1
     2     3     1    2
     3    11    13    1
     4    11    10    1
     5    11    12    1
     6    13    15    1
     7    10     9    1
     8     6     5    2
     9    12    17    1
    10     9     5    1
    11    15    16    1
    12    15    17    1
    13     1     2    1
    14     1     8    1
    15     1     4    1
    16     5     8    1
    17     5     7    1
    18    17    18    1
    19    18    27    1
    20    18    19    1
    21    26    27    2
    22    26    25    1
    23    27    21    1
    24    19    20    1
    25    25    24    1
    26    20    21    2
    27    21    22    1
    28    24    22    2
    29    22    23    1
