@<TRIPOS>MOLECULE
2ql6_TIZ_A_1.pdb
 17 18 0 0 0
SMALL
GASTEIGER

@<TRIPOS>ATOM
      1  O2'       17.9500   17.8200   50.9760 O.3   302  TIZ302     -0.2172
      2  C2'       18.6190   18.7710   51.8110 C.3   302  TIZ302      0.2189
      3  C3'       18.6070   18.3620   53.2860 C.3   302  TIZ302      0.2145
      4  O3'       17.8190   17.1820   53.4690 O.3   302  TIZ302     -0.2176
      5  C4'       17.9550   19.5630   53.9770 C.3   302  TIZ302      0.1814
      6  C5'       18.5660   19.7660   55.3650 C.3   302  TIZ302      0.2141
      7  O5'       17.9030   20.8420   56.0350 O.3   302  TIZ302     -0.2176
      8  O4'       18.2890   20.6550   53.1040 O.3   302  TIZ302     -0.3430
      9  C1'       17.9060   20.1250   51.8250 C.3   302  TIZ302      0.2057
     10  C1M       18.2650   21.0260   50.6390 C.2   302  TIZ302      0.1642
     11  N1H       18.9030   22.1930   50.7230 N.2   302  TIZ302     -0.3963
     12  S1J       17.8090   20.7880   49.0020 S.3   302  TIZ302     -0.0765
     13  C1F       18.4770   22.2690   48.4810 C.3   302  TIZ302      0.1280
     14  C1L       19.0010   22.8500   49.5620 C.2   302  TIZ302      0.1768
     15  C1K       19.6300   24.2450   49.4850 C.2   302  TIZ302      0.3106
     16  O1B       20.1410   24.7740   50.4710 O.2   302  TIZ302     -0.2642
     17  N1A       19.5580   24.8250   48.2900 N.am  302  TIZ302     -0.0817
@<TRIPOS>BOND
     1    17    15   am
     2    13    12    1
     3    13    14    1
     4    12    10    1
     5    15    14    1
     6    15    16    2
     7    14    11    2
     8    10    11    2
     9    10     9    1
    10     1     2    1
    11     2     9    1
    12     2     3    1
    13     9     8    1
    14     8     5    1
    15     3     4    1
    16     3     5    1
    17     5     6    1
    18     6     7    1
