@<TRIPOS>MOLECULE
2ql7_III_E_1.pdb
 35 35 0 0 0
SMALL
GASTEIGER

@<TRIPOS>ATOM
      1  C        -58.5080   29.1090   -1.0780 C.2   701  ACE701      0.2423
      2  O        -59.6950   28.9310   -1.2030 O.2   701  ACE701     -0.2733
      3  CH3      -57.7750   29.8540   -2.1690 C.3   701  ACE701      0.0964
      4  N        -57.8350   28.6660    0.0450 N.am  702  ILE702     -0.1978
      5  CA       -56.4110   28.3170   -0.0010 C.3   702  ILE702      0.1726
      6  C        -56.1200   27.1230   -0.9110 C.2   702  ILE702      0.2616
      7  O        -56.8550   26.1340   -0.9120 O.2   702  ILE702     -0.2715
      8  CB       -55.9180   28.0170    1.4260 C.3   702  ILE702      0.0290
      9  CG1      -54.3960   28.1060    1.4690 C.3   702  ILE702      0.0022
     10  CG2      -56.3680   26.6240    1.8630 C.3   702  ILE702      0.0023
     11  CD1      -53.8510   28.1300    2.8530 C.3   702  ILE702      0.0001
     12  N        -55.0400   27.2290   -1.6810 N.am  703  GLU703     -0.1964
     13  CA       -54.6340   26.1820   -2.6130 C.3   703  GLU703      0.1718
     14  C        -53.3820   25.4500   -2.1390 C.2   703  GLU703      0.2458
     15  O        -52.5230   26.0350   -1.4820 O.2   703  GLU703     -0.2730
     16  CB       -54.3740   26.7910   -3.9930 C.3   703  GLU703      0.0428
     17  CG       -55.6220   27.2720   -4.7130 C.3   703  GLU703      0.1163
     18  CD       -55.3100   28.2350   -5.8470 C.2   703  GLU703      0.3649
     19  OE1      -54.3950   27.9460   -6.6540 O.co2 703  GLU703     -0.2457
     20  OE2      -55.9890   29.2830   -5.9350 O.co2 703  GLU703     -0.2457
     21  N        -53.2720   24.1490   -2.4590 N.am  704  PRO704     -0.2716
     22  CA       -52.1230   23.3170   -2.0750 C.3   704  PRO704      0.1535
     23  C        -50.9780   23.3180   -3.1010 C.2   704  PRO704      0.2595
     24  O        -51.1690   23.6910   -4.2590 O.2   704  PRO704     -0.2716
     25  CB       -52.7470   21.9380   -1.9030 C.3   704  PRO704      0.0310
     26  CG       -53.7850   21.9260   -2.9810 C.3   704  PRO704      0.0237
     27  CD       -54.4060   23.3080   -2.8940 C.3   704  PRO704      0.0939
     28  C        -47.9080   21.4870   -3.4680 C.3   705  ASJ705      0.2041
     29  N        -49.7960   22.8870   -2.6620 N.am  705  ASJ705     -0.2025
     30  O        -48.0270   20.8300   -4.7270 O.3   705  ASJ705     -0.2185
     31  CA       -48.6040   22.8350   -3.5090 C.3   705  ASJ705      0.1395
     32  CB       -47.5930   23.8910   -3.0690 C.3   705  ASJ705      0.1383
     33  CG       -47.7310   25.1820   -3.8390 C.2   705  ASJ705      0.3667
     34  OD1      -47.2380   26.2200   -3.3480 O.co2 705  ASJ705     -0.2456
     35  OD2      -48.3330   25.1580   -4.9330 O.co2 705  ASJ705     -0.2456
@<TRIPOS>BOND
     1    19    18   ar
     2    20    18   ar
     3    18    17    1
     4    35    33   ar
     5    30    28    1
     6    17    16    1
     7    24    23    2
     8    16    13    1
     9    33    34   ar
    10    33    32    1
    11    31    28    1
    12    31    32    1
    13    31    29    1
    14    23    29   am
    15    23    22    1
    16    26    27    1
    17    26    25    1
    18    27    21    1
    19    13    14    1
    20    13    12    1
    21    21    14   am
    22    21    22    1
    23     3     1    1
    24    14    15    2
    25    22    25    1
    26    12     6   am
    27     2     1    2
    28     1     4   am
    29     7     6    2
    30     6     5    1
    31     5     4    1
    32     5     8    1
    33     8     9    1
    34     8    10    1
    35     9    11    1
