@<TRIPOS>MOLECULE
2ql9_III_E_1.pdb
 36 35 0 0 0
SMALL
GASTEIGER

@<TRIPOS>ATOM
      1  C        -57.7270   29.4510   -0.5000 C.2   701  ACE701      0.2423
      2  O        -58.7500   30.0580   -0.2840 O.2   701  ACE701     -0.2733
      3  CH3      -57.2940   29.3060   -1.9370 C.3   701  ACE701      0.0964
      4  N        -57.0810   28.7610    0.5160 N.am  702  ASP702     -0.1972
      5  CA       -55.6930   28.2940    0.3850 C.3   702  ASP702      0.1839
      6  C        -55.5730   27.0860   -0.5360 C.2   702  ASP702      0.2622
      7  O        -56.5030   26.2870   -0.6440 O.2   702  ASP702     -0.2715
      8  CB       -55.2870   27.9510    1.8190 C.3   702  ASP702      0.1450
      9  CG       -55.2470   29.1660    2.7220 C.2   702  ASP702      0.3671
     10  OD1      -54.5940   30.1610    2.3450 O.co2 702  ASP702     -0.2456
     11  OD2      -55.8560   29.1240    3.8130 O.co2 702  ASP702     -0.2456
     12  N        -54.4300   26.9660   -1.2030 N.am  703  GLN703     -0.1963
     13  CA       -54.1830   25.8580   -2.1140 C.3   703  GLN703      0.1733
     14  C        -52.9520   25.0810   -1.6610 C.2   703  GLN703      0.2616
     15  O        -52.1140   25.6080   -0.9250 O.2   703  GLN703     -0.2715
     16  CB       -53.9570   26.3810   -3.5340 C.3   703  GLN703      0.0408
     17  CG       -55.0800   27.2470   -4.0670 C.3   703  GLN703      0.0908
     18  CD       -54.8770   27.6230   -5.5220 C.2   703  GLN703      0.2608
     19  OE1      -53.8800   28.2570   -5.8850 O.2   703  GLN703     -0.2717
     20  NE2      -55.8240   27.2280   -6.3690 N.am  703  GLN703     -0.0878
     21  N        -52.8430   23.8310   -2.1060 N.am  704  MET704     -0.1963
     22  CA       -51.7080   22.9930   -1.7420 C.3   704  MET704      0.1736
     23  C        -50.6510   22.9490   -2.8410 C.2   704  MET704      0.2613
     24  O        -50.9650   23.0830   -4.0260 O.2   704  MET704     -0.2715
     25  CB       -52.1710   21.5680   -1.4330 C.3   704  MET704      0.0427
     26  CG       -53.0690   21.4510   -0.2160 C.3   704  MET704      0.0599
     27  SD       -54.6770   20.7520   -0.6270 S.3   704  MET704     -0.1393
     28  CE       -55.6220   22.2370   -0.9090 C.3   704  MET704      0.0692
     29  C        -47.6120   21.3080   -3.2650 C.3   705  ASJ705      0.2041
     30  N        -49.3990   22.7590   -2.4270 N.am  705  ASJ705     -0.2025
     31  O        -47.7660   20.6080   -4.4900 O.3   705  ASJ705     -0.2185
     32  CA       -48.2560   22.6740   -3.3300 C.3   705  ASJ705      0.1395
     33  CB       -47.1810   23.6890   -2.9420 C.3   705  ASJ705      0.1383
     34  CG       -47.3610   25.0230   -3.6220 C.2   705  ASJ705      0.3667
     35  OD1      -46.9420   26.0390   -3.0280 O.co2 705  ASJ705     -0.2456
     36  OD2      -47.9140   25.0590   -4.7430 O.co2 705  ASJ705     -0.2456
@<TRIPOS>BOND
     1    20    18   am
     2    19    18    2
     3    18    17    1
     4    36    34   ar
     5    31    29    1
     6    17    16    1
     7    24    23    2
     8    34    35   ar
     9    34    33    1
    10    16    13    1
    11    32    29    1
    12    32    33    1
    13    32    30    1
    14    23    30   am
    15    23    22    1
    16    13    14    1
    17    13    12    1
    18    21    22    1
    19    21    14   am
    20     3     1    1
    21    22    25    1
    22    14    15    2
    23    25    26    1
    24    12     6   am
    25    28    27    1
    26     7     6    2
    27    27    26    1
    28     6     5    1
    29     1     2    2
    30     1     4   am
    31     5     4    1
    32     5     8    1
    33     8     9    1
    34    10     9   ar
    35     9    11   ar
