@<TRIPOS>MOLECULE
2qla_HEM_A_1.pdb
 43 50 0 0 0
SMALL
GASTEIGER

@<TRIPOS>ATOM
      1 FE         26.1510  -11.2500   16.0110 Fe    150  HEM150      0.0000
      2  CHA       27.6180  -14.2000   16.5080 C.2   150  HEM150      0.0000
      3  CHB       23.3260  -12.6090   15.2080 C.2   150  HEM150      0.0000
      4  CHC       24.7620   -8.0580   15.7080 C.2   150  HEM150      0.0000
      5  CHD       29.0840   -9.6000   17.0520 C.2   150  HEM150      0.0000
      6  NA        25.6280  -13.0560   15.8220 N.ar  150  HEM150      0.0000
      7  C1A       26.3070  -14.2320   16.0640 C.ar  150  HEM150      0.0000
      8  C2A       25.4190  -15.4150   15.8470 C.ar  150  HEM150      0.0000
      9  C3A       24.2470  -14.8870   15.4700 C.ar  150  HEM150      0.0000
     10  C4A       24.3680  -13.4570   15.4700 C.ar  150  HEM150      0.0000
     11  CMA       23.0150  -15.6750   15.0750 C.3   150  HEM150      0.0000
     12  CAA       25.5590  -16.9490   15.9610 C.3   150  HEM150      0.0000
     13  CBA       26.8330  -17.6380   16.4420 C.3   150  HEM150      0.0000
     14  CGA       26.8610  -17.8610   17.9440 C.2   150  HEM150      0.0000
     15  O1A       26.7780  -16.8780   18.7060 O.co2 150  HEM150      0.0000
     16  O2A       26.9710  -19.0310   18.3630 O.co2 150  HEM150      0.0000
     17  NB        24.4310  -10.4600   15.5830 N.2   150  HEM150      0.0000
     18  C1B       23.3250  -11.2390   15.2480 C.2   150  HEM150      0.0000
     19  C2B       22.1530  -10.4370   14.8930 C.2   150  HEM150      0.0000
     20  C3B       22.5730   -9.1320   14.9990 C.2   150  HEM150      0.0000
     21  C4B       23.9860   -9.1580   15.4450 C.2   150  HEM150      0.0000
     22  CMB       20.7630  -10.9290   14.4800 C.3   150  HEM150      0.0000
     23  CAB       21.8090   -8.0070   14.6730 C.3   150  HEM150      0.0000
     24  CBB       20.5230   -7.7620   15.1400 C.3   150  HEM150      0.0000
     25  NC        26.7930   -9.1720   16.3550 N.ar  150  HEM150      0.0000
     26  C1C       26.0680   -8.0500   16.1290 C.ar  150  HEM150      0.0000
     27  C2C       26.8690   -6.8550   16.3420 C.ar  150  HEM150      0.0000
     28  C3C       28.1230   -7.2840   16.7000 C.ar  150  HEM150      0.0000
     29  C4C       28.0430   -8.7300   16.7130 C.ar  150  HEM150      0.0000
     30  CMC       26.3970   -5.3850   16.2270 C.3   150  HEM150      0.0000
     31  CAC       29.2620   -6.5090   16.9880 C.3   150  HEM150      0.0000
     32  CBC       29.3040   -5.3640   17.7860 C.3   150  HEM150      0.0000
     33  ND        27.9710  -11.7610   16.6620 N.2   150  HEM150      0.0000
     34  C1D       29.0640  -10.9910   17.0500 C.2   150  HEM150      0.0000
     35  C2D       30.2040  -11.8240   17.4370 C.2   150  HEM150      0.0000
     36  C3D       29.7930  -13.1120   17.2800 C.2   150  HEM150      0.0000
     37  C4D       28.4060  -13.0740   16.7890 C.2   150  HEM150      0.0000
     38  CMD       31.5770  -11.3650   17.9530 C.3   150  HEM150      0.0000
     39  CAD       30.5930  -14.3260   17.6960 C.3   150  HEM150      0.0000
     40  CBD       30.0220  -14.8500   19.0090 C.3   150  HEM150      0.0000
     41  CGD       30.6490  -16.1620   19.4300 C.2   150  HEM150      0.0000
     42  O1D       31.7710  -16.1260   19.9830 O.co2 150  HEM150      0.0000
     43  O2D       30.0270  -17.2290   19.1950 O.co2 150  HEM150      0.0000
@<TRIPOS>BOND
     1    22    19    1
     2    23    20    1
     3    23    24    1
     4    19    20    2
     5    19    18    1
     6    20    21    1
     7    11     9    1
     8     3    18    1
     9     3    10    2
    10    18    17    2
    11    21    17    1
    12    21     4    2
    13     9    10   ar
    14     9     8   ar
    15    10     6   ar
    16    17     1    1
    17     4    26    1
    18     6     1    1
    19     6     7   ar
    20     8    12    1
    21     8     7   ar
    22    12    13    1
    23     1    25    1
    24     1    33    1
    25     7     2    2
    26    26    27   ar
    27    26    25   ar
    28    30    27    1
    29    27    28   ar
    30    25    29   ar
    31    13    14    1
    32     2    37    1
    33    33    37    2
    34    33    34    1
    35    28    29   ar
    36    28    31    1
    37    29     5    1
    38    37    36    1
    39    31    32    1
    40    34     5    2
    41    34    35    1
    42    36    35    2
    43    36    39    1
    44    35    38    1
    45    39    40    1
    46    14    16   ar
    47    14    15   ar
    48    40    41    1
    49    43    41   ar
    50    41    42   ar
