@<TRIPOS>MOLECULE
2qlb_III_E_1.pdb
 34 33 0 0 0
SMALL
GASTEIGER

@<TRIPOS>ATOM
      1  C        -33.4250   36.0940  -32.2790 C.2   701  ACE701      0.2423
      2  O        -32.7900   37.1140  -32.1200 O.2   701  ACE701     -0.2733
      3  CH3      -33.2180   35.3170  -33.5590 C.3   701  ACE701      0.0964
      4  N        -34.2870   35.6270  -31.2990 N.am  702  GLU702     -0.1978
      5  CA       -35.3520   34.6600  -31.5980 C.3   702  GLU702      0.1733
      6  C        -36.4830   35.1930  -32.4680 C.2   702  GLU702      0.2617
      7  O        -36.7700   36.3910  -32.4660 O.2   702  GLU702     -0.2715
      8  CB       -35.8590   34.2430  -30.2190 C.3   702  GLU702      0.0429
      9  CG       -35.0850   33.1000  -29.5910 C.3   702  GLU702      0.1163
     10  CD       -34.5790   33.4370  -28.2070 C.2   702  GLU702      0.3649
     11  OE1      -34.0180   32.5370  -27.5440 O.co2 702  GLU702     -0.2457
     12  OE2      -34.7380   34.6040  -27.7860 O.co2 702  GLU702     -0.2457
     13  N        -37.1130   34.2870  -33.2140 N.am  703  SER703     -0.1936
     14  CA       -38.2370   34.6280  -34.0810 C.3   703  SER703      0.2055
     15  C        -39.4920   33.9120  -33.5780 C.2   703  SER703      0.2643
     16  O        -39.4170   33.0770  -32.6760 O.2   703  SER703     -0.2714
     17  CB       -37.9390   34.2430  -35.5350 C.3   703  SER703      0.2130
     18  OG       -37.5270   32.8950  -35.6390 O.3   703  SER703     -0.2179
     19  N        -40.6400   34.2340  -34.1650 N.am  704  MET704     -0.1962
     20  CA       -41.9050   33.6470  -33.7370 C.3   704  MET704      0.1736
     21  C        -42.5900   32.7550  -34.7700 C.2   704  MET704      0.2613
     22  O        -42.4040   32.9250  -35.9780 O.2   704  MET704     -0.2715
     23  CB       -42.8480   34.7710  -33.3090 C.3   704  MET704      0.0427
     24  CG       -42.2890   35.6050  -32.1670 C.3   704  MET704      0.0599
     25  SD       -42.8500   37.3140  -32.1990 S.3   704  MET704     -0.1393
     26  CE       -41.5660   38.0640  -33.2050 C.3   704  MET704      0.0692
     27  C        -45.6270   31.0220  -35.0070 C.3   705  ASJ705      0.2041
     28  N        -43.3900   31.8080  -34.2740 N.am  705  ASJ705     -0.2025
     29  O        -46.1940   31.4220  -36.2600 O.3   705  ASJ705     -0.2185
     30  CA       -44.1230   30.8560  -35.1110 C.3   705  ASJ705      0.1395
     31  CB       -43.8030   29.4200  -34.6990 C.3   705  ASJ705      0.1383
     32  CG       -42.5320   28.9050  -35.3190 C.2   705  ASJ705      0.3667
     33  OD1      -41.9080   28.0050  -34.7170 O.co2 705  ASJ705     -0.2456
     34  OD2      -42.1600   29.4010  -36.4050 O.co2 705  ASJ705     -0.2456
@<TRIPOS>BOND
     1    34    32   ar
     2    29    27    1
     3    22    21    2
     4    18    17    1
     5    17    14    1
     6    32    33   ar
     7    32    31    1
     8    30    27    1
     9    30    31    1
    10    30    28    1
    11    21    28   am
    12    21    20    1
    13    19    20    1
    14    19    15   am
    15    14    15    1
    16    14    13    1
    17    20    23    1
    18    15    16    2
    19     3     1    1
    20    23    24    1
    21    13     6   am
    22    26    25    1
    23     6     7    2
    24     6     5    1
    25     1     2    2
    26     1     4   am
    27    25    24    1
    28     5     4    1
    29     5     8    1
    30     8     9    1
    31     9    10    1
    32    10    12   ar
    33    10    11   ar
