@<TRIPOS>MOLECULE
2qlf_III_E_1.pdb
 35 34 0 0 0
SMALL
GASTEIGER

@<TRIPOS>ATOM
      1  C        -47.1520   10.7830   31.6460 C.2   701  ACE701      0.2423
      2  O        -46.6520    9.7940   31.1800 O.2   701  ACE701     -0.2733
      3  CH3      -47.4010   10.8180   33.1390 C.3   701  ACE701      0.0964
      4  N        -47.6810   11.7670   30.8280 N.am  702  ASP702     -0.1972
      5  CA       -47.2950   13.1760   30.9770 C.3   702  ASP702      0.1839
      6  C        -48.2020   13.9010   31.9720 C.2   702  ASP702      0.2622
      7  O        -49.3380   13.4740   32.2130 O.2   702  ASP702     -0.2715
      8  CB       -47.4220   13.7420   29.5570 C.3   702  ASP702      0.1450
      9  CG       -46.3980   13.1540   28.5880 C.2   702  ASP702      0.3671
     10  OD1      -45.1820   13.2570   28.8640 O.co2 702  ASP702     -0.2456
     11  OD2      -46.8040   12.5980   27.5440 O.co2 702  ASP702     -0.2456
     12  N        -47.6870   14.9870   32.5490 N.am  703  ASN703     -0.1958
     13  CA       -48.4290   15.7870   33.5230 C.3   703  ASN703      0.1819
     14  C        -48.7350   17.1640   32.9560 C.2   703  ASN703      0.2621
     15  O        -48.2260   17.5320   31.9000 O.2   703  ASN703     -0.2715
     16  CB       -47.6130   15.9490   34.8030 C.3   703  ASN703      0.1195
     17  CG       -47.3310   14.6290   35.4880 C.2   703  ASN703      0.2630
     18  OD1      -46.6180   14.5840   36.4900 O.2   703  ASN703     -0.2716
     19  ND2      -47.8900   13.5460   34.9570 N.am  703  ASN703     -0.0877
     20  N        -49.5650   17.9230   33.6650 N.am  704  LEU704     -0.1963
     21  CA       -49.9300   19.2670   33.2310 C.3   704  LEU704      0.1728
     22  C        -49.4230   20.3220   34.2200 C.2   704  LEU704      0.2613
     23  O        -49.4770   20.1190   35.4370 O.2   704  LEU704     -0.2715
     24  CB       -51.4480   19.3780   33.0820 C.3   704  LEU704      0.0311
     25  CG       -52.1330   18.4090   32.1130 C.3   704  LEU704      0.0022
     26  CD1      -53.6310   18.6620   32.1410 C.3   704  LEU704      0.0001
     27  CD2      -51.5950   18.5930   30.7060 C.3   704  LEU704      0.0001
     28  C        -49.2630   23.7960   34.4730 C.3   705  ASJ705      0.2041
     29  N        -48.9420   21.4470   33.6860 N.am  705  ASJ705     -0.2025
     30  O        -49.8620   24.0430   35.7460 O.3   705  ASJ705     -0.2185
     31  CA       -48.3990   22.5440   34.4910 C.3   705  ASJ705      0.1395
     32  CB       -47.0130   22.9360   33.9800 C.3   705  ASJ705      0.1383
     33  CG       -45.8990   22.2330   34.7190 C.2   705  ASJ705      0.3667
     34  OD1      -44.8230   22.0230   34.1170 O.co2 705  ASJ705     -0.2456
     35  OD2      -46.1030   21.8910   35.9050 O.co2 705  ASJ705     -0.2456
@<TRIPOS>BOND
     1    11     9   ar
     2     9    10   ar
     3     9     8    1
     4     8     5    1
     5    27    25    1
     6     4     5    1
     7     4     1   am
     8     5     6    1
     9     2     1    2
    10     1     3    1
    11    15    14    2
    12     6     7    2
    13     6    12   am
    14    25    26    1
    15    25    24    1
    16    12    13    1
    17    14    13    1
    18    14    20   am
    19    24    21    1
    20    21    20    1
    21    21    22    1
    22    13    16    1
    23    29    22   am
    24    29    31    1
    25    32    31    1
    26    32    33    1
    27    34    33   ar
    28    22    23    2
    29    28    31    1
    30    28    30    1
    31    33    35   ar
    32    16    17    1
    33    19    17   am
    34    17    18    2
