@<TRIPOS>MOLECULE
2qlj_III_E_1.pdb
 44 46 0 0 0
SMALL
GASTEIGER

@<TRIPOS>ATOM
      1  C        -33.2670   35.9000  -32.3370 C.2   701  ACE701      0.2423
      2  O        -33.0060   37.0570  -32.1090 O.2   701  ACE701     -0.2733
      3  CH3      -32.0090   35.1070  -32.8830 C.3   701  ACE701      0.0964
      4  N        -34.0400   35.0190  -31.9180 N.am  702  TRP702     -0.1974
      5  CA       -35.2830   34.5350  -31.3940 C.3   702  TRP702      0.1768
      6  C        -36.4330   35.1350  -32.2950 C.2   702  TRP702      0.2619
      7  O        -36.6870   36.3260  -32.2650 O.2   702  TRP702     -0.2715
      8  CB       -35.5670   34.9220  -29.9180 C.3   702  TRP702      0.0553
      9  CG       -34.8090   33.9980  -29.0010 C.2   702  TRP702     -0.0136
     10  CD1      -35.1770   32.7220  -28.7100 C.2   702  TRP702      0.0907
     11  CD2      -33.6150   34.2700  -28.2320 C.3   702  TRP702      0.0819
     12  NE1      -34.3030   32.1870  -27.7890 N.2   702  TRP702     -0.2482
     13  CE2      -33.3520   33.1060  -27.4800 C.2   702  TRP702      0.0665
     14  CE3      -32.7340   35.3540  -28.0420 C.2   702  TRP702     -0.0164
     15  CZ2      -32.2850   32.9990  -26.5820 C.2   702  TRP702      0.0153
     16  CZ3      -31.6810   35.2420  -27.1620 C.2   702  TRP702     -0.0038
     17  CH2      -31.4650   34.0850  -26.4320 C.2   702  TRP702      0.0009
     18  N        -37.1470   34.2960  -33.0930 N.am  703  GLU703     -0.1963
     19  CA       -38.2640   34.7480  -33.9650 C.3   703  GLU703      0.1733
     20  C        -39.5300   34.0790  -33.4500 C.2   703  GLU703      0.2616
     21  O        -39.5350   33.5940  -32.3270 O.2   703  GLU703     -0.2715
     22  CB       -38.0230   34.3030  -35.4120 C.3   703  GLU703      0.0429
     23  CG       -36.5600   34.3200  -35.8300 C.3   703  GLU703      0.1163
     24  CD       -36.3530   33.8190  -37.2480 C.2   703  GLU703      0.3649
     25  OE1      -35.1810   33.6540  -37.6590 O.co2 703  GLU703     -0.2457
     26  OE2      -37.3640   33.5930  -37.9500 O.co2 703  GLU703     -0.2457
     27  N        -40.5920   34.0320  -34.2500 N.am  704  HIS704     -0.1959
     28  CA       -41.8140   33.3760  -33.7950 C.3   704  HIS704      0.1784
     29  C        -42.5860   32.6540  -34.8990 C.2   704  HIS704      0.2616
     30  O        -42.4080   32.9350  -36.0860 O.2   704  HIS704     -0.2715
     31  CB       -42.7350   34.3780  -33.0780 C.3   704  HIS704      0.0745
     32  CG       -43.1600   35.5360  -33.9280 C.2   704  HIS704      0.0653
     33  ND1      -42.3160   36.5790  -34.2440 N.2   704  HIS704     -0.2310
     34  CD2      -44.3420   35.8130  -34.5280 C.3   704  HIS704      0.1683
     35  CE1      -42.9600   37.4500  -35.0010 C.2   704  HIS704      0.1939
     36  NE2      -44.1910   37.0090  -35.1890 N.2   704  HIS704     -0.2440
     37  C        -45.7440   31.1880  -35.2250 C.3   705  ASJ705      0.2041
     38  N        -43.4360   31.7130  -34.4880 N.am  705  ASJ705     -0.2025
     39  O        -46.2980   31.7960  -36.4070 O.3   705  ASJ705     -0.2185
     40  CA       -44.2540   30.9250  -35.4090 C.3   705  ASJ705      0.1395
     41  CB       -44.0180   29.4240  -35.2040 C.3   705  ASJ705      0.1383
     42  CG       -42.5820   29.0090  -35.4630 C.2   705  ASJ705      0.3667
     43  OD1      -42.0580   28.1770  -34.6960 O.co2 705  ASJ705     -0.2456
     44  OD2      -41.9780   29.5070  -36.4340 O.co2 705  ASJ705     -0.2456
@<TRIPOS>BOND
     1    26    24   ar
     2    25    24   ar
     3    24    23    1
     4    44    42   ar
     5    39    37    1
     6    30    29    2
     7    23    22    1
     8    42    41    1
     9    42    43   ar
    10    22    19    1
    11    40    37    1
    12    40    41    1
    13    40    38    1
    14    36    35    2
    15    36    34    1
    16    35    33    1
    17    29    38   am
    18    29    28    1
    19    34    32    1
    20    27    28    1
    21    27    20   am
    22    33    32    2
    23    19    20    1
    24    19    18    1
    25    32    31    1
    26    28    31    1
    27    20    21    2
    28    18     6   am
    29     3     1    1
    30     1     2    2
    31     1     4   am
    32     6     7    2
    33     6     5    1
    34     4     5    1
    35     5     8    1
    36     8     9    1
    37     9    10    2
    38     9    11    1
    39    10    12    1
    40    11    14    1
    41    11    13    1
    42    14    16    2
    43    12    13    2
    44    13    15    1
    45    16    17    1
    46    15    17    2
