@<TRIPOS>MOLECULE
2qll_PLP_A_1.pdb
 15 16 0 0 0
SMALL
GASTEIGER

@<TRIPOS>ATOM
      1  N1        25.6460   72.6650   37.7420 N.2   999  PLP999     -0.2716
      2  C2        24.8370   71.6530   38.0400 C.2   999  PLP999      0.0661
      3  C2A       24.1590   71.5560   39.3830 C.3   999  PLP999      0.0498
      4  C3        24.6810   70.7360   37.0240 C.3   999  PLP999      0.2052
      5  O3        23.8870   69.7660   37.3190 O.3   999  PLP999     -0.2125
      6  C4        25.2920   70.7950   35.8050 C.2   999  PLP999     -0.0101
      7  C4A       25.3720   69.9810   34.5060 C.3   999  PLP999      0.0588
      8  C5        26.0420   71.7240   35.4750 C.2   999  PLP999      0.0023
      9  C6        26.2360   72.6620   36.4230 C.3   999  PLP999      0.1487
     10  C5A       26.5120   71.4360   33.9760 C.3   999  PLP999      0.1500
     11  O4P       27.1440   72.5850   33.3710 O.3   999  PLP999     -0.2682
     12  P         26.6470   73.6820   32.2680 P.3   999  PLP999      0.5328
     13  O1P       27.2830   75.0270   32.6480 O.3   999  PLP999     -0.1145
     14  O2P       27.5680   72.9430   31.1530 O.2   999  PLP999     -0.2224
     15  O3P       25.1090   73.4410   32.3600 O.3   999  PLP999     -0.1145
@<TRIPOS>BOND
     1    14    12    2
     2    12    15    1
     3    12    13    1
     4    12    11    1
     5    11    10    1
     6    10     7    1
     7    10     8    1
     8     7     6    1
     9     8     6    2
    10     8     9    1
    11     6     4    1
    12     9     1    1
    13     4     5    1
    14     4     2    1
    15     1     2    2
    16     2     3    1
