@<TRIPOS>MOLECULE
2qll_III_B_1.pdb
 36 38 0 0 0
SMALL
GASTEIGER

@<TRIPOS>ATOM
      1  N         52.6650   43.7300   50.1140 N.3   281  GLY281     -0.1210
      2  CA        51.2820   43.5840   50.5470 C.3   281  GLY281      0.1940
      3  C         50.3540   44.5070   49.7750 C.2   281  GLY281      0.2454
      4  O         50.6930   45.6700   49.5440 O.2   281  GLY281     -0.2732
      5  N         49.1740   43.9960   49.3540 N.am  282  PRO282     -0.2717
      6  CA        48.1170   44.6730   48.5700 C.3   282  PRO282      0.1535
      7  C         47.8440   46.0910   49.0460 C.2   282  PRO282      0.2599
      8  O         47.7850   46.3370   50.2450 O.2   282  PRO282     -0.2715
      9  CB        46.8610   43.8160   48.8230 C.3   282  PRO282      0.0310
     10  CG        47.3050   42.6170   49.6090 C.3   282  PRO282      0.0237
     11  CD        48.6310   42.9550   50.2460 C.3   282  PRO282      0.0939
     12  N         47.7390   47.0270   48.1030 N.am  283  TYR283     -0.1960
     13  CA        47.4010   48.4330   48.3980 C.3   283  TYR283      0.1771
     14  C         46.1940   48.8530   47.5460 C.2   283  TYR283      0.2620
     15  O         46.3190   49.1150   46.3440 O.2   283  TYR283     -0.2715
     16  CB        48.5760   49.4020   48.1860 C.3   283  TYR283      0.0574
     17  CG        48.2840   50.8390   48.6450 C.ar  283  TYR283     -0.0198
     18  CD1       48.2250   51.1640   49.9850 C.ar  283  TYR283     -0.0009
     19  CD2       48.0790   51.8610   47.7320 C.ar  283  TYR283     -0.0009
     20  CE1       47.9190   52.4510   50.4030 C.ar  283  TYR283      0.0417
     21  CE2       47.7790   53.1570   48.1480 C.ar  283  TYR283      0.0417
     22  CZ        47.7360   53.4400   49.4710 C.ar  283  TYR283      0.1957
     23  OH        47.5020   54.7210   49.8770 O.3   283  TYR283     -0.2866
     24  N         45.0220   48.8810   48.1740 N.am  284  TYR284     -0.1938
     25  CA        43.7750   49.2380   47.4810 C.3   284  TYR284      0.2021
     26  C         43.6660   50.7580   47.2900 C.2   284  TYR284      0.3845
     27  O         44.4620   51.5240   47.9030 O.co2 284  TYR284     -0.2437
     28  CB        42.5740   48.7250   48.2850 C.3   284  TYR284      0.0596
     29  CG        42.5210   47.2020   48.4470 C.ar  284  TYR284     -0.0197
     30  CD1       43.0890   46.3490   47.5060 C.ar  284  TYR284     -0.0009
     31  CD2       41.8390   46.6250   49.5090 C.ar  284  TYR284     -0.0009
     32  CE1       43.0040   44.9770   47.6540 C.ar  284  TYR284      0.0417
     33  CE2       41.7230   45.2500   49.6580 C.ar  284  TYR284      0.0417
     34  CZ        42.3300   44.4330   48.7540 C.ar  284  TYR284      0.1957
     35  OH        42.1810   43.0790   48.9100 O.3   284  TYR284     -0.2866
     36  OXT       42.7470   51.1720   46.5530 O.co2 284  TYR284     -0.2437
@<TRIPOS>BOND
     1    15    14    2
     2    36    26   ar
     3    26    25    1
     4    26    27   ar
     5    25    24    1
     6    25    28    1
     7    30    32   ar
     8    30    29   ar
     9    14    24   am
    10    14    13    1
    11    32    34   ar
    12    19    21   ar
    13    19    17   ar
    14    12    13    1
    15    12     7   am
    16    21    22   ar
    17    16    13    1
    18    16    17    1
    19    28    29    1
    20    29    31   ar
    21     6     9    1
    22     6     7    1
    23     6     5    1
    24    17    18   ar
    25    34    35    1
    26    34    33   ar
    27     9    10    1
    28     7     8    2
    29     5     3   am
    30     5    11    1
    31    22    23    1
    32    22    20   ar
    33    31    33   ar
    34     4     3    2
    35    10    11    1
    36     3     2    1
    37    18    20   ar
    38     1     2    1
