@<TRIPOS>MOLECULE
2qlm_F68_A_1.pdb
 24 25 0 0 0
SMALL
GASTEIGER

@<TRIPOS>ATOM
      1  C10       36.7110   26.3810   31.9780 C.ar  998  F68998      0.0043
      2  C11       37.8460   26.9110   32.5900 C.ar  998  F68998     -0.0041
      3  C12       37.9400   26.9330   33.9840 C.ar  998  F68998     -0.0218
      4  C15       39.1890   27.5220   34.6450 C.3   998  F68998      0.0310
      5  C13       36.8980   26.4310   34.7680 C.ar  998  F68998     -0.0041
      6  C14       35.7640   25.8990   34.1500 C.ar  998  F68998      0.0043
      7  C9        35.6720   25.8650   32.7550 C.ar  998  F68998      0.0555
      8  C8        34.4150   25.2890   32.0730 C.2   998  F68998      0.2726
      9  O8        33.3110   25.4100   32.6110 O.2   998  F68998     -0.2679
     10  N2        34.6390   24.6880   30.8890 N.am  998  F68998     -0.1223
     11  C7        33.7040   24.1170   30.1060 C.2   998  F68998      0.3482
     12  O7        32.5060   24.0960   30.4020 O.2   998  F68998     -0.2486
     13  N1        34.1460   23.5700   28.9700 N.am  998  F68998     -0.1564
     14  C1        33.2130   22.9080   28.0170 C.3   998  F68998      0.2462
     15  O5        33.1530   21.4650   28.2550 O.3   998  F68998     -0.3314
     16  C5        32.1170   20.8330   27.4860 C.3   998  F68998      0.1828
     17  C6        32.0460   19.3570   27.9170 C.3   998  F68998      0.2142
     18  O6        33.1600   18.6250   27.3900 O.3   998  F68998     -0.2176
     19  C4        32.3390   21.0300   25.9640 C.3   998  F68998      0.2144
     20  O4        31.1890   20.5620   25.2540 O.3   998  F68998     -0.2176
     21  C3        32.5810   22.5140   25.6210 C.3   998  F68998      0.2190
     22  O3        32.9820   22.6380   24.2530 O.3   998  F68998     -0.2174
     23  C2        33.6330   23.1360   26.5570 C.3   998  F68998      0.2326
     24  O2        33.8100   24.5400   26.2990 O.3   998  F68998     -0.2157
@<TRIPOS>BOND
     1    22    21    1
     2    20    19    1
     3    21    19    1
     4    21    23    1
     5    19    16    1
     6    24    23    1
     7    23    14    1
     8    18    17    1
     9    16    17    1
    10    16    15    1
    11    14    15    1
    12    14    13    1
    13    13    11   am
    14    11    12    2
    15    11    10   am
    16    10     8   am
    17     1     2   ar
    18     1     7   ar
    19     8     9    2
    20     8     7    1
    21     2     3   ar
    22     7     6   ar
    23     3     4    1
    24     3     5   ar
    25     6     5   ar
