@<TRIPOS>MOLECULE
2qln_F59_A_1.pdb
 29 31 0 0 0
SMALL
GASTEIGER

@<TRIPOS>ATOM
      1  C16       39.6340   26.5090   35.8000 C.ar  998  F59998      0.0000
      2  C17       40.5880   26.9130   36.7400 C.ar  998  F59998      0.0000
      3  C18       40.2200   27.7400   37.8020 C.ar  998  F59998      0.0000
      4  C19       38.8970   28.1630   37.9280 C.ar  998  F59998      0.0000
      5  C20       37.9450   27.7610   36.9920 C.ar  998  F59998      0.0000
      6  C15       38.3060   26.9390   35.9150 C.ar  998  F59998      0.0000
      7  C12       37.3350   26.5360   34.9860 C.ar  998  F59998      0.0000
      8  C13       36.0480   26.2420   35.4390 C.ar  998  F59998      0.0001
      9  C14       35.0560   25.8360   34.5400 C.ar  998  F59998      0.0046
     10  C11       37.6190   26.4110   33.6170 C.ar  998  F59998      0.0001
     11  C10       36.6190   26.0020   32.7180 C.ar  998  F59998      0.0046
     12  C9        35.3270   25.7110   33.1770 C.ar  998  F59998      0.0555
     13  C8        34.1730   25.2500   32.2500 C.2   998  F59998      0.2726
     14  O8        33.0050   25.4600   32.5830 O.2   998  F59998     -0.2679
     15  N2        34.5300   24.6130   31.1210 N.am  998  F59998     -0.1223
     16  C7        33.6470   24.1340   30.2190 C.2   998  F59998      0.3482
     17  O7        32.4250   24.2340   30.3620 O.2   998  F59998     -0.2486
     18  N1        34.1600   23.5340   29.1390 N.am  998  F59998     -0.1564
     19  C1        33.2480   22.9700   28.1060 C.3   998  F59998      0.2462
     20  O5        33.1620   21.5350   28.3350 O.3   998  F59998     -0.3314
     21  C5        32.1390   20.9050   27.5490 C.3   998  F59998      0.1828
     22  C6        32.0640   19.4350   27.9830 C.3   998  F59998      0.2142
     23  O6        33.1480   18.6860   27.4220 O.3   998  F59998     -0.2176
     24  C4        32.3980   21.1140   26.0370 C.3   998  F59998      0.2144
     25  O4        31.2710   20.6590   25.3090 O.3   998  F59998     -0.2176
     26  C3        32.6360   22.5990   25.7070 C.3   998  F59998      0.2190
     27  O3        33.0470   22.7210   24.3470 O.3   998  F59998     -0.2174
     28  C2        33.6930   23.2070   26.6550 C.3   998  F59998      0.2326
     29  O2        33.8820   24.6080   26.4120 O.3   998  F59998     -0.2157
@<TRIPOS>BOND
     1    27    26    1
     2    25    24    1
     3    26    24    1
     4    26    28    1
     5    24    21    1
     6    29    28    1
     7    28    19    1
     8    23    22    1
     9    21    22    1
    10    21    20    1
    11    19    20    1
    12    19    18    1
    13    18    16   am
    14    16    17    2
    15    16    15   am
    16    15    13   am
    17    13    14    2
    18    13    12    1
    19    11    12   ar
    20    11    10   ar
    21    12     9   ar
    22    10     7   ar
    23     9     8   ar
    24     7     8   ar
    25     7     6    1
    26     1     6   ar
    27     1     2   ar
    28     6     5   ar
    29     2     3   ar
    30     5     4   ar
    31     3     4   ar
