@<TRIPOS>MOLECULE
2qlq_SR2_A_1.pdb
 27 29 0 0 0
SMALL
GASTEIGER

@<TRIPOS>ATOM
      1  C4         5.1570    3.6610    7.7270 C.ar  1345  SR21345     0.0511
      2  C3         4.2650    3.1910    8.7070 C.ar  1345  SR21345     0.0381
      3 BRR1        2.7640    2.0450    8.3310 Br    1345  SR21345    -0.0489
      4  C22        4.5160    3.5800   10.0250 C.ar  1345  SR21345     0.0069
      5  C21        5.5840    4.3870   10.3870 C.ar  1345  SR21345     0.0041
      6  C20        6.4200    4.8290    9.3640 C.ar  1345  SR21345     0.0444
      7  C5         6.2520    4.4850    8.0260 C.ar  1345  SR21345     0.1839
      8  N1         7.0950    4.9560    7.0540 N.pl3 1345  SR21345    -0.0060
      9  C6         8.4310    4.7790    6.9660 C.2   1345  SR21345     0.3642
     10  C7         9.3260    5.5030    6.1230 C.2   1345  SR21345     0.1008
     11  C8         8.9790    6.5240    5.2400 C.2   1345  SR21345     0.0250
     12  N3         8.9610    3.8160    7.7320 N.2   1345  SR21345    -0.0327
     13  C19       10.2370    3.5350    7.7200 C.3   1345  SR21345     0.3917
     14  N2        11.0890    4.1800    6.9700 N.2   1345  SR21345    -0.2225
     15  C18       10.6790    5.1570    6.1710 C.2   1345  SR21345     0.0699
     16  C17       11.6140    5.8020    5.3960 C.3   1345  SR21345     0.0731
     17  C13       11.2410    6.7970    4.5400 C.2   1345  SR21345    -0.0032
     18  C9         9.9300    7.2020    4.4690 C.2   1345  SR21345     0.0698
     19  N11        9.6430    8.1400    3.5650 N.am  1345  SR21345    -0.1795
     20  C10        8.4240    8.0640    3.0720 C.2   1345  SR21345     0.2456
     21  O61        7.5780    7.4080    3.6460 O.2   1345  SR21345    -0.2730
     22  C11        7.9250    8.9270    1.9140 C.3   1345  SR21345     0.0886
     23  C51        8.6160    9.0850    0.5590 C.3   1345  SR21345     0.0270
     24  C61        7.9630   10.3780    0.0800 C.3   1345  SR21345     0.0727
     25  N63        7.0140   10.1600   -1.0110 N.3   1345  SR21345    -0.2703
     26  C65        6.0390    9.1070   -0.8290 C.3   1345  SR21345     0.0897
     27  C67        6.3000   11.3580   -1.3970 C.3   1345  SR21345     0.0897
@<TRIPOS>BOND
     1    27    25    1
     2    25    26    1
     3    25    24    1
     4    24    23    1
     5    23    22    1
     6    22    20    1
     7    20    19   am
     8    20    21    2
     9    19    18    1
    10    18    17    2
    11    18    11    1
    12    17    16    1
    13    11    10    2
    14    16    15    1
    15    10    15    1
    16    10     9    1
    17    15    14    2
    18     9     8    1
    19     9    12    2
    20    14    13    1
    21     8     7    1
    22    13    12    1
    23     1     7   ar
    24     1     2   ar
    25     7     6   ar
    26     3     2    1
    27     2     4   ar
    28     6     5   ar
    29     4     5   ar
