@<TRIPOS>MOLECULE
2qls_HEM_A_1.pdb
 43 50 0 0 0
SMALL
GASTEIGER

@<TRIPOS>ATOM
      1 FE         -1.0860    6.1340   -2.4540 Fe    142  HEM142      0.0000
      2  CHA       -4.2080    7.2920   -3.0350 C.2   142  HEM142      0.0000
      3  CHB        0.1210    8.7240   -4.4710 C.2   142  HEM142      0.0000
      4  CHC        2.1560    5.4930   -1.3010 C.2   142  HEM142      0.0000
      5  CHD       -2.0520    3.7540   -0.7120 C.2   142  HEM142      0.0000
      6  NA        -1.8550    7.7110   -3.3990 N.ar  142  HEM142      0.0000
      7  C1A       -3.1690    7.8100   -3.7080 C.ar  142  HEM142      0.0000
      8  C2A       -3.2630    8.6820   -4.7270 C.ar  142  HEM142      0.0000
      9  C3A       -2.1210    9.1180   -5.1220 C.ar  142  HEM142      0.0000
     10  C4A       -1.1780    8.5450   -4.2910 C.ar  142  HEM142      0.0000
     11  CMA       -1.8780    9.9800   -6.3440 C.3   142  HEM142      0.0000
     12  CAA       -4.4890    8.9780   -5.3870 C.3   142  HEM142      0.0000
     13  CBA       -5.2200   10.2000   -4.7580 C.3   142  HEM142      0.0000
     14  CGA       -6.7610    9.9180   -5.1490 C.2   142  HEM142      0.0000
     15  O1A       -7.3430   10.3980   -6.3830 O.co2 142  HEM142      0.0000
     16  O2A       -7.3710    9.1230   -4.1590 O.co2 142  HEM142      0.0000
     17  NB         0.6200    6.8870   -2.7090 N.2   142  HEM142      0.0000
     18  C1B        0.9220    7.9100   -3.6580 C.2   142  HEM142      0.0000
     19  C2B        2.3540    8.0820   -3.6900 C.2   142  HEM142      0.0000
     20  C3B        2.9010    7.1970   -2.8550 C.2   142  HEM142      0.0000
     21  C4B        1.8620    6.4180   -2.2280 C.2   142  HEM142      0.0000
     22  CMB        2.9820    9.0240   -4.6950 C.3   142  HEM142      0.0000
     23  CAB        4.3600    6.9630   -2.5780 C.3   142  HEM142      0.0000
     24  CBB        5.4230    7.5350   -3.2610 C.3   142  HEM142      0.0000
     25  NC        -0.0290    5.0820   -1.2270 N.ar  142  HEM142      0.0000
     26  C1C        1.2020    4.8020   -0.8660 C.ar  142  HEM142      0.0000
     27  C2C        1.3820    3.6900   -0.1150 C.ar  142  HEM142      0.0000
     28  C3C        0.1910    3.2550   -0.0270 C.ar  142  HEM142      0.0000
     29  C4C       -0.6990    4.0650   -0.7230 C.ar  142  HEM142      0.0000
     30  CMC        2.5920    3.0310    0.5220 C.3   142  HEM142      0.0000
     31  CAC       -0.3550    2.0920    0.7210 C.2   142  HEM142      0.0000
     32  CBC        0.4730    1.0000    0.8330 C.2   142  HEM142      0.0000
     33  ND        -2.8390    5.6980   -1.8550 N.2   142  HEM142      0.0000
     34  C1D       -3.0830    4.4910   -1.2010 C.2   142  HEM142      0.0000
     35  C2D       -4.4910    4.2330   -1.1370 C.2   142  HEM142      0.0000
     36  C3D       -5.0750    5.3980   -1.7760 C.2   142  HEM142      0.0000
     37  C4D       -4.0360    6.2070   -2.2400 C.2   142  HEM142      0.0000
     38  CMD       -5.2720    3.0800   -0.5790 C.3   142  HEM142      0.0000
     39  CAD       -6.5220    5.6590   -2.2000 C.3   142  HEM142      0.0000
     40  CBD       -6.8270    4.3750   -3.2130 C.3   142  HEM142      0.0000
     41  CGD       -8.0600    4.6980   -4.1420 C.2   142  HEM142      0.0000
     42  O1D       -9.2100    4.6300   -3.6250 O.co2 142  HEM142      0.0000
     43  O2D       -8.0670    5.0240   -5.3720 O.co2 142  HEM142      0.0000
@<TRIPOS>BOND
     1    15    14   ar
     2    11     9    1
     3    12    13    1
     4    12     8    1
     5    43    41   ar
     6    14    13    1
     7    14    16   ar
     8     9     8   ar
     9     9    10   ar
    10     8     7   ar
    11    22    19    1
    12     3    10    2
    13     3    18    1
    14    10     6   ar
    15    41    42   ar
    16    41    40    1
    17     7     6   ar
    18     7     2    2
    19    19    18    1
    20    19    20    2
    21    18    17    2
    22     6     1    1
    23    24    23    1
    24    40    39    1
    25     2    37    1
    26    20    23    1
    27    20    21    1
    28    17     1    1
    29    17    21    1
    30     1    33    1
    31     1    25    1
    32    37    33    2
    33    37    36    1
    34    21     4    2
    35    39    36    1
    36    33    34    1
    37    36    35    2
    38     4    26    1
    39    25    26   ar
    40    25    29   ar
    41    34    35    1
    42    34     5    2
    43    35    38    1
    44    26    27   ar
    45    29     5    1
    46    29    28   ar
    47    27    28   ar
    48    27    30    1
    49    28    31    1
    50    31    32    2
