@<TRIPOS>MOLECULE
2qlu_ADE_A_1.pdb
 10 11 0 0 0
SMALL
GASTEIGER

@<TRIPOS>ATOM
      1  N9        33.6450   39.9900   14.2360 N.2   488  ADE488     -0.1914
      2  C8        32.4620   39.4030   14.5290 C.3   488  ADE488      0.2618
      3  N7        32.4570   38.8870   15.7890 N.2   488  ADE488     -0.2267
      4  C5        33.7190   39.1160   16.3220 C.2   488  ADE488      0.2303
      5  C6        34.3600   38.8400   17.6050 C.2   488  ADE488      0.4393
      6  N6        33.7230   38.2070   18.5780 N.pl3 488  ADE488      0.2185
      7  N1        35.6400   39.2380   17.8510 N.2   488  ADE488     -0.0265
      8  C2        36.2290   39.8610   16.8610 C.3   488  ADE488      0.4008
      9  N3        35.6930   40.1310   15.6450 N.2   488  ADE488     -0.1640
     10  C4        34.4420   39.7880   15.4140 C.1   488  ADE488      0.0579
@<TRIPOS>BOND
     1     1     2    1
     2     1    10    2
     3     2     3    1
     4    10     9    2
     5    10     4    1
     6     9     8    1
     7     3     4    2
     8     4     5    1
     9     8     7    1
    10     5     7    2
    11     5     6    1
