@<TRIPOS>MOLECULE
2qly_NAG_A_1.pdb
 14 14 0 0 0
SMALL
GASTEIGER

@<TRIPOS>ATOM
      1  C1        22.3570   98.5360   19.1300 C.3   2003  NAG2003     0.1665
      2  C2        22.5250   99.3420   17.8400 C.3   2003  NAG2003     0.1576
      3  C3        21.9900  100.7700   17.9840 C.3   2003  NAG2003     0.2069
      4  C4        20.5280  100.7420   18.4900 C.3   2003  NAG2003     0.2134
      5  C5        20.4620   99.8210   19.7110 C.3   2003  NAG2003     0.1809
      6  C6        19.0410   99.6060   20.2170 C.3   2003  NAG2003     0.2141
      7  C7        24.3140   98.7590   16.2860 C.2   2003  NAG2003     0.2420
      8  C8        25.7620   98.9290   15.8940 C.3   2003  NAG2003     0.0964
      9  N2        23.9080   99.3570   17.4010 N.am  2003  NAG2003    -0.2019
     10  O3        22.1230  101.3890   16.7110 O.3   2003  NAG2003    -0.2184
     11  O4        20.0590  101.9980   18.9440 O.3   2003  NAG2003    -0.2176
     12  O5        20.9700   98.5470   19.3950 O.3   2003  NAG2003    -0.3489
     13  O6        19.0800   99.1280   21.5530 O.3   2003  NAG2003    -0.2176
     14  O7        23.5750   98.0880   15.5760 O.2   2003  NAG2003    -0.2733
@<TRIPOS>BOND
     1    14     7    2
     2     8     7    1
     3     7     9   am
     4    10     3    1
     5     9     2    1
     6     2     3    1
     7     2     1    1
     8     3     4    1
     9     4    11    1
    10     4     5    1
    11     1    12    1
    12    12     5    1
    13     5     6    1
    14     6    13    1
