@<TRIPOS>MOLECULE
2qm6_GLU_B_1.pdb
 10 9 0 0 0
SMALL
GASTEIGER

@<TRIPOS>ATOM
      1  N         47.3980   -2.5870   39.3870 N.3     1  GLU1       -0.1208
      2  CA        46.6050   -1.5840   38.6180 C.3     1  GLU1        0.1949
      3  C         45.2260   -1.4230   39.2230 C.2     1  GLU1        0.3819
      4  O         44.6200   -0.3560   39.0250 O.co2   1  GLU1       -0.2441
      5  CB        46.4940   -1.9900   37.1430 C.3     1  GLU1        0.0424
      6  CG        47.8240   -1.9280   36.3940 C.3     1  GLU1        0.1161
      7  CD        47.6530   -1.9860   34.8820 C.2     1  GLU1        0.3649
      8  OE1       48.6880   -1.9710   34.1650 O.co2   1  GLU1       -0.2457
      9  OE2       46.4950   -2.0560   34.4050 O.co2   1  GLU1       -0.2457
     10  OXT       44.7090   -2.3520   39.8940 O.co2   1  GLU1       -0.2441
@<TRIPOS>BOND
     1     8     7   ar
     2     9     7   ar
     3     7     6    1
     4     6     5    1
     5     5     2    1
     6     2     3    1
     7     2     1    1
     8     4     3   ar
     9     3    10   ar
