@<TRIPOS>MOLECULE
2qm7_GDP_A_1.pdb
 28 30 0 0 0
SMALL
GASTEIGER

@<TRIPOS>ATOM
      1  PB         5.6170  -18.5780   40.6160 P.3   601  GDP601      0.5373
      2  O1B        6.9360  -18.5810   39.9100 O.2   601  GDP601     -0.2221
      3  O2B        4.9990  -17.2430   40.6770 O.3   601  GDP601     -0.1143
      4  O3B        5.7700  -19.1080   42.0300 O.3   601  GDP601     -0.1143
      5  O3A        4.5550  -19.5310   39.8650 O.3   601  GDP601     -0.2261
      6  PA         4.7400  -20.7670   38.9050 P.3   601  GDP601      0.2231
      7  O1A        5.1380  -20.4150   37.5050 O.2   601  GDP601     -0.5169
      8  O2A        5.6320  -21.8390   39.4980 O.3   601  GDP601     -0.4370
      9  O5'        3.2330  -21.2850   38.8640 O.3   601  GDP601     -0.3111
     10  C5'        2.5040  -21.5590   40.0660 C.3   601  GDP601      0.1813
     11  C4'        1.3730  -22.4960   39.6820 C.3   601  GDP601      0.1799
     12  O4'        0.3820  -21.7720   38.9210 O.3   601  GDP601     -0.3326
     13  C3'        1.8280  -23.6720   38.8310 C.3   601  GDP601      0.2158
     14  O3'        1.0340  -24.8220   39.1280 O.3   601  GDP601     -0.2175
     15  C2'        1.5000  -23.2380   37.4190 C.3   601  GDP601      0.2310
     16  O2'        1.1880  -24.2510   36.4770 O.3   601  GDP601     -0.2158
     17  C1'        0.2490  -22.3950   37.6330 C.3   601  GDP601      0.2293
     18  N9         0.1530  -21.4110   36.5290 N.pl3 601  GDP601     -0.2354
     19  C8         1.0900  -20.5610   36.0180 C.3   601  GDP601      0.2246
     20  N7         0.5470  -19.8250   35.0040 N.2   601  GDP601     -0.2322
     21  C5        -0.7330  -20.2040   34.8780 C.2   601  GDP601      0.2182
     22  C6        -1.8880  -19.8590   34.0230 C.1   601  GDP601      0.2372
     23  O6        -1.7290  -18.9930   33.1400 O.2   601  GDP601     -0.2069
     24  N1        -3.0580  -20.5240   34.1990 N.2   601  GDP601     -0.2485
     25  C2        -3.2350  -21.4500   35.1520 C.1   601  GDP601      0.2531
     26  N2        -4.4340  -22.0730   35.3010 N.pl3 601  GDP601     -0.0226
     27  N3        -2.2330  -21.8140   35.9850 N.2   601  GDP601     -0.3074
     28  C4        -0.9950  -21.2220   35.8850 C.2   601  GDP601      0.2300
@<TRIPOS>BOND
     1    23    22    2
     2    22    24    2
     3    22    21    1
     4    24    25    2
     5    21    20    2
     6    21    28    1
     7    20    19    1
     8    25    26    1
     9    25    27    2
    10    28    27    2
    11    28    18    1
    12    19    18    1
    13    16    15    1
    14    18    17    1
    15    15    17    1
    16    15    13    1
    17     7     6    2
    18    17    12    1
    19    13    14    1
    20    13    11    1
    21     9     6    1
    22     9    10    1
    23     6     8    1
    24     6     5    1
    25    12    11    1
    26    11    10    1
    27     5     1    1
    28     2     1    2
    29     1     3    1
    30     1     4    1
