@<TRIPOS>MOLECULE
2qm9_TDZ_A_1.pdb
 31 34 0 0 0
SMALL
GASTEIGER

@<TRIPOS>ATOM
      1  CAM       -5.4800   -9.6110   17.1610 C.3   201  TDZ201      0.0486
      2  CAL       -6.5370   -8.5080   17.0080 C.3   201  TDZ201      0.0329
      3  CBB       -7.5730   -8.4670   18.1460 C.ar  201  TDZ201      0.0107
      4  CAZ       -8.5920   -7.5150   18.1640 C.ar  201  TDZ201      0.0157
      5  CAC       -8.6660   -6.5020   17.0340 C.3   201  TDZ201      0.0341
      6  CBA       -9.5400   -7.4610   19.1830 C.ar  201  TDZ201      0.1873
      7  OAG      -10.5190   -6.5250   19.1760 O.3   201  TDZ201     -0.2873
      8  CAX       -9.4950   -8.3640   20.2230 C.ar  201  TDZ201      0.0157
      9  CAA      -10.5390   -8.2870   21.3460 C.3   201  TDZ201      0.0341
     10  CAY       -8.4900   -9.3170   20.2270 C.ar  201  TDZ201      0.0109
     11  CAB       -8.4560  -10.2830   21.3810 C.3   201  TDZ201      0.0340
     12  CBC       -7.5300   -9.3750   19.2030 C.ar  201  TDZ201      0.1299
     13  OAR       -6.5310  -10.3190   19.2270 O.3   201  TDZ201     -0.4796
     14  CBE       -5.2250   -9.9290   18.6330 C.3   201  TDZ201      0.1734
     15  CAD       -4.5540   -8.7160   19.2900 C.3   201  TDZ201      0.0475
     16  CAN       -4.2330  -11.1250   18.7420 C.3   201  TDZ201      0.2448
     17  OAQ       -3.7030  -11.4820   20.0690 O.3   201  TDZ201     -0.4717
     18  CAW       -4.7130  -11.7980   20.9390 C.ar  201  TDZ201      0.1387
     19  CAK       -5.5630  -12.8880   20.7260 C.ar  201  TDZ201      0.0366
     20  CAI       -6.5850  -13.1650   21.6360 C.ar  201  TDZ201     -0.0011
     21  CAJ       -4.9180  -10.9990   22.0530 C.ar  201  TDZ201      0.0366
     22  CAH       -5.9430  -11.2650   22.9540 C.ar  201  TDZ201     -0.0011
     23  CAV       -6.7930  -12.3510   22.7580 C.ar  201  TDZ201     -0.0199
     24  CAO       -7.8990  -12.5990   23.8240 C.3   201  TDZ201      0.0562
     25  CBD       -9.2120  -13.2820   23.3720 C.3   201  TDZ201      0.1865
     26  SAS       -9.6580  -12.8760   21.6690 S.3   201  TDZ201      0.0093
     27  CAT       -9.5970  -14.4930   21.0980 C.1   201  TDZ201      0.2450
     28  OAE       -9.8180  -14.8010   19.9280 O.2   201  TDZ201     -0.2017
     29  NAP       -9.2740  -15.3660   22.0660 N.2   201  TDZ201     -0.2557
     30  CAU       -9.0580  -14.8170   23.2760 C.1   201  TDZ201      0.2022
     31  OAF       -8.7610  -15.5220   24.2370 O.2   201  TDZ201     -0.2125
@<TRIPOS>BOND
     1     2     1    1
     2     2     3    1
     3     5     4    1
     4     1    14    1
     5     3     4   ar
     6     3    12   ar
     7     4     6   ar
     8    14    16    1
     9    14    13    1
    10    14    15    1
    11    16    17    1
    12     7     6    1
    13     6     8   ar
    14    12    13    1
    15    12    10   ar
    16    28    27    2
    17    17    18    1
    18     8    10   ar
    19     8     9    1
    20    10    11    1
    21    19    18   ar
    22    19    20   ar
    23    18    21   ar
    24    27    26    1
    25    27    29    2
    26    20    23   ar
    27    26    25    1
    28    21    22   ar
    29    29    30    2
    30    23    22   ar
    31    23    24    1
    32    30    25    1
    33    30    31    2
    34    25    24    1
