@<TRIPOS>MOLECULE
2qmb_HEM_A_1.pdb
 43 50 0 0 0
SMALL
GASTEIGER

@<TRIPOS>ATOM
      1 FE         34.4460   -7.3600   13.6860 Fe    150  HEM150      0.0000
      2  CHA       36.6520   -9.7990   14.4610 C.2   150  HEM150      0.0000
      3  CHB       36.3250   -6.9300   10.8770 C.2   150  HEM150      0.0000
      4  CHC       32.3730   -4.9520   12.7840 C.2   150  HEM150      0.0000
      5  CHD       33.4600   -7.2170   16.8350 C.2   150  HEM150      0.0000
      6  NA        36.0820   -8.2300   12.8650 N.ar  150  HEM150      0.0000
      7  C1A       36.8930   -9.1690   13.3350 C.ar  150  HEM150      0.0000
      8  C2A       37.9360   -9.5470   12.3860 C.ar  150  HEM150      0.0000
      9  C3A       37.8250   -8.7700   11.3520 C.ar  150  HEM150      0.0000
     10  C4A       36.6980   -7.9350   11.6750 C.ar  150  HEM150      0.0000
     11  CMA       38.7420   -8.7380   10.1280 C.3   150  HEM150      0.0000
     12  CAA       38.8560  -10.7220   12.6280 C.3   150  HEM150      0.0000
     13  CBA       40.3080  -10.6080   12.2140 C.3   150  HEM150      0.0000
     14  CGA       40.5770  -11.9860   12.6870 C.2   150  HEM150      0.0000
     15  O1A       39.9460  -12.9380   12.0900 O.co2 150  HEM150      0.0000
     16  O2A       41.3300  -12.0190   13.7230 O.co2 150  HEM150      0.0000
     17  NB        34.4760   -6.3160   12.3300 N.2   150  HEM150      0.0000
     18  C1B       35.2330   -6.1870   11.1350 C.2   150  HEM150      0.0000
     19  C2B       34.6670   -5.2200   10.1610 C.2   150  HEM150      0.0000
     20  C3B       33.6450   -4.7400   10.7760 C.2   150  HEM150      0.0000
     21  C4B       33.4670   -5.3670   12.0380 C.2   150  HEM150      0.0000
     22  CMB       35.0710   -4.7110    8.6940 C.3   150  HEM150      0.0000
     23  CAB       32.6200   -3.6830   10.2570 C.2   150  HEM150      0.0000
     24  CBB       32.6700   -2.9750    9.1040 C.2   150  HEM150      0.0000
     25  NC        33.2310   -6.2970   14.5590 N.ar  150  HEM150      0.0000
     26  C1C       32.3590   -5.3160   14.0780 C.ar  150  HEM150      0.0000
     27  C2C       31.5250   -4.6930   15.0820 C.ar  150  HEM150      0.0000
     28  C3C       31.9090   -5.3560   16.1810 C.ar  150  HEM150      0.0000
     29  C4C       32.9380   -6.3630   15.9010 C.ar  150  HEM150      0.0000
     30  CMC       30.4860   -3.5440   15.0090 C.3   150  HEM150      0.0000
     31  CAC       31.3710   -5.1430   17.5630 C.3   150  HEM150      0.0000
     32  CBC       30.3450   -4.3030   17.6150 C.3   150  HEM150      0.0000
     33  ND        34.9840   -8.3810   15.4200 N.2   150  HEM150      0.0000
     34  C1D       34.4000   -8.1650   16.5900 C.2   150  HEM150      0.0000
     35  C2D       35.0030   -9.0250   17.5880 C.2   150  HEM150      0.0000
     36  C3D       36.0510   -9.8050   16.8270 C.2   150  HEM150      0.0000
     37  C4D       35.9230   -9.3240   15.4720 C.2   150  HEM150      0.0000
     38  CMD       34.7270   -9.1170   19.1360 C.3   150  HEM150      0.0000
     39  CAD       36.9170  -10.8890   17.3990 C.3   150  HEM150      0.0000
     40  CBD       38.3760  -10.4990   17.3880 C.3   150  HEM150      0.0000
     41  CGD       39.0200  -10.9480   18.7080 C.2   150  HEM150      0.0000
     42  O1D       40.1900  -10.5520   18.9740 O.co2 150  HEM150      0.0000
     43  O2D       38.3780  -11.6890   19.5050 O.co2 150  HEM150      0.0000
@<TRIPOS>BOND
     1    22    19    1
     2    24    23    2
     3    11     9    1
     4    19    20    2
     5    19    18    1
     6    23    20    1
     7    20    21    1
     8     3    18    1
     9     3    10    2
    10    18    17    2
    11     9    10   ar
    12     9     8   ar
    13    10     6   ar
    14    21    17    1
    15    21     4    2
    16    15    14   ar
    17    13    12    1
    18    13    14    1
    19    17     1    1
    20     8    12    1
    21     8     7   ar
    22    14    16   ar
    23     4    26    1
    24     6     7   ar
    25     6     1    1
    26     7     2    2
    27     1    25    1
    28     1    33    1
    29    26    25   ar
    30    26    27   ar
    31     2    37    1
    32    25    29   ar
    33    30    27    1
    34    27    28   ar
    35    33    37    2
    36    33    34    1
    37    37    36    1
    38    29    28   ar
    39    29     5    1
    40    28    31    1
    41    34     5    2
    42    34    35    1
    43    36    39    1
    44    36    35    2
    45    40    39    1
    46    40    41    1
    47    31    32    1
    48    35    38    1
    49    41    42   ar
    50    41    43   ar
