@<TRIPOS>MOLECULE
2qmc_GTB_B_1.pdb
 15 14 0 0 0
SMALL
GASTEIGER

@<TRIPOS>ATOM
      1  N1        20.8820    5.8730   33.9720 N.3     1  GTB1       -0.1208
      2  CA1       21.2290    4.8670   32.9880 C.3     1  GTB1        0.1948
      3  C1        22.7130    4.6290   33.0770 C.2     1  GTB1        0.3819
      4  O11       23.1150    3.5230   32.6880 O.co2   1  GTB1       -0.2441
      5  O12       23.4240    5.5590   33.4980 O.co2   1  GTB1       -0.2441
      6  CB1       20.9550    5.3630   31.5650 C.3     1  GTB1        0.0402
      7  CG1       19.4530    5.5430   31.3570 C.3     1  GTB1        0.0889
      8  CD1       19.1020    5.5440   29.8810 C.2     1  GTB1        0.2418
      9  OE1       19.8250    5.0940   29.0170 O.2     1  GTB1       -0.2733
     10  N2        17.9450    6.1320   29.6510 N.am    1  GTB1       -0.1982
     11  CA2       17.2150    6.1500   28.4190 C.3     1  GTB1        0.1711
     12  C2        16.2640    7.2940   28.4820 C.2     1  GTB1        0.2296
     13  O2        15.7500    7.5020   29.5640 O.2     1  GTB1       -0.2864
     14  CB2       16.4390    4.8500   28.3330 C.3     1  GTB1        0.0983
     15  SG2       16.2180    4.6330   26.6140 S.3     1  GTB1       -0.0798
@<TRIPOS>BOND
     1    15    14    1
     2    14    11    1
     3    11    12    1
     4    11    10    1
     5    12    13    2
     6     9     8    2
     7    10     8   am
     8     8     7    1
     9     7     6    1
    10     6     2    1
    11     4     3   ar
    12     2     3    1
    13     2     1    1
    14     3     5   ar
