@<TRIPOS>MOLECULE
2qmd_CS7_A_1.pdb
 44 47 0 0 0
SMALL
GASTEIGER

@<TRIPOS>ATOM
      1  F1        26.8370   10.8260   19.1030 F       1  CS71       -0.2041
      2  F2        22.8410   13.3440   18.5700 F       1  CS71       -0.2041
      3  N1        23.6310   11.7300   23.5000 N.am    1  CS71       -0.2004
      4  C1        22.5260   10.8030   23.1680 C.3     1  CS71        0.1316
      5  C2        22.0430    9.9720   24.3810 C.3     1  CS71        0.1880
      6  C3        21.5420   10.8500   25.5400 C.3     1  CS71        0.1074
      7  O1        20.9880    9.0870   23.9610 O.3     1  CS71       -0.2198
      8  N2        21.2330    9.9770   26.6900 N.3     1  CS71       -0.2142
      9  C4        20.4000   10.8270   27.5640 C.3     1  CS71        0.1182
     10  C5        19.5920   11.7390   26.6310 C.3     1  CS71        0.1345
     11  C6        20.2510   11.6260   25.2500 C.3     1  CS71        0.0511
     12  C7        22.9750    9.8510   22.0420 C.3     1  CS71        0.0508
     13  C8        23.6320   10.6270   20.9220 C.ar    1  CS71       -0.0159
     14  C9        24.9750   10.3410   20.5360 C.ar    1  CS71        0.0256
     15  C10       25.5830   11.0830   19.4760 C.ar    1  CS71        0.1421
     16  C11       24.8560   12.1020   18.8110 C.ar    1  CS71        0.0592
     17  C12       23.5200   12.3850   19.1980 C.ar    1  CS71        0.1421
     18  C13       22.9040   11.6520   20.2500 C.ar    1  CS71        0.0256
     19  C14       27.0340   14.2570   23.7480 C.ar    1  CS71        0.0534
     20  C15       26.8840   15.4720   24.4820 C.ar    1  CS71        0.0003
     21  C16       25.5950   15.8880   24.9100 C.ar    1  CS71       -0.0216
     22  C17       24.4470   15.0910   24.6170 C.ar    1  CS71        0.0003
     23  C18       24.5920   13.8720   23.8940 C.ar    1  CS71        0.0549
     24  C19       25.8800   13.4560   23.4610 C.ar    1  CS71        0.0091
     25  C20       28.3670   13.8080   23.3300 C.2     1  CS71        0.2490
     26  C21       23.4080   13.0680   23.5860 C.2     1  CS71        0.2648
     27  O2        22.3020   13.5650   23.4160 O.2     1  CS71       -0.2684
     28  C22       25.4400   17.1470   25.6630 C.3     1  CS71        0.0310
     29  N3        28.6150   13.5940   22.0110 N.am    1  CS71       -0.2761
     30  O3        29.2390   13.6170   24.1600 O.2     1  CS71       -0.2699
     31  O4        18.2680   11.2360   26.5940 O.3     1  CS71       -0.3500
     32  C23       17.4600   12.0880   25.7990 C.3     1  CS71        0.1685
     33  C24       16.5840   11.2590   24.8710 C.ar    1  CS71        0.0073
     34  C25       16.5430    9.8340   24.9680 C.ar    1  CS71       -0.0019
     35  C26       15.7150    9.0810   24.0880 C.ar    1  CS71       -0.0002
     36  C27       14.9260    9.7490   23.1100 C.ar    1  CS71       -0.0000
     37  C28       14.9640   11.1690   23.0110 C.ar    1  CS71       -0.0002
     38  C29       15.7930   11.9230   23.8930 C.ar    1  CS71       -0.0019
     39  C30       29.9580   13.1320   21.6760 C.3     1  CS71        0.0937
     40  C31       29.9230   11.6540   21.2180 C.3     1  CS71        0.0215
     41  C32       29.1360   10.7260   22.1670 C.3     1  CS71        0.0018
     42  C33       27.6490   13.8060   20.9370 C.3     1  CS71        0.0937
     43  C34       28.2020   14.8470   19.9650 C.3     1  CS71        0.0215
     44  C35       28.8240   16.0540   20.6820 C.3     1  CS71        0.0018
@<TRIPOS>BOND
     1     2    17    1
     2    16    17   ar
     3    16    15   ar
     4     1    15    1
     5    17    18   ar
     6    15    14   ar
     7    43    44    1
     8    43    42    1
     9    18    13   ar
    10    14    13   ar
    11    13    12    1
    12    42    29    1
    13    40    39    1
    14    40    41    1
    15    39    29    1
    16    29    25   am
    17    12     4    1
    18    37    36   ar
    19    37    38   ar
    20    36    35   ar
    21     4     3    1
    22     4     5    1
    23    25    19    1
    24    25    30    2
    25    27    26    2
    26    24    19   ar
    27    24    23   ar
    28     3    26   am
    29    26    23    1
    30    19    20   ar
    31    38    33   ar
    32    23    22   ar
    33     7     5    1
    34    35    34   ar
    35     5     6    1
    36    20    21   ar
    37    22    21   ar
    38    33    34   ar
    39    33    32    1
    40    21    28    1
    41    11     6    1
    42    11    10    1
    43     6     8    1
    44    32    31    1
    45    31    10    1
    46    10     9    1
    47     8     9    1
