@<TRIPOS>MOLECULE
2qmf_CS9_A_1.pdb
 43 46 0 0 0
SMALL
GASTEIGER

@<TRIPOS>ATOM
      1  C1        26.9660   15.4650   24.4540 C.ar    1  CS91        0.0003
      2  C2        25.6910   15.8920   24.8960 C.ar    1  CS91       -0.0216
      3  C3        24.5420   15.0930   24.5950 C.ar    1  CS91        0.0003
      4  C4        24.6700   13.8780   23.8590 C.ar    1  CS91        0.0549
      5  C5        25.9520   13.4760   23.4300 C.ar    1  CS91        0.0091
      6  C6        27.1080   14.2640   23.7190 C.ar    1  CS91        0.0534
      7  C7        28.4460   13.8110   23.2680 C.2     1  CS91        0.2490
      8  N1        28.7600   13.6120   21.9020 N.am    1  CS91       -0.2761
      9  O1        29.2900   13.5930   24.1280 O.2     1  CS91       -0.2699
     10  C8        27.8460   13.8410   20.7410 C.3     1  CS91        0.0937
     11  C9        28.3380   14.9910   19.8340 C.3     1  CS91        0.0215
     12  C10       28.6820   16.2760   20.6100 C.3     1  CS91        0.0018
     13  C11       30.1370   13.1380   21.5920 C.3     1  CS91        0.0937
     14  C12       30.1420   11.6760   21.0550 C.3     1  CS91        0.0215
     15  C13       29.3500   10.6670   21.9170 C.3     1  CS91        0.0018
     16  C30       25.5610   17.1790   25.6760 C.3     1  CS91        0.0310
     17  C14       23.4650   13.0710   23.5510 C.2     1  CS91        0.2648
     18  N2        23.6660   11.7170   23.4310 N.am    1  CS91       -0.2004
     19  O2        22.3450   13.5710   23.4020 O.2     1  CS91       -0.2684
     20  C15       22.5760   10.7620   23.1090 C.3     1  CS91        0.1316
     21  C16       22.1620    9.9200   24.3330 C.3     1  CS91        0.1880
     22  C17       23.0630    9.8610   21.9360 C.3     1  CS91        0.0508
     23  O3        21.1060    9.0640   23.9540 O.3     1  CS91       -0.2198
     24  C19       23.6920   10.6500   20.8050 C.ar    1  CS91       -0.0159
     25  C21       25.0300   10.3790   20.4130 C.ar    1  CS91        0.0256
     26  C22       25.6110   11.1200   19.3560 C.ar    1  CS91        0.1421
     27  C23       24.9100   12.1310   18.6680 C.ar    1  CS91        0.0592
     28  C24       23.5810   12.3880   19.0730 C.ar    1  CS91        0.1421
     29  C25       22.9650   11.6700   20.1210 C.ar    1  CS91        0.0256
     30  F2        26.8620   10.8520   19.0050 F       1  CS91       -0.2041
     31  F1        22.8880   13.3380   18.4440 F       1  CS91       -0.2041
     32  C26       19.5270   11.4560   26.5140 C.3     1  CS91        0.1847
     33  C18       20.4640   10.7800   27.5110 C.3     1  CS91        0.1321
     34  N3        21.2560    9.8830   26.6650 N.3     1  CS91       -0.2129
     35  C20       20.4410   11.6420   25.2790 C.3     1  CS91        0.0650
     36  C27       21.6690   10.7450   25.5520 C.3     1  CS91        0.1086
     37  O4        18.4550   10.5210   26.3000 O.3     1  CS91       -0.4776
     38  C31       17.4720   10.8120   25.3380 C.ar    1  CS91        0.1384
     39  C32       17.0020   12.1230   24.9740 C.ar    1  CS91        0.0369
     40  C33       16.0070   12.2680   23.9850 C.ar    1  CS91        0.0031
     41  C34       15.4670   11.1270   23.3460 C.ar    1  CS91        0.0002
     42  C35       15.9230    9.8300   23.6980 C.ar    1  CS91        0.0031
     43  C36       16.9200    9.6780   24.6880 C.ar    1  CS91        0.0369
@<TRIPOS>BOND
     1    31    28    1
     2    27    28   ar
     3    27    26   ar
     4    30    26    1
     5    28    29   ar
     6    26    25   ar
     7    11    12    1
     8    11    10    1
     9    29    24   ar
    10    25    24   ar
    11    10     8    1
    12    24    22    1
    13    14    13    1
    14    14    15    1
    15    13     8    1
    16     8     7   am
    17    22    20    1
    18    20    18    1
    19    20    21    1
    20     7     6    1
    21     7     9    2
    22    41    42   ar
    23    41    40   ar
    24    19    17    2
    25     5     6   ar
    26     5     4   ar
    27    18    17   am
    28    17     4    1
    29    42    43   ar
    30     6     1   ar
    31     4     3   ar
    32    23    21    1
    33    40    39   ar
    34    21    36    1
    35     1     2   ar
    36     3     2   ar
    37    43    38   ar
    38     2    16    1
    39    39    38   ar
    40    35    36    1
    41    35    32    1
    42    38    37    1
    43    36    34    1
    44    37    32    1
    45    32    33    1
    46    34    33    1
