@<TRIPOS>MOLECULE
2qmg_SC6_A_1.pdb
 44 48 0 0 0
SMALL
GASTEIGER

@<TRIPOS>ATOM
      1  C1        26.8950   15.4300   24.6060 C.ar    1  SC61        0.0003
      2  C2        25.6140   15.8480   25.0530 C.ar    1  SC61       -0.0216
      3  C3        24.4680   15.0650   24.7210 C.ar    1  SC61        0.0003
      4  C4        24.6020   13.8730   23.9460 C.ar    1  SC61        0.0549
      5  C5        25.8780   13.4800   23.5200 C.ar    1  SC61        0.0091
      6  C6        27.0340   14.2440   23.8330 C.ar    1  SC61        0.0534
      7  C7        28.3630   13.7810   23.3640 C.2     1  SC61        0.2490
      8  N1        28.5850   13.5240   21.9940 N.am    1  SC61       -0.2752
      9  O1        29.2740   13.6040   24.1700 O.2     1  SC61       -0.2699
     10  C8        27.6480   13.6690   20.8640 C.3     1  SC61        0.0938
     11  C9        28.5730   14.2600   19.7950 C.3     1  SC61        0.0233
     12  C10       29.9380   13.5950   20.0480 C.3     1  SC61        0.0241
     13  C11       29.8790   13.0510   21.4890 C.3     1  SC61        0.1052
     14  C12       29.9180   11.4990   21.4840 C.3     1  SC61        0.1619
     15  C30       25.4770   17.1080   25.8680 C.3     1  SC61        0.0310
     16  C14       23.4140   13.0730   23.6040 C.2     1  SC61        0.2648
     17  N2        23.6280   11.7170   23.4740 N.am    1  SC61       -0.2004
     18  O2        22.3000   13.5750   23.4400 O.2     1  SC61       -0.2684
     19  C15       22.5560   10.7510   23.1270 C.3     1  SC61        0.1316
     20  C16       22.1050    9.9200   24.3510 C.3     1  SC61        0.1880
     21  C17       23.0700    9.8210   22.0060 C.3     1  SC61        0.0508
     22  O3        21.0380    9.0950   23.9460 O.3     1  SC61       -0.2198
     23  C19       23.7320   10.5240   20.8460 C.ar    1  SC61       -0.0159
     24  C21       25.0800   10.2200   20.5160 C.ar    1  SC61        0.0256
     25  C22       25.6970   10.8750   19.4300 C.ar    1  SC61        0.1421
     26  C23       25.0260   11.8350   18.6460 C.ar    1  SC61        0.0592
     27  C24       23.6860   12.1280   18.9880 C.ar    1  SC61        0.1421
     28  C25       23.0280   11.4950   20.0680 C.ar    1  SC61        0.0256
     29  F2        26.9600   10.5720   19.1390 F       1  SC61       -0.2041
     30  F1        23.0270   13.0290   18.2670 F       1  SC61       -0.2041
     31  C26       19.4600   11.4820   26.4880 C.3     1  SC61        0.1847
     32  C18       20.3570   10.7930   27.5050 C.3     1  SC61        0.1321
     33  N3        21.1720    9.8980   26.6800 N.3     1  SC61       -0.2129
     34  C20       20.3960   11.6660   25.2810 C.3     1  SC61        0.0650
     35  C27       21.6090   10.7520   25.5660 C.3     1  SC61        0.1086
     36  O4        18.3940   10.5660   26.2380 O.3     1  SC61       -0.4776
     37  C31       17.4160   10.8750   25.2760 C.ar    1  SC61        0.1384
     38  C32       16.9480   12.1890   24.9230 C.ar    1  SC61        0.0369
     39  C33       15.9540   12.3440   23.9290 C.ar    1  SC61        0.0031
     40  C34       15.4200   11.2040   23.2780 C.ar    1  SC61        0.0002
     41  C35       15.8810    9.9120   23.6250 C.ar    1  SC61        0.0031
     42  C36       16.8730    9.7540   24.6170 C.ar    1  SC61        0.0369
     43  C37       29.4570    9.5810   22.8470 C.3     1  SC61        0.1742
     44  O5        29.6270   10.9820   22.7780 O.3     1  SC61       -0.3493
@<TRIPOS>BOND
     1    30    27    1
     2    26    27   ar
     3    26    25   ar
     4    27    28   ar
     5    29    25    1
     6    25    24   ar
     7    11    12    1
     8    11    10    1
     9    12    13    1
    10    28    23   ar
    11    24    23   ar
    12    23    21    1
    13    10     8    1
    14    14    13    1
    15    14    44    1
    16    13     8    1
    17     8     7   am
    18    21    19    1
    19    44    43    1
    20    19    17    1
    21    19    20    1
    22    40    41   ar
    23    40    39   ar
    24     7     6    1
    25     7     9    2
    26    18    16    2
    27    17    16   am
    28     5     6   ar
    29     5     4   ar
    30    16     4    1
    31    41    42   ar
    32     6     1   ar
    33    39    38   ar
    34    22    20    1
    35     4     3   ar
    36    20    35    1
    37     1     2   ar
    38    42    37   ar
    39     3     2   ar
    40    38    37   ar
    41     2    15    1
    42    37    36    1
    43    34    35    1
    44    34    31    1
    45    35    33    1
    46    36    31    1
    47    31    32    1
    48    33    32    1
