@<TRIPOS>MOLECULE
2qmi_DO3_E_1.pdb
 28 28 0 0 0
SMALL
GASTEIGER

@<TRIPOS>ATOM
      1  N1       116.4430   48.8520    2.0140 N.3   450  DO3450     -0.2607
      2  N2       114.2850   50.8950    2.4070 N.3   450  DO3450     -0.2607
      3  N3       112.2890   49.2280    1.1380 N.3   450  DO3450     -0.2607
      4  N4       114.1850   47.2370    0.5820 N.3   450  DO3450     -0.2682
      5  O1       117.1530   48.5650   -0.6800 O.co2 450  DO3450     -0.2441
      6  O3       116.0060   51.6620    0.2230 O.co2 450  DO3450     -0.2441
      7  O5       113.2550   51.1730   -0.7360 O.co2 450  DO3450     -0.2441
      8  O7       114.5850   48.2400   -2.1650 O.3   450  DO3450     -0.2217
      9  C1       116.3190   49.5390    3.3300 C.3   450  DO3450      0.0901
     10  C2       114.9750   50.1780    3.5990 C.3   450  DO3450      0.0901
     11  C3       112.8690   51.0170    2.7780 C.3   450  DO3450      0.0901
     12  C4       111.8990   49.9560    2.2690 C.3   450  DO3450      0.0901
     13  C5       111.9840   47.8230    1.4300 C.3   450  DO3450      0.0901
     14  C6       113.1060   46.8520    1.4560 C.3   450  DO3450      0.0897
     15  C7       115.4250   46.6380    1.1710 C.3   450  DO3450      0.0897
     16  C8       116.1370   47.4470    2.2910 C.3   450  DO3450      0.0901
     17  C9       118.1380   48.8090    0.0760 C.2   450  DO3450      0.3809
     18  C10      117.8270   49.0030    1.5540 C.3   450  DO3450      0.1878
     19  C11      115.9830   52.4180    1.2650 C.2   450  DO3450      0.3809
     20  C12      114.8690   52.2770    2.2340 C.3   450  DO3450      0.1878
     21  C13      112.0160   50.9290   -0.7980 C.2   450  DO3450      0.3809
     22  C14      111.5210   49.6930   -0.0640 C.3   450  DO3450      0.1878
     23  C15      114.6740   46.9330   -1.8850 C.3   450  DO3450      0.1680
     24  C16      113.8120   46.6860   -0.7840 C.3   450  DO3450      0.1054
     25  C17      114.2800   46.1730   -3.0170 C.3   450  DO3450      0.0370
     26  O2       119.2880   48.8890   -0.3030 O.co2 450  DO3450     -0.2441
     27  O4       116.8530   53.2700    1.5020 O.co2 450  DO3450     -0.2441
     28  O6       111.2090   51.6070   -1.3980 O.co2 450  DO3450     -0.2441
@<TRIPOS>BOND
     1    25    23    1
     2     8    23    1
     3    23    24    1
     4    28    21   ar
     5    21     7   ar
     6    21    22    1
     7    24     4    1
     8     5    17   ar
     9    26    17   ar
    10    22     3    1
    11    17    18    1
    12     6    19   ar
    13     4    15    1
    14     4    14    1
    15     3    13    1
    16     3    12    1
    17    15    16    1
    18    19    27   ar
    19    19    20    1
    20    13    14    1
    21    18     1    1
    22     1    16    1
    23     1     9    1
    24    20     2    1
    25    12    11    1
    26     2    11    1
    27     2    10    1
    28     9    10    1
