@<TRIPOS>MOLECULE
2qmj_NAG_A_1.pdb
 14 14 0 0 0
SMALL
GASTEIGER

@<TRIPOS>ATOM
      1  C1       -39.0300  -15.8990  -36.8710 C.3   2001  NAG2001     0.1665
      2  C2       -39.6470  -16.0190  -38.2640 C.3   2001  NAG2001     0.1576
      3  C3       -39.2790  -17.3960  -38.8760 C.3   2001  NAG2001     0.2069
      4  C4       -37.7760  -17.7020  -38.7860 C.3   2001  NAG2001     0.2134
      5  C5       -37.2420  -17.4110  -37.3850 C.3   2001  NAG2001     0.1809
      6  C6       -35.7240  -17.5900  -37.3220 C.3   2001  NAG2001     0.2141
      7  C7       -41.9780  -14.9720  -38.1310 C.2   2001  NAG2001     0.2420
      8  C8       -42.3340  -14.4160  -36.7710 C.3   2001  NAG2001     0.0964
      9  N2       -41.0960  -15.9830  -38.1730 N.am  2001  NAG2001    -0.2019
     10  O3       -39.7120  -17.5010  -40.2250 O.3   2001  NAG2001    -0.2184
     11  O4       -37.5000  -19.0500  -39.1030 O.3   2001  NAG2001    -0.2176
     12  O5       -37.6250  -16.0940  -37.0160 O.3   2001  NAG2001    -0.3489
     13  O6       -35.3790  -17.9140  -35.9940 O.3   2001  NAG2001    -0.2176
     14  O7       -42.5610  -14.5670  -39.1430 O.2   2001  NAG2001    -0.2733
@<TRIPOS>BOND
     1    10     3    1
     2    14     7    2
     3    11     4    1
     4     3     4    1
     5     3     2    1
     6     4     5    1
     7     2     9    1
     8     2     1    1
     9     9     7   am
    10     7     8    1
    11     5     6    1
    12     5    12    1
    13     6    13    1
    14    12     1    1
