@<TRIPOS>MOLECULE
2qmj_ACR_A_1.pdb
 44 47 0 0 0
SMALL
GASTEIGER

@<TRIPOS>ATOM
      1  C1A      -19.6710   -5.9900  -10.6110 C.3   1001  ACR1001     0.1273
      2  C2A      -20.7300   -5.6830  -11.6900 C.3   1001  ACR1001     0.2049
      3  C3A      -21.5600   -6.9360  -11.9710 C.3   1001  ACR1001     0.2179
      4  C4A      -20.6670   -7.9640  -12.6390 C.3   1001  ACR1001     0.2053
      5  C5A      -19.3470   -8.1050  -11.9110 C.2   1001  ACR1001     0.0180
      6  C6A      -18.5890   -9.3680  -12.1800 C.3   1001  ACR1001     0.2066
      7  C7A      -18.8330   -7.1680  -11.0990 C.2   1001  ACR1001    -0.0100
      8  O2A      -21.5980   -4.6430  -11.2610 O.3   1001  ACR1001    -0.2184
      9  O3A      -22.7950   -6.7250  -12.7430 O.3   1001  ACR1001    -0.2172
     10  O4A      -21.3410   -9.2220  -12.6550 O.3   1001  ACR1001    -0.2157
     11  O6A      -17.8570   -9.0520  -13.3800 O.3   1001  ACR1001    -0.2155
     12  C1B      -18.2170   -6.7430   -5.3860 C.3   1001  ACR1001     0.2694
     13  C2B      -17.8400   -5.5560   -6.2710 C.3   1001  ACR1001     0.2394
     14  C3B      -18.9740   -5.2480   -7.2620 C.3   1001  ACR1001     0.2054
     15  C4B      -19.2400   -6.4670   -8.1460 C.3   1001  ACR1001     0.1333
     16  C5B      -19.5940   -7.6510   -7.2210 C.3   1001  ACR1001     0.1364
     17  C6B      -19.7630   -8.9570   -7.9900 C.3   1001  ACR1001     0.0337
     18  N4B      -20.2000   -6.1770   -9.2330 N.3   1001  ACR1001    -0.2087
     19  O2B      -17.6240   -4.4180   -5.4390 O.3   1001  ACR1001    -0.2149
     20  O3B      -18.6180   -4.1570   -8.1040 O.3   1001  ACR1001    -0.2186
     21  O5B      -18.5410   -7.8430   -6.2420 O.3   1001  ACR1001    -0.3295
     22  C1C      -21.0570   -7.7380   -0.9580 C.3   1001  ACR1001     0.2695
     23  C2C      -19.5340   -7.7390   -1.0400 C.3   1001  ACR1001     0.2404
     24  C3C      -19.0200   -6.9610   -2.2550 C.3   1001  ACR1001     0.2167
     25  C4C      -19.7220   -7.3380   -3.5600 C.3   1001  ACR1001     0.1804
     26  C5C      -21.2420   -7.3380   -3.3630 C.3   1001  ACR1001     0.1803
     27  C6C      -21.9950   -7.8540   -4.5850 C.3   1001  ACR1001     0.2141
     28  O2C      -19.0400   -7.0610    0.1090 O.3   1001  ACR1001    -0.2149
     29  O3C      -17.6040   -7.1280   -2.4050 O.3   1001  ACR1001    -0.2175
     30  O4C      -19.3450   -6.3910   -4.5600 O.3   1001  ACR1001    -0.3257
     31  O5C      -21.5930   -8.1540   -2.2260 O.3   1001  ACR1001    -0.3257
     32  O6C      -23.3970   -7.9360   -4.2880 O.3   1001  ACR1001    -0.2176
     33  C1D      -24.4360   -4.5400    1.8350 C.3   1001  ACR1001     0.3023
     34  C2D      -22.9600   -4.6230    2.3060 C.3   1001  ACR1001     0.2433
     35  C3D      -21.9930   -5.0600    1.1990 C.3   1001  ACR1001     0.2168
     36  C4D      -22.4870   -6.2690    0.3980 C.3   1001  ACR1001     0.1804
     37  C5D      -23.9070   -5.9410   -0.1210 C.3   1001  ACR1001     0.1804
     38  C6D      -24.5410   -7.0460   -0.9710 C.3   1001  ACR1001     0.2141
     39  O1D      -24.7250   -3.2780    1.2080 O.3   1001  ACR1001    -0.1869
     40  O2D      -22.4900   -3.3600    2.8190 O.3   1001  ACR1001    -0.2148
     41  O3D      -20.6790   -5.3120    1.7380 O.3   1001  ACR1001    -0.2175
     42  O4D      -21.5170   -6.4160   -0.6480 O.3   1001  ACR1001    -0.3257
     43  O5D      -24.8190   -5.6180    0.9550 O.3   1001  ACR1001    -0.3237
     44  O6D      -25.8490   -6.6220   -1.3960 O.3   1001  ACR1001    -0.2176
@<TRIPOS>BOND
     1    11     6    1
     2     9     3    1
     3    10     4    1
     4     4     3    1
     5     4     5    1
     6     6     5    1
     7     3     2    1
     8     5     7    2
     9     2     8    1
    10     2     1    1
    11     7     1    1
    12     1    18    1
    13    18    15    1
    14    15    14    1
    15    15    16    1
    16    20    14    1
    17    17    16    1
    18    14    13    1
    19    16    21    1
    20    13    19    1
    21    13    12    1
    22    21    12    1
    23    12    30    1
    24    27    32    1
    25    27    26    1
    26    30    25    1
    27    25    26    1
    28    25    24    1
    29    26    31    1
    30    29    24    1
    31    24    23    1
    32    31    22    1
    33    44    38    1
    34    23    22    1
    35    23    28    1
    36    38    37    1
    37    22    42    1
    38    42    36    1
    39    37    36    1
    40    37    43    1
    41    36    35    1
    42    43    33    1
    43    35    41    1
    44    35    34    1
    45    39    33    1
    46    33    34    1
    47    34    40    1
