@<TRIPOS>MOLECULE
2qmm_SAM_A_1.pdb
 19 21 0 0 0
SMALL
GASTEIGER

@<TRIPOS>ATOM
      1  SD        10.8740   34.3700  -19.1870 S.3   301  SAM301     -0.0794
      2  C5'        9.5910   34.1300  -19.7910 C.3   301  SAM301      0.1010
      3  C4'        8.9340   35.4650  -20.1470 C.3   301  SAM301      0.1639
      4  O4'        8.5680   36.1420  -18.9390 O.3   301  SAM301     -0.3152
      5  C3'        9.8340   36.4890  -20.8650 C.3   301  SAM301      0.2168
      6  O3'        9.9040   36.2680  -22.2730 O.3   301  SAM301     -0.2175
      7  C2'        9.1770   37.8200  -20.5260 C.3   301  SAM301      0.2569
      8  O2'        8.1010   38.0730  -21.4740 O.3   301  SAM301     -0.2130
      9  C1'        8.6820   37.5690  -19.0940 C.3   301  SAM301      0.3185
     10  N9         9.6120   38.0710  -18.0120 N.pl3 301  SAM301     -0.1439
     11  C8        10.6640   37.4010  -17.4500 C.3   301  SAM301      0.3377
     12  N7        11.2840   38.1270  -16.4660 N.2   301  SAM301     -0.2095
     13  C5        10.6510   39.3100  -16.3940 C.2   301  SAM301      0.2526
     14  C6        10.7910   40.5740  -15.6070 C.2   301  SAM301      0.4393
     15  N6        11.7610   40.7350  -14.6760 N.pl3 301  SAM301      0.2180
     16  N1         9.8920   41.5580  -15.8340 N.2   301  SAM301      0.0021
     17  C2         8.9300   41.4330  -16.7630 C.3   301  SAM301      0.5254
     18  N3         8.7330   40.3400  -17.5180 N.2   301  SAM301     -0.0055
     19  C4         9.5500   39.2680  -17.4090 C.2   301  SAM301      0.3518
@<TRIPOS>BOND
     1     6     5    1
     2     8     7    1
     3     5     7    1
     4     5     3    1
     5     7     9    1
     6     3     2    1
     7     3     4    1
     8     2     1    1
     9     9     4    1
    10     9    10    1
    11    10    11    1
    12    10    19    1
    13    18    19    2
    14    18    17    1
    15    11    12    1
    16    19    13    1
    17    17    16    1
    18    12    13    2
    19    13    14    1
    20    16    14    2
    21    14    15    1
