@<TRIPOS>MOLECULE
2qmp_A00_A_1.pdb
 44 46 0 0 0
SMALL
GASTEIGER

@<TRIPOS>ATOM
      1  C3       -14.8600   18.8580   -4.8900 C.3   100  A00100      0.1996
      2  C1       -16.2880   18.6070   -6.9350 C.3   100  A00100      0.0205
      3  C2       -17.5800   19.0000   -7.6510 C.3   100  A00100      0.0033
      4  C10      -15.3210   22.9000   -4.7720 C.ar  100  A00100      0.1223
      5  C4       -14.1370   20.9470   -6.7390 C.3   100  A00100      0.0958
      6  C5       -14.0710   20.5720   -8.2130 C.3   100  A00100      0.0178
      7  C6       -14.6260   21.6500   -9.1340 C.3   100  A00100      0.0015
      8  C7       -12.6150   20.2880   -8.5450 C.3   100  A00100      0.0015
      9  C12      -14.2830   23.0040   -2.6080 C.ar  100  A00100      0.0194
     10  C11      -15.1110   22.3560   -3.5120 C.ar  100  A00100      0.0213
     11  O26      -24.6800   16.9930   -7.0010 O.2   100  A00100     -0.2245
     12  C24      -24.5170   15.9680   -6.3460 C.2   100  A00100      0.4217
     13  O25      -25.4380   14.8580   -6.5730 O.3   100  A00100     -0.4294
     14  C27      -26.2430   14.8160   -7.7550 C.3   100  A00100      0.2574
     15  N22      -23.5430   15.7910   -5.4370 N.am  100  A00100     -0.1604
     16  C21      -22.4240   16.7130   -5.2490 C.3   100  A00100      0.1841
     17  C28      -22.1880   17.0160   -3.7580 C.3   100  A00100      0.0735
     18  C30      -23.3620   17.6560   -3.0860 C.ar  100  A00100     -0.0163
     19  C40      -23.6180   17.3410   -1.7500 C.ar  100  A00100     -0.0039
     20  C39      -24.7010   17.9190   -1.0800 C.ar  100  A00100     -0.0003
     21  C38      -25.5330   18.8170   -1.7470 C.ar  100  A00100     -0.0000
     22  C37      -25.2820   19.1440   -3.0780 C.ar  100  A00100     -0.0003
     23  C36      -24.2010   18.5640   -3.7440 C.ar  100  A00100     -0.0039
     24  C29      -20.9640   17.8390   -3.5290 C.ar  100  A00100     -0.0163
     25  C35      -19.8190   17.2270   -3.0260 C.ar  100  A00100     -0.0039
     26  C34      -18.6570   17.9700   -2.7940 C.ar  100  A00100     -0.0003
     27  C33      -18.6290   19.3370   -3.0530 C.ar  100  A00100     -0.0000
     28  C32      -19.7740   19.9570   -3.5500 C.ar  100  A00100     -0.0003
     29  C31      -20.9320   19.2120   -3.7870 C.ar  100  A00100     -0.0039
     30  C20      -21.1780   16.1960   -5.9240 C.2   100  A00100      0.2620
     31  O23      -20.7070   15.1100   -5.6110 O.2   100  A00100     -0.2715
     32  N19      -20.6800   16.9850   -6.8850 N.am  100  A00100     -0.2040
     33  C18      -19.2710   17.1570   -7.1800 C.3   100  A00100      0.1152
     34  C17      -18.8350   18.5950   -6.8930 C.3   100  A00100      0.0235
     35  C        -15.9700   19.5000   -5.7300 C.3   100  A00100      0.1124
     36  O        -15.3560   17.7140   -4.1820 O.3   100  A00100     -0.2189
     37  N        -15.4810   20.8360   -6.1380 N.3   100  A00100     -0.1543
     38  S        -16.2660   22.1120   -5.7990 S.O2  100  A00100      0.0633
     39  O8       -17.5330   21.8150   -5.1890 O.2   100  A00100     -0.1528
     40  O9       -16.5060   22.8950   -6.9630 O.2   100  A00100     -0.1528
     41  C15      -14.6710   24.0870   -5.1220 C.ar  100  A00100      0.0213
     42  C14      -13.8360   24.7340   -4.2100 C.ar  100  A00100      0.0194
     43  C13      -13.6420   24.1880   -2.9450 C.ar  100  A00100      0.0892
     44  N16      -12.8400   24.7910   -2.0320 N.pl3 100  A00100     -0.1281
@<TRIPOS>BOND
     1     7     6    1
     2     8     6    1
     3     6     5    1
     4    14    13    1
     5     3     2    1
     6     3    34    1
     7    33    34    1
     8    33    32    1
     9    11    12    2
    10    40    38    2
    11     2    35    1
    12    32    30   am
    13     5    37    1
    14    13    12    1
    15    12    15   am
    16    37    38    1
    17    37    35    1
    18    30    31    2
    19    30    16    1
    20    38    39    2
    21    38     4    1
    22    35     1    1
    23    15    16    1
    24    16    17    1
    25    41     4   ar
    26    41    42   ar
    27     1    36    1
    28     4    10   ar
    29    42    43   ar
    30    29    28   ar
    31    29    24   ar
    32    17    24    1
    33    17    18    1
    34    23    18   ar
    35    23    22   ar
    36    28    27   ar
    37    24    25   ar
    38    10     9   ar
    39    18    19   ar
    40    22    21   ar
    41    27    26   ar
    42    25    26   ar
    43    43     9   ar
    44    43    44    1
    45    19    20   ar
    46    21    20   ar
