@<TRIPOS>MOLECULE
2qmu_GDP_A_1.pdb
 28 30 0 0 0
SMALL
GASTEIGER

@<TRIPOS>ATOM
      1  PB       -39.4920   50.5820   54.0970 P.3   417  GDP417      0.5373
      2  O1B      -38.3890   51.4760   54.4310 O.3   417  GDP417     -0.1143
      3  O2B      -40.7740   51.2270   53.7340 O.3   417  GDP417     -0.1143
      4  O3B      -39.3380   49.6960   52.8420 O.2   417  GDP417     -0.2221
      5  O3A      -39.9320   49.7740   55.5600 O.3   417  GDP417     -0.2261
      6  PA       -38.8710   48.8470   56.4560 P.3   417  GDP417      0.2231
      7  O1A      -39.6820   47.6020   56.5310 O.3   417  GDP417     -0.4370
      8  O2A      -37.4590   48.6670   56.0520 O.2   417  GDP417     -0.5169
      9  O5'      -39.0900   49.6060   57.8810 O.3   417  GDP417     -0.3111
     10  C5'      -38.5230   50.8580   58.3000 C.3   417  GDP417      0.1813
     11  C4'      -38.0030   50.8020   59.7760 C.3   417  GDP417      0.1799
     12  O4'      -38.9950   50.9260   60.8700 O.3   417  GDP417     -0.3326
     13  C3'      -37.2880   49.4980   60.2150 C.3   417  GDP417      0.2158
     14  O3'      -36.3580   49.9500   61.2430 O.3   417  GDP417     -0.2175
     15  C2'      -38.4090   48.6470   60.8280 C.3   417  GDP417      0.2310
     16  O2'      -37.9630   47.6100   61.6920 O.3   417  GDP417     -0.2158
     17  C1'      -39.2330   49.6890   61.5380 C.3   417  GDP417      0.2293
     18  N9       -40.7200   49.4130   61.4920 N.pl3 417  GDP417     -0.2354
     19  C8       -41.5370   48.9220   60.5030 C.3   417  GDP417      0.2246
     20  N7       -42.7870   48.8300   60.8510 N.2   417  GDP417     -0.2322
     21  C5       -42.8290   49.2690   62.1630 C.2   417  GDP417      0.2182
     22  C6       -43.9140   49.4260   63.0900 C.1   417  GDP417      0.2372
     23  O6       -45.1130   49.1510   62.9130 O.2   417  GDP417     -0.2069
     24  N1       -43.4830   49.9260   64.3440 N.2   417  GDP417     -0.2485
     25  C2       -42.1870   50.2660   64.6670 C.1   417  GDP417      0.2531
     26  N2       -42.0010   50.7250   65.8980 N.pl3 417  GDP417     -0.0226
     27  N3       -41.1460   50.1380   63.7980 N.2   417  GDP417     -0.3074
     28  C4       -41.5550   49.6520   62.5930 C.2   417  GDP417      0.2300
@<TRIPOS>BOND
     1     4     1    2
     2     3     1    1
     3     1     2    1
     4     1     5    1
     5     5     6    1
     6     8     6    2
     7     6     7    1
     8     6     9    1
     9     9    10    1
    10    10    11    1
    11    11    13    1
    12    11    12    1
    13    13    15    1
    14    13    14    1
    15    19    20    1
    16    19    18    1
    17    15    17    1
    18    15    16    1
    19    20    21    2
    20    12    17    1
    21    18    17    1
    22    18    28    1
    23    21    28    1
    24    21    22    1
    25    28    27    2
    26    23    22    2
    27    22    24    2
    28    27    25    2
    29    24    25    2
    30    25    26    1
