@<TRIPOS>MOLECULE
2qmx_PHE_A_1.pdb
 12 12 0 0 0
SMALL
GASTEIGER

@<TRIPOS>ATOM
      1  N          3.3700   11.7450   24.6440 N.3   303  PHE303     -0.1205
      2  CA         2.1940   11.1700   23.9370 C.3   303  PHE303      0.1986
      3  C          2.6810   10.1090   22.9500 C.2   303  PHE303      0.3822
      4  O          3.8510    9.7480   23.1520 O.co2 303  PHE303     -0.2440
      5  CB         1.3790   12.2830   23.2790 C.3   303  PHE303      0.0569
      6  CG         2.1920   13.2230   22.3830 C.ar  303  PHE303     -0.0202
      7  CD1        2.5660   14.4980   22.8380 C.ar  303  PHE303     -0.0042
      8  CD2        2.5450   12.8410   21.0840 C.ar  303  PHE303     -0.0042
      9  CE1        3.2920   15.3550   22.0260 C.ar  303  PHE303     -0.0003
     10  CE2        3.2410   13.7110   20.2440 C.ar  303  PHE303     -0.0003
     11  CZ         3.6190   14.9670   20.6890 C.ar  303  PHE303     -0.0000
     12  OXT        2.0410    9.5700   22.0260 O.co2 303  PHE303     -0.2440
@<TRIPOS>BOND
     1    10    11   ar
     2    10     8   ar
     3    11     9   ar
     4     8     6   ar
     5     9     7   ar
     6    12     3   ar
     7     6     7   ar
     8     6     5    1
     9     3     4   ar
    10     3     2    1
    11     5     2    1
    12     2     1    1
