@<TRIPOS>MOLECULE
2qmy_AD1_A_1.pdb
 13 14 0 0 0
SMALL
GASTEIGER

@<TRIPOS>ATOM
      1  CAG       16.8430  -16.3340   29.9440 C.3   501  AD1501      0.1285
      2  NAM       15.5910  -15.9130   30.5990 N.pl3 501  AD1501     -0.3032
      3  CAA       14.2440  -16.2070   30.0270 C.3   501  AD1501      0.1123
      4  CAI       15.8440  -15.2600   31.7570 C.2   501  AD1501      0.0498
      5  CAF       15.0570  -14.3530   32.5430 C.2   501  AD1501      0.0596
      6  CAK       15.6160  -13.8200   33.7490 C.2   501  AD1501      0.2355
      7  OAC       14.9210  -13.0450   34.4070 O.2   501  AD1501     -0.2831
      8  CAJ       16.9510  -14.1910   34.1710 C.2   501  AD1501      0.2341
      9  OAB       17.4530  -13.7490   35.2070 O.2   501  AD1501     -0.2832
     10  CAE       17.7340  -15.0940   33.3850 C.2   501  AD1501      0.0448
     11  CAH       17.1700  -15.6200   32.1850 C.2   501  AD1501      0.0261
     12  CAL       17.7450  -16.5910   31.1470 C.3   501  AD1501      0.1951
     13  OAD       19.1070  -16.2600   30.8060 O.3   501  AD1501     -0.2164
@<TRIPOS>BOND
     1     1     2    1
     2     1    12    1
     3     3     2    1
     4     2     4    1
     5    13    12    1
     6    12    11    1
     7     4    11    1
     8     4     5    2
     9    11    10    2
    10     5     6    1
    11    10     8    1
    12     6     8    1
    13     6     7    2
    14     8     9    2
