@<TRIPOS>MOLECULE
2qmz_LDP_A_1.pdb
 11 11 0 0 0
SMALL
GASTEIGER

@<TRIPOS>ATOM
      1  C7        39.3430   15.1450   32.2200 C.3   501  LDP501      0.0469
      2  C1        37.9780   15.6660   31.7600 C.ar  501  LDP501     -0.0173
      3  C4        35.4780   16.6150   30.9680 C.ar  501  LDP501      0.2342
      4  C2        37.9010   16.5800   30.7000 C.ar  501  LDP501      0.0412
      5  C6        36.8100   15.2260   32.4300 C.ar  501  LDP501     -0.0007
      6  C5        35.5440   15.6990   32.0360 C.ar  501  LDP501      0.0451
      7  C3        36.6370   17.0590   30.2980 C.ar  501  LDP501      0.2339
      8  O1        36.5470   17.9390   29.2740 O.3   501  LDP501     -0.2832
      9  O2        34.2530   17.0810   30.5800 O.3   501  LDP501     -0.2831
     10  C8        40.4580   15.4620   31.2460 C.3   501  LDP501      0.1140
     11  N1        41.6400   16.0220   31.9440 N.3   501  LDP501     -0.1310
@<TRIPOS>BOND
     1     8     7    1
     2     7     4   ar
     3     7     3   ar
     4     9     3    1
     5     4     2   ar
     6     3     6   ar
     7    10    11    1
     8    10     1    1
     9     2     1    1
    10     2     5   ar
    11     6     5   ar
