@<TRIPOS>MOLECULE
2qn1_0AS_A_1.pdb
 35 39 0 0 0
SMALL
GASTEIGER

@<TRIPOS>ATOM
      1  O3        24.0630   -4.0930   54.4410 O.3   930  0AS930     -0.2203
      2  C3        25.2010   -3.2240   54.4770 C.3   930  0AS930      0.1844
      3  C2        26.4510   -3.9890   54.0000 C.3   930  0AS930      0.1822
      4  O2        26.6610   -5.1290   54.8330 O.3   930  0AS930     -0.2204
      5  C1        27.7130   -3.1050   54.0280 C.3   930  0AS930      0.0356
      6  C10       27.5730   -1.8210   53.1800 C.3   930  0AS930      0.0030
      7  C25       27.5740   -2.2000   51.6830 C.3   930  0AS930      0.0001
      8  C9        28.7670   -0.8740   53.5280 C.3   930  0AS930      0.0047
      9  C11       30.1520   -1.5300   53.2460 C.3   930  0AS930      0.0254
     10  C12       31.2010   -0.6130   53.3080 C.2   930  0AS930     -0.0346
     11  C13       31.1340    0.7640   53.5550 C.2   930  0AS930     -0.0489
     12  C18       32.4780    1.5490   53.5500 C.3   930  0AS930      0.0281
     13  C19       33.1830    1.4460   54.9430 C.3   930  0AS930      0.0042
     14  C29       33.9140    0.0980   55.0530 C.3   930  0AS930      0.0003
     15  C20       34.1700    2.5850   55.3180 C.3   930  0AS930      0.0003
     16  C30       34.2930    2.7110   56.8430 C.3   930  0AS930      0.0000
     17  C21       33.8380    3.9620   54.7100 C.3   930  0AS930      0.0006
     18  C22       33.4940    3.8750   53.2140 C.3   930  0AS930      0.0110
     19  C17       32.2690    2.9810   52.9600 C.3   930  0AS930      0.0972
     20  C28       32.0460    2.8920   51.4300 C.2   930  0AS930      0.3641
     21  O29       31.5370    3.8900   50.8700 O.co2 930  0AS930     -0.2457
     22  O28       32.3830    1.8360   50.8440 O.co2 930  0AS930     -0.2457
     23  C16       31.0340    3.6720   53.5870 C.3   930  0AS930      0.0113
     24  C15       29.7290    2.9110   53.3090 C.3   930  0AS930      0.0043
     25  C14       29.7490    1.4490   53.8050 C.3   930  0AS930      0.0149
     26  C27       29.4620    1.4410   55.3240 C.3   930  0AS930      0.0040
     27  C8        28.6720    0.6210   53.0330 C.3   930  0AS930      0.0035
     28  C26       28.8850    0.7740   51.5080 C.3   930  0AS930      0.0003
     29  C7        27.2630    1.2120   53.3430 C.3   930  0AS930      0.0003
     30  C6        26.1010    0.2970   52.9260 C.3   930  0AS930      0.0002
     31  C5        26.2570   -1.0760   53.6200 C.3   930  0AS930      0.0050
     32  C4        24.9440   -1.9360   53.6580 C.3   930  0AS930      0.0612
     33  C24       24.4220   -2.2820   52.2530 C.3   930  0AS930      0.0052
     34  C23       23.8220   -1.1300   54.3430 C.3   930  0AS930      0.1845
     35  O23       24.2150   -0.6630   55.6320 O.3   930  0AS930     -0.2203
@<TRIPOS>BOND
     1    22    20   ar
     2    21    20   ar
     3    20    19    1
     4    28    27    1
     5     7     6    1
     6    33    32    1
     7    30    29    1
     8    30    31    1
     9    19    18    1
    10    19    12    1
    11    19    23    1
    12    27    29    1
    13    27     8    1
    14    27    25    1
    15     6     8    1
    16     6    31    1
    17     6     5    1
    18    18    17    1
    19     9    10    1
    20     9     8    1
    21    10    11    2
    22    24    23    1
    23    24    25    1
    24    12    11    1
    25    12    13    1
    26    11    25    1
    27    31    32    1
    28    32    34    1
    29    32     2    1
    30    25    26    1
    31     3     5    1
    32     3     2    1
    33     3     4    1
    34    34    35    1
    35     1     2    1
    36    17    15    1
    37    13    14    1
    38    13    15    1
    39    15    16    1
