@<TRIPOS>MOLECULE
2qn2_0MA_A_1.pdb
 34 38 0 0 0
SMALL
GASTEIGER

@<TRIPOS>ATOM
      1  O3        24.2160   -3.8110   54.4740 O.3   930  0MA930     -0.2204
      2  C3        25.3170   -2.8950   54.5200 C.3   930  0MA930      0.1819
      3  C4        24.9610   -1.5680   53.8050 C.3   930  0MA930      0.0307
      4  C23       23.9000   -0.8540   54.6470 C.3   930  0MA930      0.0026
      5  C24       24.3780   -1.8350   52.4060 C.3   930  0MA930      0.0026
      6  C5        26.2450   -0.6570   53.7420 C.3   930  0MA930      0.0025
      7  C6        26.0210    0.7560   53.1370 C.3   930  0MA930      0.0001
      8  C7        27.1840    1.6800   53.5460 C.3   930  0MA930      0.0003
      9  C8        28.6020    1.1560   53.1670 C.3   930  0MA930      0.0035
     10  C26       28.8110    1.4150   51.6600 C.3   930  0MA930      0.0003
     11  C14       29.6970    1.8990   53.9970 C.3   930  0MA930      0.0149
     12  C27       29.4670    1.7310   55.5170 C.3   930  0MA930      0.0040
     13  C15       29.7220    3.4170   53.6760 C.3   930  0MA930      0.0043
     14  C16       31.0640    4.1130   53.9970 C.3   930  0MA930      0.0113
     15  C17       32.2340    3.4640   53.2370 C.3   930  0MA930      0.0972
     16  C28       31.8920    3.5130   51.7230 C.2   930  0MA930      0.3641
     17  O28       32.1520    2.5120   51.0140 O.co2 930  0MA930     -0.2457
     18  O29       31.3710    4.5680   51.2990 O.co2 930  0MA930     -0.2457
     19  C22       33.5450    4.2610   53.4570 C.3   930  0MA930      0.0110
     20  C21       34.3210    3.9610   54.7730 C.3   930  0MA930      0.0006
     21  C20       34.4210    2.4770   55.2100 C.3   930  0MA930      0.0003
     22  C29       35.4130    1.6780   54.3510 C.3   930  0MA930      0.0000
     23  C30       34.8850    2.4060   56.6650 C.3   930  0MA930      0.0000
     24  C19       33.0210    1.8440   55.1270 C.3   930  0MA930      0.0046
     25  C18       32.4110    1.9910   53.7120 C.3   930  0MA930      0.0281
     26  C13       31.0790    1.2320   53.6480 C.2   930  0MA930     -0.0489
     27  C12       31.1720   -0.1020   53.2490 C.2   930  0MA930     -0.0346
     28  C11       30.1250   -1.0030   53.0930 C.3   930  0MA930      0.0254
     29  C9        28.7570   -0.3920   53.5200 C.3   930  0MA930      0.0047
     30  C10       27.5520   -1.3300   53.1860 C.3   930  0MA930      0.0029
     31  C25       27.5140   -1.6560   51.6720 C.3   930  0MA930      0.0001
     32  C1        27.7950   -2.6600   53.9470 C.3   930  0MA930      0.0356
     33  C2        26.5700   -3.5910   53.9510 C.3   930  0MA930      0.1821
     34  O2        26.8700   -4.7420   54.7400 O.3   930  0MA930     -0.2204
@<TRIPOS>BOND
     1    17    16   ar
     2    18    16   ar
     3    10     9    1
     4    31    30    1
     5    16    15    1
     6     5     3    1
     7    28    27    1
     8    28    29    1
     9     7     8    1
    10     7     6    1
    11     9    29    1
    12     9     8    1
    13     9    11    1
    14    30    29    1
    15    30     6    1
    16    30    32    1
    17    15    19    1
    18    15    25    1
    19    15    14    1
    20    27    26    2
    21    19    20    1
    22    26    25    1
    23    26    11    1
    24    13    14    1
    25    13    11    1
    26    25    24    1
    27     6     3    1
    28     3     2    1
    29     3     4    1
    30    32    33    1
    31    33     2    1
    32    33    34    1
    33    11    12    1
    34    22    21    1
    35     1     2    1
    36    20    21    1
    37    24    21    1
    38    21    23    1
