@<TRIPOS>MOLECULE
2qn3_F55_A_1.pdb
 24 25 0 0 0
SMALL
GASTEIGER

@<TRIPOS>ATOM
      1  C14       35.8240   25.8530   34.2070 C.ar  998  F55998      0.0054
      2  C13       36.9520   26.3210   34.8820 C.ar  998  F55998      0.0115
      3  C12       38.0560   26.7640   34.1530 C.ar  998  F55998      0.0577
      4 CL1        39.4610   27.3440   34.9890 Cl    998  F55998     -0.0822
      5  C11       38.0370   26.7420   32.7590 C.ar  998  F55998      0.0115
      6  C10       36.9070   26.2750   32.0830 C.ar  998  F55998      0.0054
      7  C9        35.8000   25.8280   32.8100 C.ar  998  F55998      0.0556
      8  C8        34.5490   25.3040   32.0840 C.2   998  F55998      0.2726
      9  O8        33.4320   25.4690   32.5800 O.2   998  F55998     -0.2679
     10  N2        34.7960   24.6790   30.9190 N.am  998  F55998     -0.1223
     11  C7        33.8620   24.1360   30.1190 C.2   998  F55998      0.3482
     12  O7        32.6550   24.1650   30.3840 O.2   998  F55998     -0.2486
     13  N1        34.3180   23.5620   29.0000 N.am  998  F55998     -0.1564
     14  C1        33.3870   22.9280   28.0250 C.3   998  F55998      0.2462
     15  O5        33.3520   21.5000   28.2530 O.3   998  F55998     -0.3314
     16  C5        32.2800   20.8800   27.4940 C.3   998  F55998      0.1828
     17  C6        32.2130   19.4090   27.9320 C.3   998  F55998      0.2142
     18  O6        33.2950   18.6770   27.3460 O.3   998  F55998     -0.2176
     19  C4        32.4990   21.0580   25.9720 C.3   998  F55998      0.2144
     20  O4        31.3390   20.6100   25.2600 O.3   998  F55998     -0.2176
     21  C3        32.7960   22.5260   25.5980 C.3   998  F55998      0.2190
     22  O3        33.2980   22.5760   24.2570 O.3   998  F55998     -0.2174
     23  C2        33.8170   23.1610   26.5650 C.3   998  F55998      0.2326
     24  O2        33.9640   24.5610   26.2990 O.3   998  F55998     -0.2157
@<TRIPOS>BOND
     1    22    21    1
     2    20    19    1
     3    21    19    1
     4    21    23    1
     5    19    16    1
     6    24    23    1
     7    23    14    1
     8    18    17    1
     9    16    17    1
    10    16    15    1
    11    14    15    1
    12    14    13    1
    13    13    11   am
    14    11    12    2
    15    11    10   am
    16    10     8   am
    17     6     5   ar
    18     6     7   ar
    19     8     9    2
    20     8     7    1
    21     5     3   ar
    22     7     1   ar
    23     3     2   ar
    24     3     4    1
    25     1     2   ar
