@<TRIPOS>MOLECULE
2qn6_GDP_A_1.pdb
 28 30 0 0 0
SMALL
GASTEIGER

@<TRIPOS>ATOM
      1  PB       -10.3070  -23.9870  -16.6750 P.3   417  GDP417      0.5373
      2  O1B       -8.9540  -24.5480  -16.8110 O.3   417  GDP417     -0.1143
      3  O2B      -10.5470  -22.8990  -15.6720 O.3   417  GDP417     -0.1143
      4  O3B      -10.8880  -23.2440  -17.8910 O.2   417  GDP417     -0.2221
      5  O3A      -11.3270  -25.2070  -16.0510 O.3   417  GDP417     -0.2261
      6  PA       -11.4630  -26.7050  -16.7380 P.3   417  GDP417      0.2231
      7  O1A      -12.9340  -26.6730  -16.9350 O.3   417  GDP417     -0.4370
      8  O2A      -10.6590  -27.1110  -17.9130 O.2   417  GDP417     -0.5169
      9  O5'      -11.2200  -27.5470  -15.3980 O.3   417  GDP417     -0.3111
     10  C5'       -9.9510  -27.8230  -14.8210 C.3   417  GDP417      0.1813
     11  C4'       -9.9600  -29.2340  -14.2210 C.3   417  GDP417      0.1799
     12  O4'      -10.7680  -29.4180  -13.0000 O.3   417  GDP417     -0.3326
     13  C3'      -10.5210  -30.3540  -15.1570 C.3   417  GDP417      0.2158
     14  O3'       -9.6210  -31.4720  -14.9470 O.3   417  GDP417     -0.2175
     15  C2'      -11.9260  -30.6950  -14.6240 C.3   417  GDP417      0.2310
     16  O2'      -12.2730  -32.0660  -14.7510 O.3   417  GDP417     -0.2158
     17  C1'      -11.8690  -30.2800  -13.1810 C.3   417  GDP417      0.2293
     18  N9       -13.1400  -29.5930  -12.7010 N.pl3 417  GDP417     -0.2354
     19  C8       -13.9430  -28.6210  -13.2420 C.3   417  GDP417      0.2246
     20  N7       -14.9640  -28.3100  -12.4910 N.2   417  GDP417     -0.2322
     21  C5       -14.8510  -29.1200  -11.3680 C.2   417  GDP417      0.2182
     22  C6       -15.6580  -29.2590  -10.1750 C.1   417  GDP417      0.2372
     23  O6       -16.7000  -28.6440   -9.8780 O.2   417  GDP417     -0.2069
     24  N1       -15.1360  -30.2400   -9.2790 N.2   417  GDP417     -0.2485
     25  C2       -13.9890  -30.9910   -9.4940 C.1   417  GDP417      0.2531
     26  N2       -13.6670  -31.8550   -8.5370 N.pl3 417  GDP417     -0.0226
     27  N3       -13.2190  -30.8740  -10.6080 N.2   417  GDP417     -0.3074
     28  C4       -13.7160  -29.9330  -11.4720 C.2   417  GDP417      0.2300
@<TRIPOS>BOND
     1     8     6    2
     2     4     1    2
     3     7     6    1
     4     2     1    1
     5     6     5    1
     6     6     9    1
     7     1     5    1
     8     1     3    1
     9     9    10    1
    10    13    14    1
    11    13    15    1
    12    13    11    1
    13    10    11    1
    14    16    15    1
    15    15    17    1
    16    11    12    1
    17    19    18    1
    18    19    20    1
    19    17    12    1
    20    17    18    1
    21    18    28    1
    22    20    21    2
    23    28    21    1
    24    28    27    2
    25    21    22    1
    26    27    25    2
    27    22    23    2
    28    22    24    2
    29    25    24    2
    30    25    26    1
