@<TRIPOS>MOLECULE
2qn7_IMP_A_1.pdb
 23 25 0 0 0
SMALL
GASTEIGER

@<TRIPOS>ATOM
      1  P         30.9490    2.3360   51.5560 P.3   930  IMP930      0.5327
      2  O1P       31.2450    2.0170   50.1220 O.2   930  IMP930     -0.2224
      3  O2P       30.4110    3.7350   51.7130 O.3   930  IMP930     -0.1145
      4  O3P       32.1260    2.1080   52.3940 O.3   930  IMP930     -0.1145
      5  O5'       29.7600    1.3850   52.0710 O.3   930  IMP930     -0.2675
      6  C5'       29.1470    0.3980   51.1660 C.3   930  IMP930      0.1860
      7  C4'       27.9880   -0.4960   51.8250 C.3   930  IMP930      0.1823
      8  O4'       28.6830   -1.7810   51.9410 O.3   930  IMP930     -0.3135
      9  C3'       27.6170   -0.2470   53.2780 C.3   930  IMP930      0.2184
     10  O3'       26.4640    0.6120   53.3840 O.3   930  IMP930     -0.2174
     11  C2'       27.2100   -1.7010   53.7210 C.3   930  IMP930      0.2570
     12  O2'       25.9850   -2.2150   53.1880 O.3   930  IMP930     -0.2130
     13  C1'       28.2730   -2.5450   53.0900 C.3   930  IMP930      0.3186
     14  N9        29.4800   -2.7700   53.9790 N.pl3 930  IMP930     -0.1435
     15  C8        30.5740   -1.9880   53.9950 C.3   930  IMP930      0.3382
     16  N7        31.4950   -2.5020   54.9660 N.2   930  IMP930     -0.2054
     17  C5        30.8180   -3.6230   55.4820 C.2   930  IMP930      0.2446
     18  C6        31.3150   -4.5230   56.5190 C.1   930  IMP930      0.1792
     19  O6        32.3730   -4.4840   57.1260 O.2   930  IMP930     -0.2203
     20  N1        30.3430   -5.4960   56.7380 N.2   930  IMP930     -0.1458
     21  C2        29.1020   -5.5950   56.0740 C.3   930  IMP930      0.4017
     22  N3        28.7340   -4.7650   55.1700 N.2   930  IMP930     -0.0334
     23  C4        29.6110   -3.7940   54.9040 C.2   930  IMP930      0.3528
@<TRIPOS>BOND
     1     2     1    2
     2     6     7    1
     3     6     5    1
     4     1     3    1
     5     1     5    1
     6     1     4    1
     7     7     8    1
     8     7     9    1
     9     8    13    1
    10    13    11    1
    11    13    14    1
    12    12    11    1
    13     9    10    1
    14     9    11    1
    15    14    15    1
    16    14    23    1
    17    15    16    1
    18    23    22    2
    19    23    17    1
    20    16    17    2
    21    22    21    1
    22    17    18    1
    23    21    20    1
    24    18    20    2
    25    18    19    2
