@<TRIPOS>MOLECULE
2qn7_PLP_A_1.pdb
 15 15 0 0 0
SMALL
GASTEIGER

@<TRIPOS>ATOM
      1  N1        24.7300   25.6230   30.3440 N.ar  999  PLP999     -0.2452
      2  C2        23.6110   24.8940   30.5990 C.ar  999  PLP999      0.0978
      3  C2A       22.7160   25.3150   31.7540 C.3   999  PLP999      0.0555
      4  C3        23.3690   23.7340   29.8880 C.ar  999  PLP999      0.2049
      5  O3        22.1760   23.0300   30.1160 O.3   999  PLP999     -0.2857
      6  C4        24.2770   23.3270   28.9120 C.ar  999  PLP999      0.0182
      7  C4A       23.9600   22.0570   28.0370 C.3   999  PLP999      0.0342
      8  C5        25.4290   24.1030   28.6900 C.ar  999  PLP999      0.0261
      9  C6        25.6300   25.2250   29.4080 C.ar  999  PLP999      0.0965
     10  C5A       26.4490   23.8170   27.5790 C.3   999  PLP999      0.1815
     11  O4P       26.0260   24.4900   26.4230 O.3   999  PLP999     -0.2653
     12  P         26.9920   24.7200   25.1370 P.3   999  PLP999      0.5329
     13  O1P       26.1380   25.4460   24.1890 O.2   999  PLP999     -0.2224
     14  O2P       28.1130   25.6920   25.6030 O.3   999  PLP999     -0.1145
     15  O3P       27.5420   23.4290   24.7140 O.3   999  PLP999     -0.1145
@<TRIPOS>BOND
     1    13    12    2
     2    15    12    1
     3    12    14    1
     4    12    11    1
     5    11    10    1
     6    10     8    1
     7     7     6    1
     8     8     6   ar
     9     8     9   ar
    10     6     4   ar
    11     9     1   ar
    12     4     5    1
    13     4     2   ar
    14     1     2   ar
    15     2     3    1
