@<TRIPOS>MOLECULE
2qn7_HBZ_A_1.pdb
 24 25 0 0 0
SMALL
GASTEIGER

@<TRIPOS>ATOM
      1  O5        33.1040   21.5560   28.3790 O.3   998  HBZ998     -0.3314
      2  C1        33.2560   23.0380   28.0790 C.3   998  HBZ998      0.2462
      3  C2        33.7560   23.1620   26.5830 C.3   998  HBZ998      0.2326
      4  O2        33.9300   24.5330   26.2870 O.3   998  HBZ998     -0.2157
      5  C3        32.6440   22.5240   25.6460 C.3   998  HBZ998      0.2190
      6  O3        33.0360   22.6000   24.2430 O.3   998  HBZ998     -0.2174
      7  C4        32.4820   21.0640   26.0140 C.3   998  HBZ998      0.2144
      8  O4        31.4340   20.4390   25.1900 O.3   998  HBZ998     -0.2176
      9  C5        32.1060   20.9090   27.5040 C.3   998  HBZ998      0.1828
     10  C6        31.9860   19.3920   27.8760 C.3   998  HBZ998      0.2142
     11  O6        33.1820   18.6920   27.4120 O.3   998  HBZ998     -0.2176
     12  N1        34.1990   23.5800   29.0100 N.am  998  HBZ998     -0.1564
     13  C7        33.7250   24.1310   30.1270 C.2   998  HBZ998      0.3482
     14  O7        32.4910   24.1590   30.3270 O.2   998  HBZ998     -0.2486
     15  N2        34.5980   24.6290   31.0200 N.am  998  HBZ998     -0.1223
     16  C8        34.2820   25.2270   32.2180 C.2   998  HBZ998      0.2726
     17  O8        33.1040   25.3910   32.6140 O.2   998  HBZ998     -0.2679
     18  C9        35.4290   25.6740   33.0860 C.ar  998  HBZ998      0.0557
     19  C10       36.7430   25.9050   32.5170 C.ar  998  HBZ998      0.0079
     20  C11       37.8580   26.3270   33.3670 C.ar  998  HBZ998      0.0422
     21  C12       37.6370   26.5130   34.7880 C.ar  998  HBZ998      0.1957
     22  C13       36.3310   26.2890   35.3640 C.ar  998  HBZ998      0.0422
     23  C14       35.2230   25.8690   34.5210 C.ar  998  HBZ998      0.0079
     24  O12       38.6620   26.9030   35.6150 O.3   998  HBZ998     -0.2866
@<TRIPOS>BOND
     1     6     5    1
     2     8     7    1
     3     5     7    1
     4     5     3    1
     5     7     9    1
     6     4     3    1
     7     3     2    1
     8    11    10    1
     9     9    10    1
    10     9     1    1
    11     2     1    1
    12     2    12    1
    13    12    13   am
    14    13    14    2
    15    13    15   am
    16    15    16   am
    17    16    17    2
    18    16    18    1
    19    19    18   ar
    20    19    20   ar
    21    18    23   ar
    22    20    21   ar
    23    23    22   ar
    24    21    22   ar
    25    21    24    1
