@<TRIPOS>MOLECULE
2qn8_PLP_A_1.pdb
 15 15 0 0 0
SMALL
GASTEIGER

@<TRIPOS>ATOM
      1  N1        24.7470   25.4840   30.3320 N.ar  999  PLP999     -0.2452
      2  C2        23.6360   24.7630   30.5620 C.ar  999  PLP999      0.0978
      3  C2A       22.6540   25.1990   31.6580 C.3   999  PLP999      0.0555
      4  C3        23.3950   23.6430   29.8180 C.ar  999  PLP999      0.2049
      5  O3        22.1860   22.9060   30.0710 O.3   999  PLP999     -0.2857
      6  C4        24.2950   23.2480   28.8100 C.ar  999  PLP999      0.0182
      7  C4A       24.0100   22.0020   27.9160 C.3   999  PLP999      0.0342
      8  C5        25.4270   24.0150   28.6160 C.ar  999  PLP999      0.0261
      9  C6        25.6180   25.1040   29.3830 C.ar  999  PLP999      0.0965
     10  C5A       26.4470   23.7780   27.4800 C.3   999  PLP999      0.1815
     11  O4P       26.0380   24.4810   26.2950 O.3   999  PLP999     -0.2653
     12  P         27.0320   24.6420   25.0020 P.3   999  PLP999      0.5329
     13  O1P       26.2470   25.4020   24.0220 O.2   999  PLP999     -0.2224
     14  O2P       28.1550   25.5540   25.5460 O.3   999  PLP999     -0.1145
     15  O3P       27.5880   23.3090   24.6430 O.3   999  PLP999     -0.1145
@<TRIPOS>BOND
     1    13    12    2
     2    15    12    1
     3    12    14    1
     4    12    11    1
     5    11    10    1
     6    10     8    1
     7     7     6    1
     8     8     6   ar
     9     8     9   ar
    10     6     4   ar
    11     9     1   ar
    12     4     5    1
    13     4     2   ar
    14     1     2   ar
    15     2     3    1
