@<TRIPOS>MOLECULE
2qn8_NBY_A_1.pdb
 26 27 0 0 0
SMALL
GASTEIGER

@<TRIPOS>ATOM
      1  O5        19.2610   12.5300   59.1560 O.3   920  NBY920     -0.3314
      2  C1        18.4420   13.3600   58.2380 C.3   920  NBY920      0.2462
      3  C2        17.0210   13.6460   58.8460 C.3   920  NBY920      0.2326
      4  O2        16.2290   14.4530   57.9540 O.3   920  NBY920     -0.2157
      5  C3        17.2080   14.3690   60.2150 C.3   920  NBY920      0.2190
      6  O3        15.9260   14.6530   60.8060 O.3   920  NBY920     -0.2174
      7  C4        18.0650   13.4700   61.1440 C.3   920  NBY920      0.2144
      8  O4        18.2670   14.0980   62.4340 O.3   920  NBY920     -0.2176
      9  C5        19.4580   13.1640   60.4720 C.3   920  NBY920      0.1828
     10  C6        20.3360   12.2320   61.3800 C.3   920  NBY920      0.2142
     11  O6        19.6270   10.9840   61.6450 O.3   920  NBY920     -0.2176
     12  N1        18.3000   12.6830   56.9550 N.am  920  NBY920     -0.1564
     13  C7        18.8900   13.1810   55.8780 C.2   920  NBY920      0.3482
     14  O7        19.5690   14.2330   55.9510 O.2   920  NBY920     -0.2486
     15  N2        18.7670   12.5270   54.6340 N.am  920  NBY920     -0.1223
     16  C8        18.0620   11.4150   54.4870 C.2   920  NBY920      0.2726
     17  O8        17.4600   10.8960   55.4390 O.2   920  NBY920     -0.2679
     18  C9        17.9630   10.7240   53.1370 C.ar  920  NBY920      0.0556
     19  C10       17.1860    9.5040   52.9940 C.ar  920  NBY920      0.0063
     20  C11       17.0880    8.8310   51.7330 C.ar  920  NBY920      0.0242
     21  C12       17.7590    9.3460   50.5500 C.ar  920  NBY920      0.1429
     22  C13       18.5400   10.5820   50.7030 C.ar  920  NBY920      0.0242
     23  C14       18.6380   11.2600   51.9760 C.ar  920  NBY920      0.0063
     24  N3        17.6660    8.6860   49.3230 N.pl3 920  NBY920      0.0577
     25  O9        18.2260    9.1190   48.3520 O.2   920  NBY920     -0.1261
     26  O10       17.0010    7.6450   49.2270 O.2   920  NBY920     -0.1261
@<TRIPOS>BOND
     1    25    24    2
     2    26    24    2
     3    24    21    1
     4    21    22   ar
     5    21    20   ar
     6    22    23   ar
     7    20    19   ar
     8    23    18   ar
     9    19    18   ar
    10    18    16    1
    11    16    15   am
    12    16    17    2
    13    15    13   am
    14    13    14    2
    15    13    12   am
    16    12     2    1
    17     4     3    1
    18     2     3    1
    19     2     1    1
    20     3     5    1
    21     1     9    1
    22     5     6    1
    23     5     7    1
    24     9     7    1
    25     9    10    1
    26     7     8    1
    27    10    11    1
