@<TRIPOS>MOLECULE
2qn9_NBX_A_1.pdb
 24 25 0 0 0
SMALL
GASTEIGER

@<TRIPOS>ATOM
      1  O5        32.9260   21.7210   28.2610 O.3   998  NBX998     -0.3314
      2  C1        33.1140   23.1530   27.8720 C.3   998  NBX998      0.2462
      3  C2        33.7120   23.1410   26.4480 C.3   998  NBX998      0.2326
      4  O2        33.9230   24.5020   26.0650 O.3   998  NBX998     -0.2157
      5  C3        32.6710   22.4760   25.4850 C.3   998  NBX998      0.2190
      6  O3        33.1680   22.5100   24.1370 O.3   998  NBX998     -0.2174
      7  C4        32.4810   21.0190   25.9490 C.3   998  NBX998      0.2144
      8  O4        31.5220   20.3180   25.1400 O.3   998  NBX998     -0.2176
      9  C5        32.0000   20.9910   27.4170 C.3   998  NBX998      0.1828
     10  C6        31.8730   19.5190   27.9340 C.3   998  NBX998      0.2142
     11  O6        32.9820   18.7090   27.4390 O.3   998  NBX998     -0.2176
     12  N1        34.0620   23.7700   28.7890 N.am  998  NBX998     -0.1564
     13  C7        33.6990   24.0660   29.9960 C.2   998  NBX998      0.3482
     14  O7        32.5300   23.8690   30.3580 O.2   998  NBX998     -0.2486
     15  N2        34.6250   24.5920   30.7790 N.am  998  NBX998     -0.1223
     16  C8        34.4000   25.0030   32.0070 C.2   998  NBX998      0.2726
     17  O8        33.2820   24.9640   32.5050 O.2   998  NBX998     -0.2679
     18  C9        35.5350   25.5230   32.8780 C.ar  998  NBX998      0.0556
     19  C10       36.8470   25.7210   32.3500 C.ar  998  NBX998      0.0060
     20  C11       37.8920   26.1810   33.2070 C.ar  998  NBX998      0.0182
     21  C12       37.6220   26.4350   34.5890 C.ar  998  NBX998      0.0891
     22  C13       36.3220   26.2410   35.1060 C.ar  998  NBX998      0.0182
     23  C14       35.2920   25.7870   34.2620 C.ar  998  NBX998      0.0060
     24  N3        38.6400   26.8790   35.4430 N.pl3 998  NBX998     -0.1281
@<TRIPOS>BOND
     1     6     5    1
     2     8     7    1
     3     5     7    1
     4     5     3    1
     5     7     9    1
     6     4     3    1
     7     3     2    1
     8     9    10    1
     9     9     1    1
    10    11    10    1
    11     2     1    1
    12     2    12    1
    13    12    13   am
    14    13    14    2
    15    13    15   am
    16    15    16   am
    17    16    17    2
    18    16    18    1
    19    19    18   ar
    20    19    20   ar
    21    18    23   ar
    22    20    21   ar
    23    23    22   ar
    24    21    22   ar
    25    21    24    1
