@<TRIPOS>MOLECULE
2qn9_IMP_A_1.pdb
 23 25 0 0 0
SMALL
GASTEIGER

@<TRIPOS>ATOM
      1  P         30.9410    2.1170   51.1980 P.3   930  IMP930      0.5327
      2  O1P       31.2050    1.8130   49.7570 O.2   930  IMP930     -0.2224
      3  O2P       30.4320    3.5180   51.3830 O.3   930  IMP930     -0.1145
      4  O3P       32.1330    1.8540   51.9880 O.3   930  IMP930     -0.1145
      5  O5'       29.7490    1.1770   51.7190 O.3   930  IMP930     -0.2675
      6  C5'       29.1070    0.1890   50.8240 C.3   930  IMP930      0.1860
      7  C4'       27.9350   -0.6710   51.5080 C.3   930  IMP930      0.1823
      8  O4'       28.6020   -1.9700   51.6630 O.3   930  IMP930     -0.3135
      9  C3'       27.5760   -0.3830   52.9490 C.3   930  IMP930      0.2184
     10  O3'       26.4540    0.5140   53.0310 O.3   930  IMP930     -0.2174
     11  C2'       27.1310   -1.8100   53.4420 C.3   930  IMP930      0.2570
     12  O2'       25.8880   -2.3150   52.9350 O.3   930  IMP930     -0.2130
     13  C1'       28.1690   -2.6960   52.8340 C.3   930  IMP930      0.3186
     14  N9        29.3600   -2.9540   53.7330 N.pl3 930  IMP930     -0.1435
     15  C8        30.4790   -2.2130   53.7330 C.3   930  IMP930      0.3382
     16  N7        31.3790   -2.7400   54.7130 N.2   930  IMP930     -0.2054
     17  C5        30.6660   -3.8140   55.2630 C.2   930  IMP930      0.2446
     18  C6        31.1400   -4.7130   56.3120 C.1   930  IMP930      0.1792
     19  O6        32.1920   -4.7020   56.9270 O.2   930  IMP930     -0.2203
     20  N1        30.1290   -5.6400   56.5590 N.2   930  IMP930     -0.1458
     21  C2        28.8900   -5.7120   55.8980 C.3   930  IMP930      0.4017
     22  N3        28.5480   -4.8870   54.9740 N.2   930  IMP930     -0.0334
     23  C4        29.4530   -3.9610   54.6850 C.2   930  IMP930      0.3528
@<TRIPOS>BOND
     1     2     1    2
     2     6     7    1
     3     6     5    1
     4     1     3    1
     5     1     5    1
     6     1     4    1
     7     7     8    1
     8     7     9    1
     9     8    13    1
    10    13    11    1
    11    13    14    1
    12    12    11    1
    13     9    10    1
    14     9    11    1
    15    14    15    1
    16    14    23    1
    17    15    16    1
    18    23    22    2
    19    23    17    1
    20    16    17    2
    21    22    21    1
    22    17    18    1
    23    21    20    1
    24    18    20    2
    25    18    19    2
