@<TRIPOS>MOLECULE
2qn9_PLP_A_1.pdb
 15 15 0 0 0
SMALL
GASTEIGER

@<TRIPOS>ATOM
      1  N1        24.6940   25.5160   30.2770 N.ar  999  PLP999     -0.2452
      2  C2        23.5920   24.7830   30.5410 C.ar  999  PLP999      0.0978
      3  C2A       22.6900   25.2220   31.6980 C.3   999  PLP999      0.0555
      4  C3        23.3490   23.6250   29.8240 C.ar  999  PLP999      0.2049
      5  O3        22.1940   22.9050   30.0650 O.3   999  PLP999     -0.2857
      6  C4        24.2600   23.2150   28.8520 C.ar  999  PLP999      0.0182
      7  C4A       23.9620   21.9170   27.9750 C.3   999  PLP999      0.0342
      8  C5        25.4030   23.9990   28.6260 C.ar  999  PLP999      0.0261
      9  C6        25.5950   25.1290   29.3410 C.ar  999  PLP999      0.0965
     10  C5A       26.4140   23.7130   27.4860 C.3   999  PLP999      0.1815
     11  O4P       26.0080   24.4150   26.3270 O.3   999  PLP999     -0.2653
     12  P         26.9800   24.6350   25.0330 P.3   999  PLP999      0.5329
     13  O1P       26.1850   25.4160   24.0870 O.2   999  PLP999     -0.2224
     14  O2P       28.0840   25.5880   25.5760 O.3   999  PLP999     -0.1145
     15  O3P       27.5670   23.3530   24.6070 O.3   999  PLP999     -0.1145
@<TRIPOS>BOND
     1    13    12    2
     2    15    12    1
     3    12    14    1
     4    12    11    1
     5    11    10    1
     6    10     8    1
     7     7     6    1
     8     8     6   ar
     9     8     9   ar
    10     6     4   ar
    11     9     1   ar
    12     4     5    1
    13     4     2   ar
    14     1     2   ar
    15     2     3    1
