@<TRIPOS>MOLECULE
2qnb_BZD_A_1.pdb
 23 24 0 0 0
SMALL
GASTEIGER

@<TRIPOS>ATOM
      1  O5        33.2690   21.6000   28.3550 O.3   998  BZD998     -0.3314
      2  C1        33.3250   23.0170   28.0760 C.3   998  BZD998      0.2462
      3  C2        33.7860   23.1820   26.6150 C.3   998  BZD998      0.2326
      4  O2        33.9870   24.5640   26.3150 O.3   998  BZD998     -0.2157
      5  C3        32.7460   22.5530   25.6620 C.3   998  BZD998      0.2190
      6  O3        33.2050   22.5940   24.3020 O.3   998  BZD998     -0.2174
      7  C4        32.4610   21.0920   26.0620 C.3   998  BZD998      0.2144
      8  O4        31.3240   20.5970   25.3410 O.3   998  BZD998     -0.2176
      9  C5        32.2230   20.9420   27.5860 C.3   998  BZD998      0.1828
     10  C6        32.1840   19.4770   28.0500 C.3   998  BZD998      0.2142
     11  O6        33.2640   18.7340   27.4580 O.3   998  BZD998     -0.2176
     12  N1        34.2380   23.6330   29.0770 N.am  998  BZD998     -0.1564
     13  C7        33.7460   24.1970   30.1860 C.2   998  BZD998      0.3482
     14  O7        32.5350   24.2170   30.4150 O.2   998  BZD998     -0.2486
     15  N2        34.6460   24.7240   31.0320 N.am  998  BZD998     -0.1223
     16  C8        34.3310   25.3260   32.1920 C.2   998  BZD998      0.2726
     17  O8        33.1870   25.4740   32.6300 O.2   998  BZD998     -0.2679
     18  C9        35.5300   25.8380   33.0020 C.ar  998  BZD998      0.0555
     19  C10       36.7060   26.2370   32.3620 C.ar  998  BZD998      0.0046
     20  C11       37.7810   26.6870   33.1360 C.ar  998  BZD998      0.0001
     21  C12       37.6780   26.7360   34.5270 C.ar  998  BZD998      0.0000
     22  C13       36.5040   26.3450   35.1700 C.ar  998  BZD998      0.0001
     23  C14       35.4330   25.8900   34.3990 C.ar  998  BZD998      0.0046
@<TRIPOS>BOND
     1     6     5    1
     2     8     7    1
     3     5     7    1
     4     5     3    1
     5     7     9    1
     6     4     3    1
     7     3     2    1
     8    11    10    1
     9     9    10    1
    10     9     1    1
    11     2     1    1
    12     2    12    1
    13    12    13   am
    14    13    14    2
    15    13    15   am
    16    15    16   am
    17    16    17    2
    18    16    18    1
    19    19    18   ar
    20    19    20   ar
    21    18    23   ar
    22    20    21   ar
    23    23    22   ar
    24    21    22   ar
