@<TRIPOS>MOLECULE
2qno_SGC_A_1.pdb
 11 11 0 0 0
SMALL
GASTEIGER

@<TRIPOS>ATOM
      1  C1        57.3420   73.1620   66.0650 C.3   2093  SGC2093     0.1776
      2  C2        56.3040   73.7960   66.9990 C.3   2093  SGC2093     0.2124
      3  O2        56.2690   75.2100   66.8140 O.3   2093  SGC2093    -0.2177
      4  C3        56.6670   73.5430   68.4540 C.3   2093  SGC2093     0.1977
      5  O3        55.5580   73.9760   69.2560 O.3   2093  SGC2093    -0.2193
      6  C4        57.0220   72.0810   68.7480 C.3   2093  SGC2093     0.1206
      7  C5        57.9330   71.4680   67.6610 C.3   2093  SGC2093     0.1614
      8  O5        57.4800   71.7500   66.3180 O.3   2093  SGC2093    -0.3498
      9  C6        58.0630   69.9420   67.8450 C.3   2093  SGC2093     0.2124
     10  O6        57.1030   69.2040   67.0890 O.3   2093  SGC2093    -0.2177
     11  S4        57.7480   71.9880   70.4260 S.3   2093  SGC2093    -0.0777
@<TRIPOS>BOND
     1     1     8    1
     2     1     2    1
     3     8     7    1
     4     3     2    1
     5     2     4    1
     6    10     9    1
     7     7     9    1
     8     7     6    1
     9     4     6    1
    10     4     5    1
    11     6    11    1
