@<TRIPOS>MOLECULE
2qno_BGC_A_1.pdb
 11 11 0 0 0
SMALL
GASTEIGER

@<TRIPOS>ATOM
      1  C2        59.1410   72.8680   61.7220 C.3   2094  BGC2094     0.2141
      2  C3        58.0760   72.5990   62.7790 C.3   2094  BGC2094     0.2173
      3  C4        58.1180   73.6400   63.8970 C.3   2094  BGC2094     0.2142
      4  C5        58.0590   75.0130   63.2130 C.3   2094  BGC2094     0.1810
      5  C6        57.8330   76.2320   64.1150 C.3   2094  BGC2094     0.2141
      6  C1        59.0020   74.3200   61.2670 C.3   2094  BGC2094     0.1777
      7  O2        58.9780   71.9860   60.6250 O.3   2094  BGC2094    -0.2176
      8  O3        58.2760   71.3000   63.2590 O.3   2094  BGC2094    -0.2175
      9  O4        56.9670   73.4510   64.7050 O.3   2094  BGC2094    -0.2176
     10  O5        59.1980   75.1460   62.3880 O.3   2094  BGC2094    -0.3481
     11  O6        58.9260   76.4540   64.9580 O.3   2094  BGC2094    -0.2176
@<TRIPOS>BOND
     1     7     1    1
     2     6     1    1
     3     6    10    1
     4     1     2    1
     5    10     4    1
     6     2     8    1
     7     2     3    1
     8     4     3    1
     9     4     5    1
    10     3     9    1
    11     5    11    1
