@<TRIPOS>MOLECULE
2qnp_QN2_A_1.pdb
 41 45 0 0 0
SMALL
GASTEIGER

@<TRIPOS>ATOM
      1  C1        15.2980   19.1990   -1.7390 C.ar  2501  QN22501     0.0014
      2  C17       16.3380   19.6680   -2.5470 C.ar  2501  QN22501     0.0199
      3  C26       16.1210   19.9560   -3.8860 C.ar  2501  QN22501     0.1222
      4  C19       14.8980   19.7400   -4.5270 C.ar  2501  QN22501     0.0199
      5  C3        13.8700   19.2120   -3.7140 C.ar  2501  QN22501     0.0014
      6  C4        14.0730   18.9590   -2.3690 C.ar  2501  QN22501     0.0001
      7  S8        17.4690   20.6260   -4.8430 S.O2  2501  QN22501     0.0636
      8  N28       17.1950   22.3030   -4.5200 N.3   2501  QN22501    -0.1496
      9  C7        17.6520   22.9060   -3.2900 C.3   2501  QN22501     0.1221
     10  C12       19.0420   23.4980   -3.1970 C.ar  2501  QN22501    -0.0044
     11  C14       19.2430   24.4300   -2.1670 C.ar  2501  QN22501    -0.0024
     12  C30       20.4790   25.0270   -1.9590 C.ar  2501  QN22501     0.0055
     13  C31       21.5030   24.7170   -2.8430 C.ar  2501  QN22501     0.0300
     14  I2        23.3480   25.5540   -2.5420 I     2501  QN22501    -0.0425
     15  C29       21.3250   23.8270   -3.8880 C.ar  2501  QN22501     0.0055
     16  C13       20.0870   23.2010   -4.0600 C.ar  2501  QN22501    -0.0024
     17  C23       16.4020   23.0880   -5.4550 C.3   2501  QN22501     0.1149
     18  C24       16.9870   24.4730   -5.8650 C.3   2501  QN22501     0.1149
     19  N32       16.9530   24.6100   -7.3240 N.3   2501  QN22501    -0.1496
     20  S9        18.3990   24.4210   -8.1760 S.O2  2501  QN22501     0.0636
     21  O11       19.1390   23.3670   -7.4750 O.2   2501  QN22501    -0.1528
     22  C27       19.4050   25.8510   -8.2430 C.ar  2501  QN22501     0.1222
     23  C18       20.7360   25.7180   -7.7900 C.ar  2501  QN22501     0.0199
     24  C2        21.5910   26.8250   -7.8290 C.ar  2501  QN22501     0.0014
     25  C6        21.1310   28.0640   -8.2980 C.ar  2501  QN22501     0.0001
     26  C5        19.8130   28.2030   -8.7580 C.ar  2501  QN22501     0.0014
     27  C20       18.9830   27.0750   -8.7480 C.ar  2501  QN22501     0.0199
     28  O40       18.0870   24.1310   -9.5870 O.2   2501  QN22501    -0.1528
     29  C33       15.6970   24.8170   -8.0700 C.3   2501  QN22501     0.1221
     30  C34       14.9150   23.5050   -8.3500 C.ar  2501  QN22501    -0.0044
     31  C38       13.5870   23.3820   -7.9110 C.ar  2501  QN22501    -0.0024
     32  C39       12.8270   22.2260   -8.1390 C.ar  2501  QN22501     0.0055
     33  C37       13.4230   21.1660   -8.8270 C.ar  2501  QN22501     0.0300
     34  I1        12.4060   19.4040   -9.2050 I     2501  QN22501    -0.0425
     35  C36       14.7510   21.2650   -9.2470 C.ar  2501  QN22501     0.0055
     36  C35       15.4930   22.4190   -9.0300 C.ar  2501  QN22501    -0.0024
     37  C25       16.1870   25.4370   -4.9770 C.3   2501  QN22501     0.1079
     38  N22       14.8400   24.8350   -4.8270 N.3   2501  QN22501    -0.2150
     39  C21       15.0200   23.3860   -4.7830 C.3   2501  QN22501     0.1079
     40  O41       18.6690   20.2080   -4.1580 O.2   2501  QN22501    -0.1528
     41  O10       17.2300   20.3500   -6.2270 O.2   2501  QN22501    -0.1528
@<TRIPOS>BOND
     1    28    20    2
     2    35    36   ar
     3    35    33   ar
     4    34    33    1
     5    36    30   ar
     6    33    32   ar
     7    26    27   ar
     8    26    25   ar
     9    27    22   ar
    10    30    29    1
    11    30    31   ar
    12    25    24   ar
    13    22    20    1
    14    22    23   ar
    15    20    21    2
    16    20    19    1
    17    32    31   ar
    18    29    19    1
    19    24    23   ar
    20    19    18    1
    21    41     7    2
    22    18    17    1
    23    18    37    1
    24    17    39    1
    25    17     8    1
    26    37    38    1
    27     7     8    1
    28     7    40    2
    29     7     3    1
    30    38    39    1
    31     4     3   ar
    32     4     5   ar
    33     8     9    1
    34    16    15   ar
    35    16    10   ar
    36    15    13   ar
    37     3     2   ar
    38     5     6   ar
    39     9    10    1
    40    10    11   ar
    41    13    14    1
    42    13    12   ar
    43     2     1   ar
    44     6     1   ar
    45    11    12   ar
