@<TRIPOS>MOLECULE
2qnq_QN3_A_1.pdb
 41 45 0 0 0
SMALL
GASTEIGER

@<TRIPOS>ATOM
      1  C2       -14.7370   23.2240   -1.7640 C.ar  2501  QN32501     0.0014
      2  C6       -13.6490   23.6870   -2.5430 C.ar  2501  QN32501     0.0009
      3  C5       -13.7490   23.6880   -3.9560 C.ar  2501  QN32501     0.0127
      4  C20      -14.9340   23.2330   -4.6060 C.ar  2501  QN32501     0.0762
      5  C27      -16.0490   22.7610   -3.8340 C.ar  2501  QN32501     0.1327
      6  S9       -17.6440   22.1560   -4.4740 S.O2  2501  QN32501     0.0644
      7  N32      -17.3770   20.4350   -4.1040 N.3   2501  QN32501    -0.1496
      8  C24      -16.4990   19.6960   -5.0680 C.3   2501  QN32501     0.1149
      9  C23      -17.1200   18.3860   -5.6960 C.3   2501  QN32501     0.1149
     10  N28      -17.0730   18.3830   -7.1910 N.3   2501  QN32501    -0.1496
     11  S8       -18.5450   18.7020   -8.0640 S.O2  2501  QN32501     0.0644
     12  O10      -19.0970   19.9320   -7.5320 O.2   2501  QN32501    -0.1527
     13  O41      -18.2240   18.6930   -9.4900 O.2   2501  QN32501    -0.1527
     14  C26      -19.7460   17.3730   -7.8620 C.ar  2501  QN32501     0.1327
     15  C19      -20.9680   17.6690   -7.1920 C.ar  2501  QN32501     0.0208
     16  C3       -21.9690   16.6720   -7.0090 C.ar  2501  QN32501     0.0014
     17  C4       -21.7560   15.3520   -7.5020 C.ar  2501  QN32501     0.0009
     18  C1       -20.5420   15.0360   -8.1760 C.ar  2501  QN32501     0.0127
     19  C17      -19.5360   16.0350   -8.3600 C.ar  2501  QN32501     0.0762
     20 CL1       -18.0790   15.5790   -9.2030 Cl    2501  QN32501    -0.0809
     21  C7       -15.8450   18.0910   -7.9740 C.3   2501  QN32501     0.1221
     22  C12      -14.9580   19.3250   -8.2840 C.ar  2501  QN32501    -0.0045
     23  C13      -15.4980   20.4470   -8.9850 C.ar  2501  QN32501    -0.0029
     24  C29      -14.6860   21.5770   -9.2820 C.ar  2501  QN32501    -0.0003
     25  C31      -13.3200   21.6000   -8.8780 C.ar  2501  QN32501    -0.0000
     26  C30      -12.7710   20.4890   -8.1770 C.ar  2501  QN32501    -0.0003
     27  C14      -13.5860   19.3620   -7.8840 C.ar  2501  QN32501    -0.0029
     28  C21      -16.3310   17.2600   -4.9760 C.3   2501  QN32501     0.1079
     29  N22      -14.9820   17.8160   -4.7060 N.3   2501  QN32501    -0.2150
     30  C25      -15.1360   19.2670   -4.4520 C.3   2501  QN32501     0.1079
     31  C33      -18.0090   19.8160   -2.9120 C.3   2501  QN32501     0.1221
     32  C34      -19.3980   19.1890   -3.0370 C.ar  2501  QN32501    -0.0045
     33  C35      -20.3680   19.7000   -3.9380 C.ar  2501  QN32501    -0.0029
     34  C36      -21.6560   19.0940   -4.0180 C.ar  2501  QN32501    -0.0003
     35  C37      -21.9810   17.9720   -3.1970 C.ar  2501  QN32501    -0.0000
     36  C39      -21.0110   17.4580   -2.2940 C.ar  2501  QN32501    -0.0003
     37  C38      -19.7270   18.0660   -2.2160 C.ar  2501  QN32501    -0.0029
     38  O11      -17.7330   22.2250   -5.9260 O.2   2501  QN32501    -0.1527
     39  O40      -18.5820   22.7870   -3.5540 O.2   2501  QN32501    -0.1527
     40  C18      -15.9210   22.7670   -2.4050 C.ar  2501  QN32501     0.0208
     41 CL3       -14.9550   23.2720   -6.3270 Cl    2501  QN32501    -0.0809
@<TRIPOS>BOND
     1    13    11    2
     2    24    23   ar
     3    24    25   ar
     4    20    19    1
     5    23    22   ar
     6    25    26   ar
     7    19    18   ar
     8    19    14   ar
     9    22    21    1
    10    22    27   ar
    11    26    27   ar
    12    18    17   ar
    13    11    14    1
    14    11    12    2
    15    11    10    1
    16    21    10    1
    17    14    15   ar
    18    17    16   ar
    19    15    16   ar
    20    10     9    1
    21    41     4    1
    22    38     6    2
    23     9     8    1
    24     9    28    1
    25     8    30    1
    26     8     7    1
    27    28    29    1
    28    29    30    1
    29     4     3   ar
    30     4     5   ar
    31     6     7    1
    32     6     5    1
    33     6    39    2
    34     7    31    1
    35    34    33   ar
    36    34    35   ar
    37     3     2   ar
    38    33    32   ar
    39     5    40   ar
    40    35    36   ar
    41    32    31    1
    42    32    37   ar
    43     2     1   ar
    44    40     1   ar
    45    36    37   ar
