@<TRIPOS>MOLECULE
2qnr_GDP_A_1.pdb
 28 30 0 0 0
SMALL
GASTEIGER

@<TRIPOS>ATOM
      1  PB        66.6040    3.6270   -1.1870 P.3   1401  GDP1401     0.5373
      2  O1B       67.4230    3.6160    0.0890 O.3   1401  GDP1401    -0.1143
      3  O2B       66.4190    2.2100   -1.7090 O.2   1401  GDP1401    -0.2221
      4  O3B       65.2580    4.2270   -0.8980 O.3   1401  GDP1401    -0.1143
      5  O3A       67.3850    4.5390   -2.2890 O.3   1401  GDP1401    -0.2261
      6  PA        68.9910    4.7170   -2.2710 P.3   1401  GDP1401     0.2231
      7  O1A       69.4270    5.6690   -1.1890 O.3   1401  GDP1401    -0.4370
      8  O2A       69.7080    3.4150   -2.1830 O.2   1401  GDP1401    -0.5169
      9  O5'       69.2630    5.3690   -3.6800 O.3   1401  GDP1401    -0.3111
     10  C5'       69.3060    4.5250   -4.8190 C.3   1401  GDP1401     0.1813
     11  C4'       70.1110    5.2260   -5.9080 C.3   1401  GDP1401     0.1799
     12  O4'       69.3150    6.3050   -6.4170 O.3   1401  GDP1401    -0.3326
     13  C3'       71.4250    5.8650   -5.4260 C.3   1401  GDP1401     0.2158
     14  O3'       72.5720    5.0440   -5.5470 O.3   1401  GDP1401    -0.2175
     15  C2'       71.6050    7.0260   -6.3480 C.3   1401  GDP1401     0.2310
     16  O2'       72.3480    6.5880   -7.4680 O.3   1401  GDP1401    -0.2158
     17  C1'       70.1960    7.3690   -6.7960 C.3   1401  GDP1401     0.2293
     18  N9        69.7750    8.5760   -6.0950 N.pl3 1401  GDP1401    -0.2354
     19  C8        69.9370    8.8030   -4.7680 C.3   1401  GDP1401     0.2246
     20  N7        69.4300   10.0180   -4.4610 N.2   1401  GDP1401    -0.2322
     21  C5        68.9410   10.5630   -5.5860 C.2   1401  GDP1401     0.2182
     22  C6        68.2720   11.8140   -5.9130 C.1   1401  GDP1401     0.2372
     23  O6        68.0580   12.6250   -4.9770 O.2   1401  GDP1401    -0.2069
     24  N1        67.8980   12.0440   -7.1960 N.2   1401  GDP1401    -0.2485
     25  C2        68.1280   11.1280   -8.1680 C.1   1401  GDP1401     0.2531
     26  N2        67.7590   11.3900   -9.4390 N.pl3 1401  GDP1401    -0.0226
     27  N3        68.7540    9.9220   -7.9230 N.2   1401  GDP1401    -0.3074
     28  C4        69.1710    9.6170   -6.6760 C.2   1401  GDP1401     0.2300
@<TRIPOS>BOND
     1    26    25    1
     2    25    27    2
     3    25    24    2
     4    27    28    2
     5    16    15    1
     6    24    22    2
     7    17    12    1
     8    17    15    1
     9    17    18    1
    10    28    18    1
    11    28    21    1
    12    12    11    1
    13    15    13    1
    14    18    19    1
    15    22    21    1
    16    22    23    2
    17    11    13    1
    18    11    10    1
    19    21    20    2
    20    14    13    1
    21    10     9    1
    22    19    20    1
    23     9     6    1
    24     5     6    1
    25     5     1    1
    26     6     8    2
    27     6     7    1
    28     3     1    2
    29     1     4    1
    30     1     2    1
