@<TRIPOS>MOLECULE
2qnv_CDZ_A_1.pdb
 29 29 0 0 0
SMALL
GASTEIGER

@<TRIPOS>ATOM
      1  CAC       14.1340   17.9240   21.0720 C.3     1  CDZ1        0.0260
      2  CAT       12.8270   18.6620   21.3690 C.2     1  CDZ1       -0.0478
      3  CAD       12.8750   20.0130   22.0870 C.3     1  CDZ1        0.0260
      4  CAN       11.5990   18.1180   21.0070 C.2     1  CDZ1       -0.0341
      5  CAQ       11.3890   16.9020   20.3640 C.3     1  CDZ1        0.0354
      6  CBC       11.1220   15.7050   21.2870 C.3     1  CDZ1        0.0921
      7  CAR        9.6240   15.3770   21.2990 C.3     1  CDZ1        0.0354
      8  CAO        9.3250   14.3250   22.1620 C.2     1  CDZ1       -0.0341
      9  CAU        8.4790   13.2420   21.9540 C.2     1  CDZ1       -0.0478
     10  CAF        7.7220   13.0780   20.6350 C.3     1  CDZ1        0.0260
     11  CAE        8.3100   12.1980   23.0590 C.3     1  CDZ1        0.0260
     12  CAW       11.5840   15.9600   22.7280 C.2     1  CDZ1        0.1604
     13  OAJ       10.8360   16.5900   23.4820 O.2     1  CDZ1       -0.2955
     14  CAY       11.8590   14.5150   20.6670 C.3     1  CDZ1        0.1867
     15  OAL       11.4650   14.0760   19.4410 O.3     1  CDZ1       -0.2176
     16  CBA       12.9250   13.9070   21.3320 C.2     1  CDZ1        0.0779
     17  CAV       13.6880   12.7330   20.7050 C.2     1  CDZ1        0.1738
     18  OAI       14.6200   12.2210   21.3220 O.2     1  CDZ1       -0.2915
     19  CBB       13.3400   12.2130   19.3080 C.3     1  CDZ1        0.0618
     20  CAH       14.5310   12.4750   18.3830 C.3     1  CDZ1        0.0081
     21  CAG       13.0050   10.7210   19.3710 C.3     1  CDZ1        0.0081
     22  CAX       13.3510   14.3660   22.5720 C.2     1  CDZ1        0.1811
     23  OAK       14.3660   13.7090   23.1920 O.2     1  CDZ1       -0.2910
     24  CAZ       12.7880   15.4710   23.2200 C.3     1  CDZ1        0.1235
     25  CAP       13.4780   16.0480   24.4590 C.3     1  CDZ1        0.0405
     26  CAM       12.8690   17.2220   24.8960 C.2     1  CDZ1       -0.0337
     27  CAS       12.4560   17.5200   26.1910 C.2     1  CDZ1       -0.0478
     28  CAB       12.6670   16.5140   27.3250 C.3     1  CDZ1        0.0260
     29  CAA       11.7930   18.8660   26.4920 C.3     1  CDZ1        0.0260
@<TRIPOS>BOND
     1    20    19    1
     2    19    21    1
     3    19    17    1
     4    15    14    1
     5     5     4    1
     6     5     6    1
     7    10     9    1
     8    14     6    1
     9    14    16    1
    10    17    18    2
    11    17    16    1
    12     4     2    2
    13     1     2    1
    14     6     7    1
    15     6    12    1
    16     7     8    1
    17    16    22    2
    18     2     3    1
    19     9     8    2
    20     9    11    1
    21    22    23    1
    22    22    24    1
    23    12    24    1
    24    12    13    2
    25    24    25    1
    26    25    26    1
    27    26    27    2
    28    27    29    1
    29    27    28    1
