@<TRIPOS>MOLECULE
2qnx_UDT_A_1.pdb
 14 13 0 0 0
SMALL
GASTEIGER

@<TRIPOS>ATOM
      1  C11       40.2930   37.1090   51.8930 C.3   860  UDT860      0.0000
      2  C10       39.1200   36.1230   51.8070 C.3   860  UDT860      0.0000
      3  C9        38.9100   35.6480   50.3620 C.3   860  UDT860      0.0000
      4  C8        37.5710   36.1310   49.8030 C.3   860  UDT860      0.0000
      5  C7        36.4550   35.1080   50.0590 C.3   860  UDT860      0.0000
      6  C6        35.1990   35.4370   49.2510 C.3   860  UDT860      0.0000
      7  C5        35.0220   34.4540   48.0900 C.3   860  UDT860      0.0001
      8  C4        33.7700   34.7820   47.2670 C.3   860  UDT860      0.0038
      9  C3        34.0840   34.7180   45.7720 C.3   860  UDT860      0.0475
     10  C2        32.8300   34.4150   44.9530 C.3   860  UDT860      0.2093
     11  O2        32.9180   34.9810   43.6150 O.3   860  UDT860     -0.4405
     12  C1        32.1980   34.2610   42.7110 C.2   860  UDT860      0.3803
     13  O1        32.7100   33.8620   41.6670 O.2   860  UDT860     -0.2364
     14  S1        30.5370   33.9000   43.0320 S.3   860  UDT860      0.0359
@<TRIPOS>BOND
     1    13    12    2
     2    12    14    1
     3    12    11    1
     4    11    10    1
     5    10     9    1
     6     9     8    1
     7     8     7    1
     8     7     6    1
     9     6     5    1
    10     4     5    1
    11     4     3    1
    12     3     2    1
    13     2     1    1
