@<TRIPOS>MOLECULE
2qnx_MDX_A_1.pdb
 14 13 0 0 0
SMALL
GASTEIGER

@<TRIPOS>ATOM
      1  O1        34.6970   45.3180   34.3510 O.co2 861  MDX861     -0.2457
      2  C11       34.7410   44.0970   34.0930 C.2   861  MDX861      0.3649
      3  O2        35.0450   43.5870   32.9950 O.co2 861  MDX861     -0.2457
      4  C10       34.3910   43.1450   35.2250 C.3   861  MDX861      0.1141
      5  C9        33.0610   42.4530   34.9570 C.3   861  MDX861      0.0118
      6  C8        32.8630   41.3020   35.9290 C.3   861  MDX861      0.0006
      7  C7        33.6630   40.0890   35.4610 C.3   861  MDX861      0.0000
      8  C6        32.7230   38.9640   35.0480 C.3   861  MDX861      0.0000
      9  C5        31.8820   38.4850   36.2260 C.3   861  MDX861      0.0000
     10  C4        32.7380   37.7580   37.2510 C.3   861  MDX861      0.0000
     11  C3        32.0730   37.7900   38.6150 C.3   861  MDX861      0.0009
     12  C2        30.9000   36.8230   38.6550 C.3   861  MDX861      0.0125
     13  C1        31.3250   35.5400   39.3330 C.3   861  MDX861      0.0687
     14  S1        29.8870   34.5460   39.8370 S.3   861  MDX861     -0.0821
@<TRIPOS>BOND
     1     3     2   ar
     2     2     1   ar
     3     2     4    1
     4     5     4    1
     5     5     6    1
     6     8     7    1
     7     8     9    1
     8     7     6    1
     9     9    10    1
    10    10    11    1
    11    11    12    1
    12    12    13    1
    13    13    14    1
