@<TRIPOS>MOLECULE
2qny_DFD_A_1.pdb
 13 12 0 0 0
SMALL
GASTEIGER

@<TRIPOS>ATOM
      1  C11       34.3810   44.1510   33.6690 C.3   760  DFD760      0.0000
      2  C10       33.7850   43.5490   34.9440 C.3   760  DFD760      0.0000
      3  C9        32.7460   42.4710   34.6240 C.3   760  DFD760      0.0000
      4  C8        33.0590   41.1710   35.3670 C.3   760  DFD760      0.0000
      5  C7        31.7890   40.4180   35.7610 C.3   760  DFD760      0.0000
      6  C6        32.1300   39.2340   36.6710 C.3   760  DFD760      0.0000
      7  C5        31.1900   38.0520   36.4320 C.3   760  DFD760      0.0001
      8  C4        31.5120   36.8940   37.3810 C.3   760  DFD760      0.0038
      9  C3        30.3160   36.5500   38.2700 C.3   760  DFD760      0.0475
     10  C2        30.7950   36.0520   39.6350 C.3   760  DFD760      0.2090
     11  O2        29.8670   35.1170   40.2190 O.3   760  DFD760     -0.4410
     12  C1        30.4570   33.8030   40.2670 C.2   760  DFD760      0.4181
     13  O1        31.2390   33.5080   41.1730 O.2   760  DFD760     -0.2375
@<TRIPOS>BOND
     1     1     2    1
     2     3     2    1
     3     3     4    1
     4     4     5    1
     5     5     6    1
     6     7     6    1
     7     7     8    1
     8     8     9    1
     9     9    10    1
    10    10    11    1
    11    11    12    1
    12    12    13    2
