@<TRIPOS>MOLECULE
2qnz_DFD_A_1.pdb
 13 12 0 0 0
SMALL
GASTEIGER

@<TRIPOS>ATOM
      1  C11       35.2460   44.3170   33.6920 C.3   760  DFD760      0.0000
      2  C10       34.0010   43.4680   33.8700 C.3   760  DFD760      0.0000
      3  C9        33.8850   42.9120   35.2880 C.3   760  DFD760      0.0000
      4  C8        32.7410   41.9110   35.4370 C.3   760  DFD760      0.0000
      5  C7        33.1880   40.4840   35.1430 C.3   760  DFD760      0.0000
      6  C6        32.0870   39.4710   35.4340 C.3   760  DFD760      0.0000
      7  C5        32.2860   38.8280   36.8020 C.3   760  DFD760      0.0001
      8  C4        31.5050   37.5280   36.9090 C.3   760  DFD760      0.0038
      9  C3        31.9750   36.7130   38.1040 C.3   760  DFD760      0.0475
     10  C2        30.7860   36.1710   38.8820 C.3   760  DFD760      0.2090
     11  O2        31.1720   34.9650   39.5380 O.3   760  DFD760     -0.4410
     12  C1        30.1810   34.0780   40.1270 C.2   760  DFD760      0.4181
     13  O1        29.3750   34.5390   40.9120 O.2   760  DFD760     -0.2375
@<TRIPOS>BOND
     1     1     2    1
     2     2     3    1
     3     5     6    1
     4     5     4    1
     5     3     4    1
     6     6     7    1
     7     7     8    1
     8     8     9    1
     9     9    10    1
    10    10    11    1
    11    11    12    1
    12    12    13    2
