@<TRIPOS>MOLECULE
2qo0_D1T_A_1.pdb
 11 10 0 0 0
SMALL
GASTEIGER

@<TRIPOS>ATOM
      1  C10       32.0530   13.4660   42.9970 C.3   761  D1T761      0.0000
      2  C9        30.5160   13.5720   42.9590 C.3   761  D1T761      0.0000
      3  C8        29.9210   13.6870   44.3660 C.3   761  D1T761      0.0000
      4  C7        28.3820   13.6990   44.3630 C.3   761  D1T761      0.0000
      5  C6        27.7660   12.2900   44.3160 C.3   761  D1T761      0.0000
      6  C5        26.2320   12.3690   44.3260 C.3   761  D1T761      0.0000
      7  C4        25.7140   12.4820   45.7530 C.3   761  D1T761      0.0000
      8  C3        24.2500   12.0120   45.8720 C.3   761  D1T761      0.0009
      9  C2        23.6450   12.3860   47.2360 C.3   761  D1T761      0.0125
     10  C1        22.1240   12.5270   47.0640 C.3   761  D1T761      0.0687
     11  S1        21.2220   12.6940   48.6430 S.3   761  D1T761     -0.0821
@<TRIPOS>BOND
     1     2     1    1
     2     2     3    1
     3     5     6    1
     4     5     4    1
     5     6     7    1
     6     4     3    1
     7     7     8    1
     8     8     9    1
     9    10     9    1
    10    10    11    1
