@<TRIPOS>MOLECULE
2qo1_VZZ_A_1.pdb
 17 16 0 0 0
SMALL
GASTEIGER

@<TRIPOS>ATOM
      1  O3        40.6950   39.7100   57.2840 O.co2 760  VZZ760     -0.2457
      2  C12       41.1620   40.4870   56.4150 C.2   760  VZZ760      0.3649
      3  O4        41.6120   41.6370   56.6280 O.co2 760  VZZ760     -0.2457
      4  C11       41.1900   40.0030   54.9530 C.3   760  VZZ760      0.1141
      5  C10       40.6840   38.5660   54.7750 C.3   760  VZZ760      0.0118
      6  C9        40.1810   38.3660   53.3430 C.3   760  VZZ760      0.0006
      7  C8        40.3830   36.9240   52.8710 C.3   760  VZZ760      0.0000
      8  C7        39.0750   36.1260   52.9630 C.3   760  VZZ760      0.0000
      9  C6        38.5240   35.8100   51.5690 C.3   760  VZZ760      0.0000
     10  C5        37.5180   36.8650   51.1010 C.3   760  VZZ760      0.0001
     11  C4        36.1160   36.2750   51.0760 C.3   760  VZZ760      0.0038
     12  C3        35.5590   36.3080   49.6590 C.3   760  VZZ760      0.0475
     13  C2        34.5190   35.2030   49.4510 C.3   760  VZZ760      0.2093
     14  O2        33.5790   35.5780   48.4220 O.3   760  VZZ760     -0.4405
     15  C1        33.8840   35.0560   47.1980 C.2   760  VZZ760      0.3803
     16  O1        34.7810   34.2270   47.0650 O.2   760  VZZ760     -0.2364
     17  S1        32.9850   35.5590   45.7850 S.3   760  VZZ760      0.0359
@<TRIPOS>BOND
     1    17    15    1
     2    16    15    2
     3    15    14    1
     4    14    13    1
     5    13    12    1
     6    12    11    1
     7    11    10    1
     8    10     9    1
     9     9     8    1
    10     7     8    1
    11     7     6    1
    12     6     5    1
    13     5     4    1
    14     4     2    1
    15     2     3   ar
    16     2     1   ar
