@<TRIPOS>MOLECULE
2qo1_D1T_A_1.pdb
 11 10 0 0 0
SMALL
GASTEIGER

@<TRIPOS>ATOM
      1  C10       35.4190   45.2340   34.6030 C.3   761  D1T761      0.0000
      2  C9        34.2990   44.1960   34.5030 C.3   761  D1T761      0.0000
      3  C8        33.9070   43.6030   35.8630 C.3   761  D1T761      0.0000
      4  C7        33.9500   42.0750   35.7900 C.3   761  D1T761      0.0000
      5  C6        32.6070   41.4340   36.1290 C.3   761  D1T761      0.0000
      6  C5        32.6820   39.9100   36.0380 C.3   761  D1T761      0.0000
      7  C4        32.7090   39.3010   37.4400 C.3   761  D1T761      0.0000
      8  C3        31.6700   38.1880   37.5960 C.3   761  D1T761      0.0009
      9  C2        31.6770   37.5980   39.0170 C.3   761  D1T761      0.0125
     10  C1        30.6760   36.4410   39.0880 C.3   761  D1T761      0.0687
     11  S1        30.3360   35.8240   40.7750 S.3   761  D1T761     -0.0821
@<TRIPOS>BOND
     1     2     1    1
     2     2     3    1
     3     4     3    1
     4     4     5    1
     5     6     5    1
     6     6     7    1
     7     7     8    1
     8     8     9    1
     9     9    10    1
    10    10    11    1
