@<TRIPOS>MOLECULE
2qo7_ANP_A_1.pdb
 31 33 0 0 0
SMALL
GASTEIGER

@<TRIPOS>ATOM
      1  PG        -8.8000    5.8630   60.1630 P.3   1000  ANP1000     0.4884
      2  O1G       -7.5490    6.3810   59.4880 O.2   1000  ANP1000    -0.2331
      3  O2G       -8.8880    6.1780   61.6410 O.3   1000  ANP1000    -0.1240
      4  O3G       -9.0830    4.4250   59.8550 O.3   1000  ANP1000    -0.1240
      5  PB        -9.9610    8.3700   58.8510 P.3   1000  ANP1000     0.4669
      6  O1B      -11.1480    9.1270   59.3820 O.3   1000  ANP1000    -0.1253
      7  O2B       -8.5880    8.9310   59.1510 O.2   1000  ANP1000    -0.2351
      8  N3B      -10.1130    6.7430   59.4400 N.3   1000  ANP1000    -0.0163
      9  PA        -9.0840    7.7680   56.2030 P.3   1000  ANP1000     0.2220
     10  O1A       -8.9590    8.8220   55.1330 O.2   1000  ANP1000    -0.5170
     11  O2A       -7.8460    7.2530   56.8790 O.3   1000  ANP1000    -0.4370
     12  O3A      -10.1750    8.3240   57.2510 O.3   1000  ANP1000    -0.2360
     13  O5'       -9.8370    6.5150   55.5400 O.3   1000  ANP1000    -0.3111
     14  C5'       -9.9590    5.2570   56.1900 C.3   1000  ANP1000     0.1813
     15  C4'       -9.5600    4.1720   55.2150 C.3   1000  ANP1000     0.1821
     16  O4'      -10.3480    4.2790   54.0220 O.3   1000  ANP1000    -0.3135
     17  C3'       -8.0960    4.2730   54.7840 C.3   1000  ANP1000     0.2184
     18  O3'       -7.2190    3.5660   55.6580 O.3   1000  ANP1000    -0.2174
     19  C2'       -8.1180    3.6890   53.3960 C.3   1000  ANP1000     0.2570
     20  O2'       -7.9330    2.2640   53.4480 O.3   1000  ANP1000    -0.2130
     21  C1'       -9.5180    4.0330   52.8870 C.3   1000  ANP1000     0.3186
     22  N9        -9.4400    5.2290   51.9870 N.pl3 1000  ANP1000    -0.1439
     23  C8        -9.5180    6.5430   52.2980 C.3   1000  ANP1000     0.3377
     24  N7        -9.3870    7.3250   51.1900 N.2   1000  ANP1000    -0.2095
     25  C5        -9.2110    6.4870   50.1580 C.2   1000  ANP1000     0.2526
     26  C6        -8.9850    6.6440   48.7190 C.2   1000  ANP1000     0.4393
     27  N6        -8.9450    7.8890   48.1700 N.pl3 1000  ANP1000     0.2180
     28  N1        -8.8540    5.5130   47.9830 N.2   1000  ANP1000     0.0021
     29  C2        -8.9000    4.2740   48.5190 C.3   1000  ANP1000     0.5254
     30  N3        -9.0720    4.0630   49.8440 N.2   1000  ANP1000    -0.0055
     31  C4        -9.2360    5.1120   50.6800 C.2   1000  ANP1000     0.3518
@<TRIPOS>BOND
     1    28    29    1
     2    28    26    2
     3    27    26    1
     4    29    30    1
     5    26    25    1
     6    30    31    2
     7    25    31    1
     8    25    24    2
     9    31    22    1
    10    24    23    1
    11    22    23    1
    12    22    21    1
    13    21    19    1
    14    21    16    1
    15    19    20    1
    16    19    17    1
    17    16    15    1
    18    17    15    1
    19    17    18    1
    20    10     9    2
    21    15    14    1
    22    13    14    1
    23    13     9    1
    24     9    11    1
    25     9    12    1
    26    12     5    1
    27     5     7    2
    28     5     6    1
    29     5     8    1
    30     8     1    1
    31     2     1    2
    32     4     1    1
    33     1     3    1
