@<TRIPOS>MOLECULE
2qo8_3CC_A_1.pdb
 23 24 0 0 0
SMALL
GASTEIGER

@<TRIPOS>ATOM
      1  C1        -4.1360    2.5460   15.0980 C.ar  800  3CC800      0.0155
      2  C2        -5.3780    2.4270   15.7410 C.ar  800  3CC800      0.1247
      3  C3        -6.3370    3.4800   15.7110 C.ar  800  3CC800      0.0197
      4  C4        -6.0410    4.6680   15.0240 C.ar  800  3CC800     -0.0031
      5  C5        -3.8470    3.7650   14.4010 C.ar  800  3CC800     -0.0230
      6  C6        -4.8280    4.7930   14.3920 C.ar  800  3CC800     -0.0243
      7  C7        -4.2810    5.9060   13.6180 C.3   800  3CC800      0.0480
      8  C8        -3.2090    5.3530   12.8240 C.3   800  3CC800      0.1040
      9  C9        -2.6640    4.2220   13.6290 C.3   800  3CC800      0.0481
     10  S1        -5.8200    0.9510   16.6350 S.O2  800  3CC800      0.0935
     11  O1        -5.2710    1.0780   17.9540 O.2   800  3CC800     -0.1503
     12  O2        -7.2490    0.8090   16.5010 O.2   800  3CC800     -0.1503
     13  N1        -5.1460   -0.3060   15.9840 N.3   800  3CC800      0.0392
     14  N2        -2.1590    6.3770   12.5290 N.am  800  3CC800     -0.2065
     15  C10       -2.3190    7.4950   11.7640 C.2   800  3CC800      0.2409
     16  O3        -3.4470    7.6510   11.2820 O.2   800  3CC800     -0.2734
     17  C11       -1.2010    8.5590   11.4660 C.3   800  3CC800      0.0782
     18  C12       -0.5330    9.0940   12.7750 C.3   800  3CC800      0.0091
     19  C13       -1.4750    9.6020   13.8930 C.3   800  3CC800      0.0005
     20  C14       -0.8660    9.3860   15.2820 C.3   800  3CC800      0.0000
     21  C15       -0.1390    7.9690   10.4650 C.3   800  3CC800      0.0091
     22  C16       -0.6710    7.3110    9.1660 C.3   800  3CC800      0.0005
     23  C17       -0.6590    8.2810    7.9780 C.3   800  3CC800      0.0000
@<TRIPOS>BOND
     1    23    22    1
     2    22    21    1
     3    21    17    1
     4    16    15    2
     5    17    15    1
     6    17    18    1
     7    15    14   am
     8    14     8    1
     9    18    19    1
    10     8     7    1
    11     8     9    1
    12     7     6    1
    13     9     5    1
    14    19    20    1
    15     6     5   ar
    16     6     4   ar
    17     5     1   ar
    18     4     3   ar
    19     1     2   ar
    20     3     2   ar
    21     2    10    1
    22    13    10    1
    23    12    10    2
    24    10    11    2
