@<TRIPOS>MOLECULE
2qoa_MAJ_A_1.pdb
 13 14 0 0 0
SMALL
GASTEIGER

@<TRIPOS>ATOM
      1  C1        -5.9060    3.3040   15.2620 C.2   800  MAJ800      0.0031
      2  C2        -5.1180    2.2440   15.7130 C.3   800  MAJ800      0.1927
      3  C3        -3.7180    2.1880   15.4380 C.2   800  MAJ800      0.0031
      4  C4        -3.1230    3.2270   14.6870 C.2   800  MAJ800     -0.0025
      5  C5        -5.2930    4.3460   14.5040 C.2   800  MAJ800     -0.0023
      6  C6        -3.9010    4.2780   14.2420 C.2   800  MAJ800     -0.0005
      7  C7        -3.5290    5.4720   13.4500 C.2   800  MAJ800     -0.0000
      8  C8        -4.7500    6.1760   13.1140 C.2   800  MAJ800     -0.0000
      9  C9        -5.8590    5.5680   13.9090 C.2   800  MAJ800     -0.0003
     10  S1        -5.8500    0.9300   16.6770 S.O2  800  MAJ800      0.0801
     11  O1        -7.2650    0.9890   16.4730 O.2   800  MAJ800     -0.1542
     12  O2        -5.3300    1.0710   18.0030 O.2   800  MAJ800     -0.1542
     13  N1        -5.3110   -0.4260   16.1300 N.3   800  MAJ800      0.0351
@<TRIPOS>BOND
     1     8     7    1
     2     8     9    2
     3     7     6    2
     4     9     5    1
     5     6     5    1
     6     6     4    1
     7     5     1    2
     8     4     3    2
     9     1     2    1
    10     3     2    1
    11     2    10    1
    12    13    10    1
    13    11    10    2
    14    10    12    2
