@<TRIPOS>MOLECULE
2qoc_ANP_A_1.pdb
 31 34 0 0 0
SMALL
GASTEIGER

@<TRIPOS>ATOM
      1  PG        -5.9490    7.2720   60.4510 P.3   949  ANP949      0.4976
      2  O1G       -5.2870    8.6100   60.3020 O.2   949  ANP949     -0.2323
      3  O2G       -5.4790    6.5100   61.6590 O.3   949  ANP949     -0.1235
      4  O3G       -7.4680    7.3390   60.4020 O.3   949  ANP949     -0.1235
      5  PB        -6.5620    5.2950   58.3490 P.3   949  ANP949      0.4665
      6  O1B       -6.8470    6.7770   58.4500 O.3   949  ANP949     -0.1817
      7  O2B       -5.6230    4.4000   57.5610 O.2   949  ANP949     -0.2351
      8  N3B       -5.3630    6.2390   59.1710 N.4   949  ANP949      0.0296
      9  PA        -8.9670    6.5060   57.3180 P.3   949  ANP949      0.2220
     10  O1A       -9.6010    6.1680   58.6580 O.3   949  ANP949     -0.4370
     11  O2A       -8.9550    7.9060   56.7850 O.2   949  ANP949     -0.5170
     12  O3A       -7.5210    5.7720   57.1380 O.3   949  ANP949     -0.2360
     13  O5'       -9.8210    5.8070   56.1490 O.3   949  ANP949     -0.3111
     14  C5'      -10.3900    4.5270   56.3790 C.3   949  ANP949      0.1813
     15  C4'       -9.9810    3.5690   55.2840 C.3   949  ANP949      0.1821
     16  O4'      -10.4340    4.0990   54.0350 O.3   949  ANP949     -0.3135
     17  C3'       -8.4790    3.3580   55.2060 C.3   949  ANP949      0.2184
     18  O3'       -8.1630    1.9750   55.0320 O.3   949  ANP949     -0.2174
     19  C2'       -8.1100    4.1400   53.9790 C.3   949  ANP949      0.2570
     20  O2'       -6.8970    3.6590   53.3800 O.3   949  ANP949     -0.2130
     21  C1'       -9.3810    4.0270   53.1140 C.3   949  ANP949      0.3186
     22  N9        -9.4170    5.1590   52.1880 N.pl3 949  ANP949     -0.1439
     23  C8        -9.5180    6.4500   52.5250 C.3   949  ANP949      0.3377
     24  N7        -9.4430    7.2360   51.4250 N.2   949  ANP949     -0.2095
     25  C5        -9.2750    6.4090   50.3840 C.2   949  ANP949      0.2526
     26  C6        -9.1100    6.5910   48.9480 C.2   949  ANP949      0.4393
     27  N6        -9.1150    7.8190   48.3990 N.pl3 949  ANP949      0.2180
     28  N1        -8.9780    5.4830   48.1990 N.2   949  ANP949      0.0021
     29  C2        -8.9710    4.2400   48.7450 C.3   949  ANP949      0.5254
     30  N3        -9.1130    3.9900   50.0600 N.2   949  ANP949     -0.0055
     31  C4        -9.2520    5.0380   50.8880 C.2   949  ANP949      0.3518
@<TRIPOS>BOND
     1    28    29    1
     2    28    26    2
     3    27    26    1
     4    29    30    1
     5    26    25    1
     6    30    31    2
     7    25    31    1
     8    25    24    2
     9    31    22    1
    10    24    23    1
    11    22    23    1
    12    22    21    1
    13    21    19    1
    14    21    16    1
    15    20    19    1
    16    19    17    1
    17    16    15    1
    18    18    17    1
    19    17    15    1
    20    15    14    1
    21    13    14    1
    22    13     9    1
    23    11     9    2
    24    12     9    1
    25    12     5    1
    26     9    10    1
    27     7     5    2
    28     5     6    1
    29     5     8    1
    30     6     8    1
    31     8     1    1
    32     2     1    2
    33     4     1    1
    34     1     3    1
