@<TRIPOS>MOLECULE
2qoe_NAG_A_1.pdb
 14 14 0 0 0
SMALL
GASTEIGER

@<TRIPOS>ATOM
      1  C1        47.2980   80.8880   12.3010 C.3   1281  NAG1281     0.1665
      2  C2        47.0650   82.2150   11.5560 C.3   1281  NAG1281     0.1576
      3  C3        45.6080   82.6840   11.6970 C.3   1281  NAG1281     0.2069
      4  C4        44.6730   81.5820   11.2020 C.3   1281  NAG1281     0.2134
      5  C5        44.9360   80.3010   12.0070 C.3   1281  NAG1281     0.1809
      6  C6        43.9870   79.1810   11.5690 C.3   1281  NAG1281     0.2141
      7  C7        49.0350   83.6640   11.2680 C.2   1281  NAG1281     0.2420
      8  C8        49.7270   84.9070   11.7440 C.3   1281  NAG1281     0.0964
      9  N2        47.9930   83.2500   12.0000 N.am  1281  NAG1281    -0.2019
     10  O3        45.3750   83.8820   10.9770 O.3   1281  NAG1281    -0.2184
     11  O4        43.3240   82.0070   11.2930 O.3   1281  NAG1281    -0.2176
     12  O5        46.3130   79.9120   11.9370 O.3   1281  NAG1281    -0.3489
     13  O6        44.5590   78.3440   10.5890 O.3   1281  NAG1281    -0.2176
     14  O7        49.4440   83.0850   10.2610 O.2   1281  NAG1281    -0.2733
@<TRIPOS>BOND
     1    14     7    2
     2    13     6    1
     3    10     3    1
     4     4    11    1
     5     4     3    1
     6     4     5    1
     7     7     8    1
     8     7     9   am
     9     2     3    1
    10     2     9    1
    11     2     1    1
    12     6     5    1
    13    12     5    1
    14    12     1    1
