@<TRIPOS>MOLECULE
2qoe_448_A_1.pdb
 29 31 0 0 0
SMALL
GASTEIGER

@<TRIPOS>ATOM
      1  F9        33.2850   48.5150   36.1680 F     1282  4481282    -0.2017
      2  C6        34.5020   49.0660   36.2650 C.ar  1282  4481282     0.1696
      3  C1        34.6640   50.4110   36.5640 C.ar  1282  4481282     0.0612
      4  C2        35.9420   50.9410   36.6590 C.ar  1282  4481282     0.1386
      5  F10       36.0700   52.2300   36.9630 F     1282  4481282    -0.2044
      6  C5        35.6880   48.2170   36.0360 C.ar  1282  4481282     0.1672
      7  F8        35.4520   46.9300   35.7330 F     1282  4481282    -0.2018
      8  C4        36.9770   48.7530   36.1330 C.ar  1282  4481282     0.0300
      9  C3        37.1480   50.1080   36.4390 C.ar  1282  4481282     0.0091
     10  C11       38.5310   50.7510   36.5500 C.3   1282  4481282     0.0482
     11  C12       39.1910   50.7920   35.1520 C.3   1282  4481282     0.1053
     12  N20       38.3380   51.5500   34.2390 N.3   1282  4481282    -0.1320
     13  C15       40.6270   51.3520   35.1590 C.3   1282  4481282     0.1046
     14  C16       41.5800   50.4780   35.9660 C.2   1282  4481282     0.2275
     15  O22       41.2310   49.3460   36.2980 O.2   1282  4481282    -0.2748
     16  N19       42.7730   50.9710   36.3590 N.am  1282  4481282    -0.2716
     17  C25       43.5390   52.0920   35.7530 C.3   1282  4481282     0.1174
     18  C26       45.0090   51.7200   35.4350 C.3   1282  4481282     0.1409
     19  C29       43.3590   50.3210   37.5590 C.3   1282  4481282     0.1448
     20  C34       42.8110   50.8850   38.8790 C.3   1282  4481282     0.0308
     21  C28       44.8370   50.3670   37.5470 C.2   1282  4481282     0.2089
     22  N27       45.5280   50.9940   36.5920 N.pl3 1282  4481282    -0.1756
     23  N39       46.9050   50.8900   36.8160 N.2   1282  4481282    -0.1069
     24  N41       45.7080   49.8080   38.4420 N.2   1282  4481282    -0.3321
     25  C40       46.9200   50.1390   37.9540 C.1   1282  4481282     0.1762
     26  C41       48.1930   49.7250   38.6650 C.3   1282  4481282     0.4905
     27  F29       48.0260   49.7910   39.9850 F     1282  4481282    -0.1565
     28  F27       49.1080   50.5910   38.2490 F     1282  4481282    -0.1565
     29  F28       48.5680   48.4740   38.3790 F     1282  4481282    -0.1565
@<TRIPOS>BOND
     1    12    11    1
     2    11    13    1
     3    11    10    1
     4    13    14    1
     5    18    17    1
     6    18    22    1
     7     7     6    1
     8    17    16    1
     9    14    15    2
    10    14    16   am
    11     6     8   ar
    12     6     2   ar
    13     8     9   ar
    14     1     2    1
    15     2     3   ar
    16    16    19    1
    17     9    10    1
    18     9     4   ar
    19     3     4   ar
    20    22    23    1
    21    22    21    1
    22     4     5    1
    23    23    25    2
    24    21    19    1
    25    21    24    2
    26    19    20    1
    27    25    24    2
    28    25    26    1
    29    28    26    1
    30    29    26    1
    31    26    27    1
