@<TRIPOS>MOLECULE
2qoh_P3Y_A_1.pdb
 28 31 0 0 0
SMALL
GASTEIGER

@<TRIPOS>ATOM
      1  N1        -4.3300    9.2820   24.2840 N.2     1  P3Y1       -0.1922
      2  C2        -3.6810    8.4920   25.1910 C.2     1  P3Y1        0.1096
      3  C3        -2.6480    7.6050   24.7920 C.2     1  P3Y1        0.0221
      4  C4        -2.3220    7.5860   23.4120 C.2     1  P3Y1        0.0117
      5  C5        -3.0230    8.4280   22.4740 C.2     1  P3Y1        0.0641
      6  C6        -4.0160    9.2540   22.9490 C.1     1  P3Y1        0.0353
      7  C9        -2.9290    8.6200   21.0500 C.2     1  P3Y1        0.0322
      8  C10       -3.9350    9.5940   20.8170 C.2     1  P3Y1        0.1103
      9  N11       -4.6030    9.9910   21.9510 N.2     1  P3Y1       -0.1922
     10  C14       -2.0240    7.9930   20.0120 C.ar    1  P3Y1        0.0362
     11  C15       -1.7860    6.5760   19.9090 C.ar    1  P3Y1        0.1387
     12  C16       -0.9080    6.0890   18.8770 C.ar    1  P3Y1        0.0369
     13  C17       -0.2940    6.9720   17.9750 C.ar    1  P3Y1        0.0031
     14  C18       -0.5290    8.3520   18.0760 C.ar    1  P3Y1        0.0002
     15  C19       -1.3860    8.8520   19.0840 C.ar    1  P3Y1        0.0031
     16  O1        -2.4310    5.7350   20.8330 O.3     1  P3Y1       -0.4714
     17  C24       -1.9340    6.7220   25.7790 C.ar    1  P3Y1        0.0209
     18  C25       -1.7690    5.3190   25.5640 C.ar    1  P3Y1        0.0989
     19  N26       -1.1130    4.5020   26.4570 N.ar    1  P3Y1       -0.2422
     20  C27       -0.5920    5.0430   27.6060 C.ar    1  P3Y1        0.1034
     21  C28       -0.7230    6.4300   27.8850 C.ar    1  P3Y1        0.0727
     22  C29       -1.3990    7.2480   26.9530 C.ar    1  P3Y1        0.0077
     23  C33       -0.1550    7.0020   29.1110 C.2     1  P3Y1        0.2506
     24  O34        1.0560    6.9700   29.2950 O.2     1  P3Y1       -0.2699
     25  N35       -1.0060    7.6070   30.0220 N.am    1  P3Y1       -0.2725
     26  C41       -2.2980    7.0490   30.4830 C.3     1  P3Y1        0.1152
     27  C45       -0.5140    8.8570   30.6420 C.3     1  P3Y1        0.1152
     28  C1        -2.5830    4.3260   20.5700 C.3     1  P3Y1        0.2525
@<TRIPOS>BOND
     1    13    14   ar
     2    13    12   ar
     3    14    15   ar
     4    12    11   ar
     5    15    10   ar
     6    11    10   ar
     7    11    16    1
     8    10     7    1
     9    28    16    1
    10     8     7    2
    11     8     9    1
    12     7     5    1
    13     9     6    2
    14     5     6    1
    15     5     4    2
    16     6     1    2
    17     4     3    1
    18     1     2    1
    19     3     2    2
    20     3    17    1
    21    18    17   ar
    22    18    19   ar
    23    17    22   ar
    24    19    20   ar
    25    22    21   ar
    26    20    21   ar
    27    21    23    1
    28    23    24    2
    29    23    25   am
    30    25    26    1
    31    25    27    1
