@<TRIPOS>MOLECULE
2qoq_ANP_A_1.pdb
 31 33 0 0 0
SMALL
GASTEIGER

@<TRIPOS>ATOM
      1  PG        -9.0080    5.8040   60.3070 P.3   948  ANP948      0.4884
      2  O1G       -8.7670    6.1200   61.7660 O.3   948  ANP948     -0.1240
      3  O2G       -9.4790    4.3910   60.1050 O.3   948  ANP948     -0.1240
      4  O3G       -7.8680    6.1950   59.3940 O.2   948  ANP948     -0.2331
      5  PB       -10.1840    8.3680   59.0940 P.3   948  ANP948      0.4669
      6  O1B      -11.2950    9.2380   59.6200 O.3   948  ANP948     -0.1253
      7  O2B       -8.7700    8.8740   59.2790 O.2   948  ANP948     -0.2351
      8  N3B      -10.3680    6.8100   59.8570 N.3   948  ANP948     -0.0163
      9  PA        -9.4570    7.6690   56.4180 P.3   948  ANP948      0.2220
     10  O1A       -8.2110    7.1220   57.0630 O.3   948  ANP948     -0.4370
     11  O2A       -9.3090    8.7110   55.3350 O.2   948  ANP948     -0.5170
     12  O3A      -10.4910    8.2390   57.5160 O.3   948  ANP948     -0.2360
     13  O5'      -10.2810    6.4250   55.8110 O.3   948  ANP948     -0.3111
     14  C5'      -10.3110    5.1520   56.4530 C.3   948  ANP948      0.1813
     15  C4'       -9.9200    4.0890   55.4480 C.3   948  ANP948      0.1821
     16  O4'      -10.7090    4.2500   54.2630 O.3   948  ANP948     -0.3135
     17  C3'       -8.4680    4.1940   54.9940 C.3   948  ANP948      0.2184
     18  O3'       -7.5560    3.4910   55.8440 O.3   948  ANP948     -0.2174
     19  C2'       -8.5240    3.6150   53.6040 C.3   948  ANP948      0.2570
     20  O2'       -8.3580    2.1920   53.6510 O.3   948  ANP948     -0.2130
     21  C1'       -9.9200    3.9780   53.1110 C.3   948  ANP948      0.3186
     22  N9        -9.8360    5.1800   52.2310 N.pl3 948  ANP948     -0.1439
     23  C8        -9.9500    6.4860   52.5520 C.3   948  ANP948      0.3377
     24  N7        -9.8010    7.2840   51.4560 N.2   948  ANP948     -0.2095
     25  C5        -9.5860    6.4610   50.4200 C.2   948  ANP948      0.2526
     26  C6        -9.3390    6.6240   48.9830 C.2   948  ANP948      0.4393
     27  N6        -9.3050    7.8640   48.4400 N.pl3 948  ANP948      0.2180
     28  N1        -9.1700    5.5000   48.2450 N.2   948  ANP948      0.0021
     29  C2        -9.2120    4.2640   48.7730 C.3   948  ANP948      0.5254
     30  N3        -9.4150    4.0450   50.0890 N.2   948  ANP948     -0.0055
     31  C4        -9.6040    5.0830   50.9290 C.2   948  ANP948      0.3518
@<TRIPOS>BOND
     1    28    29    1
     2    28    26    2
     3    27    26    1
     4    29    30    1
     5    26    25    1
     6    30    31    2
     7    25    31    1
     8    25    24    2
     9    31    22    1
    10    24    23    1
    11    22    23    1
    12    22    21    1
    13    21    19    1
    14    21    16    1
    15    19    20    1
    16    19    17    1
    17    16    15    1
    18    17    15    1
    19    17    18    1
    20    11     9    2
    21    15    14    1
    22    13     9    1
    23    13    14    1
    24     9    10    1
    25     9    12    1
    26    12     5    1
    27     5     7    2
    28     5     6    1
    29     5     8    1
    30     4     1    2
    31     8     1    1
    32     3     1    1
    33     1     2    1
