@<TRIPOS>MOLECULE
2qor_5GP_A_1.pdb
 24 26 0 0 0
SMALL
GASTEIGER

@<TRIPOS>ATOM
      1  P          4.6280    3.6250  182.3970 P.3   197  5GP197      0.5327
      2  O1P        4.0710    4.8620  181.7470 O.3   197  5GP197     -0.1145
      3  O2P        3.5560    2.6460  182.9000 O.3   197  5GP197     -0.1145
      4  O3P        5.7180    2.9690  181.5810 O.2   197  5GP197     -0.2224
      5  O5'        5.3390    4.1790  183.7080 O.3   197  5GP197     -0.2675
      6  C5'        4.5840    4.8460  184.7120 C.3   197  5GP197      0.1859
      7  C4'        5.4760    5.5630  185.6860 C.3   197  5GP197      0.1801
      8  O4'        6.2440    4.6090  186.4530 O.3   197  5GP197     -0.3326
      9  C3'        6.4860    6.5010  185.0200 C.3   197  5GP197      0.2158
     10  O3'        6.6360    7.6680  185.8240 O.3   197  5GP197     -0.2175
     11  C2'        7.7620    5.7150  185.0510 C.3   197  5GP197      0.2310
     12  O2'        8.9330    6.5430  184.9760 O.3   197  5GP197     -0.2158
     13  C1'        7.6040    5.0150  186.4080 C.3   197  5GP197      0.2293
     14  N9         8.5420    3.8890  186.5500 N.pl3 197  5GP197     -0.2354
     15  C8         9.0190    3.1050  185.5800 C.3   197  5GP197      0.2246
     16  N7         9.8900    2.2400  186.1260 N.2   197  5GP197     -0.2322
     17  C5         9.9580    2.5130  187.4460 C.2   197  5GP197      0.2182
     18  C6        10.6680    1.9790  188.5220 C.1   197  5GP197      0.2372
     19  O6        11.4650    1.0330  188.3830 O.2   197  5GP197     -0.2069
     20  N1        10.4870    2.4970  189.7220 N.2   197  5GP197     -0.2485
     21  C2         9.6630    3.5270  189.9480 C.1   197  5GP197      0.2531
     22  N2         9.5340    4.0400  191.1720 N.pl3 197  5GP197     -0.0226
     23  N3         8.9710    4.0820  188.9440 N.2   197  5GP197     -0.3074
     24  C4         9.1170    3.5630  187.6960 C.2   197  5GP197      0.2300
@<TRIPOS>BOND
     1     4     1    2
     2     2     1    1
     3     1     3    1
     4     1     5    1
     5     5     6    1
     6     6     7    1
     7    12    11    1
     8     9    11    1
     9     9     7    1
    10     9    10    1
    11    11    13    1
    12    15    16    1
    13    15    14    1
    14     7     8    1
    15    16    17    2
    16    13     8    1
    17    13    14    1
    18    14    24    1
    19    17    24    1
    20    17    18    1
    21    24    23    2
    22    19    18    2
    23    18    20    2
    24    23    21    2
    25    20    21    2
    26    21    22    1
