@<TRIPOS>MOLECULE
2qp3_AE2_A_1.pdb
 21 24 0 0 0
SMALL
GASTEIGER

@<TRIPOS>ATOM
      1  C1        25.5860   41.9400   72.8760 C.3   286  AE2286      0.0026
      2  C2        26.0850   43.3620   73.4710 C.3   286  AE2286      0.0329
      3  C3        27.5040   42.8150   74.0150 C.3   286  AE2286      0.1520
      4  O3        28.1360   43.1720   75.2920 O.3   286  AE2286     -0.2232
      5  C4        28.5370   43.0010   72.7500 C.3   286  AE2286      0.0329
      6  C5        28.1410   41.5730   72.0370 C.3   286  AE2286      0.0025
      7  C6        28.9690   41.1910   70.6450 C.3   286  AE2286      0.0001
      8  C7        28.5400   39.7400   70.1180 C.3   286  AE2286      0.0000
      9  C8        26.9750   39.7370   69.7150 C.3   286  AE2286      0.0004
     10  C9        26.0850   40.1530   70.9970 C.3   286  AE2286      0.0000
     11  C10       26.4610   41.5860   71.6290 C.3   286  AE2286      0.0002
     12  C11       24.5160   40.1350   70.6050 C.3   286  AE2286      0.0004
     13  C12       24.0660   38.7220   69.9670 C.3   286  AE2286      0.0069
     14  C13       25.0250   38.1980   68.8180 C.3   286  AE2286      0.0515
     15  C14       26.5020   38.3200   69.2260 C.3   286  AE2286      0.0070
     16  C15       27.2540   37.7430   67.9920 C.3   286  AE2286      0.0082
     17  C16       26.4730   36.4100   67.9150 C.3   286  AE2286      0.0645
     18  C17       25.0550   36.7350   68.4470 C.2   286  AE2286      0.1498
     19  O17       24.1790   35.9210   68.5230 O.2   286  AE2286     -0.2961
     20  C18       24.5230   39.0180   67.4920 C.3   286  AE2286      0.0073
     21  C19       26.3670   42.7880   70.4920 C.3   286  AE2286      0.0000
@<TRIPOS>BOND
     1    20    14    1
     2    17    16    1
     3    17    18    1
     4    16    15    1
     5    18    19    2
     6    18    14    1
     7    14    15    1
     8    14    13    1
     9    15     9    1
    10     9     8    1
    11     9    10    1
    12    13    12    1
    13     8     7    1
    14    21    11    1
    15    12    10    1
    16     7     6    1
    17    10    11    1
    18    11     6    1
    19    11     1    1
    20     6     5    1
    21     5     3    1
    22     1     2    1
    23     2     3    1
    24     3     4    1
