@<TRIPOS>MOLECULE
2qp4_AE2_A_1.pdb
 21 24 0 0 0
SMALL
GASTEIGER

@<TRIPOS>ATOM
      1  C1       -67.3800  -43.6780  -25.8570 C.3   286  AE2286      0.0026
      2  C2       -68.3010  -44.9120  -26.3740 C.3   286  AE2286      0.0329
      3  C3       -68.5680  -44.3320  -27.8660 C.3   286  AE2286      0.1520
      4  O3       -69.8240  -44.4420  -28.6510 O.3   286  AE2286     -0.2232
      5  C4       -67.2830  -44.8440  -28.7530 C.3   286  AE2286      0.0329
      6  C5       -66.2680  -43.6320  -28.3150 C.3   286  AE2286      0.0025
      7  C6       -64.7880  -43.6690  -29.0220 C.3   286  AE2286      0.0001
      8  C7       -63.9100  -42.4060  -28.5840 C.3   286  AE2286      0.0000
      9  C8       -63.6290  -42.4620  -27.0070 C.3   286  AE2286      0.0004
     10  C9       -65.0340  -42.4670  -26.2190 C.3   286  AE2286      0.0000
     11  C10      -66.0080  -43.6950  -26.6250 C.3   286  AE2286      0.0002
     12  C11      -64.7590  -42.4950  -24.6290 C.3   286  AE2286      0.0004
     13  C12      -63.7850  -41.2890  -24.1720 C.3   286  AE2286      0.0069
     14  C13      -62.4530  -41.1890  -25.0400 C.3   286  AE2286      0.0515
     15  C14      -62.7740  -41.2370  -26.5330 C.3   286  AE2286      0.0070
     16  C15      -61.3780  -41.0900  -27.2050 C.3   286  AE2286      0.0082
     17  C16      -60.9220  -39.8250  -26.4460 C.3   286  AE2286      0.0645
     18  C17      -61.6230  -39.9130  -25.0630 C.2   286  AE2286      0.1498
     19  O17      -61.4850  -39.0860  -24.2010 O.2   286  AE2286     -0.2961
     20  C18      -61.5140  -42.3790  -24.4280 C.3   286  AE2286      0.0073
     21  C19      -65.2430  -45.1410  -26.4290 C.3   286  AE2286      0.0000
@<TRIPOS>BOND
     1     7     8    1
     2     7     6    1
     3     5     6    1
     4     5     3    1
     5     4     3    1
     6     8     9    1
     7     6    11    1
     8     3     2    1
     9    16    15    1
    10    16    17    1
    11     9    15    1
    12     9    10    1
    13    11    21    1
    14    11    10    1
    15    11     1    1
    16    15    14    1
    17    17    18    1
    18     2     1    1
    19    10    12    1
    20    18    14    1
    21    18    19    2
    22    14    20    1
    23    14    13    1
    24    12    13    1
