@<TRIPOS>MOLECULE
2qp6_MB1_A_1.pdb
 14 14 0 0 0
SMALL
GASTEIGER

@<TRIPOS>ATOM
      1  S1        -5.9390    0.7660   16.7530 S.O2  800  MB1800      0.0944
      2  O1        -7.3710    0.7070   16.7030 O.2   800  MB1800     -0.1503
      3  O2        -5.3000    1.0570   18.0070 O.2   800  MB1800     -0.1503
      4  N1        -5.3660   -0.6030   16.2430 N.3   800  MB1800      0.0392
      5  C1        -4.7460    4.0060   13.6990 C.ar  800  MB1800      0.0250
      6  C2        -4.4700    2.6270   13.4780 C.ar  800  MB1800      0.1443
      7  C3        -4.8400    1.6650   14.4260 C.ar  800  MB1800      0.0449
      8  C4        -5.4920    2.0550   15.6090 C.ar  800  MB1800      0.1372
      9  C5        -5.7820    3.4240   15.8520 C.ar  800  MB1800      0.0764
     10  C6        -5.3990    4.3950   14.8840 C.ar  800  MB1800      0.0145
     11 CL         -6.5810    3.9020   17.2770 Cl    800  MB1800     -0.0808
     12  N2        -3.7880    2.1750   12.2150 N.pl3 800  MB1800      0.0577
     13  O3        -4.1600    2.7420   10.9650 O.2   800  MB1800     -0.1261
     14  O4        -2.8030    1.1630   12.2730 O.2   800  MB1800     -0.1261
@<TRIPOS>BOND
     1    13    12    2
     2    12    14    2
     3    12     6    1
     4     6     5   ar
     5     6     7   ar
     6     5    10   ar
     7     7     8   ar
     8    10     9   ar
     9     8     9   ar
    10     8     1    1
    11     9    11    1
    12     4     1    1
    13     2     1    2
    14     1     3    2
