@<TRIPOS>MOLECULE
2qp8_SC7_A_1.pdb
 40 42 0 0 0
SMALL
GASTEIGER

@<TRIPOS>ATOM
      1  F1        26.7980   11.1020   18.9300 F       1  SC71       -0.2041
      2  F2        22.6980   13.4690   18.4630 F       1  SC71       -0.2041
      3  C1        26.8900   15.5380   24.5010 C.ar    1  SC71        0.0003
      4  C2        27.0410   14.3580   23.7240 C.ar    1  SC71        0.0534
      5  C3        25.8960   13.5540   23.4110 C.ar    1  SC71        0.0091
      6  C4        24.6080   13.9450   23.8700 C.ar    1  SC71        0.0549
      7  C5        24.4570   15.1350   24.6360 C.ar    1  SC71        0.0003
      8  C6        25.5980   15.9260   24.9520 C.ar    1  SC71       -0.0216
      9  C7        28.3720   13.9440   23.2960 C.2     1  SC71        0.2490
     10  N1        28.6340   13.7350   21.9750 N.am    1  SC71       -0.2761
     11  O1        29.2470   13.7730   24.1410 O.2     1  SC71       -0.2699
     12  C8        29.9800   13.2970   21.6310 C.3     1  SC71        0.0937
     13  C9        27.6810   13.9310   20.8860 C.3     1  SC71        0.0937
     14  C10       28.2480   15.0030   19.9460 C.3     1  SC71        0.0215
     15  C11       28.8740   16.2060   20.7110 C.3     1  SC71        0.0018
     16  C12       29.9330   11.8140   21.1640 C.3     1  SC71        0.0215
     17  C13       29.0850   10.8990   22.0660 C.3     1  SC71        0.0018
     18  C14       25.4250   17.1550   25.7530 C.3     1  SC71        0.0310
     19  C15       23.4280   13.1540   23.5430 C.2     1  SC71        0.2648
     20  O2        22.3200   13.6550   23.4000 O.2     1  SC71       -0.2684
     21  N2        23.6590   11.8240   23.4120 N.am    1  SC71       -0.2004
     22  C16       22.5540   10.9140   23.0530 C.3     1  SC71        0.1316
     23  C17       22.0350   10.0930   24.2620 C.3     1  SC71        0.1880
     24  O3        21.0190    9.1660   23.8190 O.3     1  SC71       -0.2198
     25  C18       23.0400    9.9800   21.9220 C.3     1  SC71        0.0508
     26  C19       23.6410   10.7890   20.7880 C.ar    1  SC71       -0.0159
     27  C20       24.9840   10.5600   20.3790 C.ar    1  SC71        0.0256
     28  C21       25.5450   11.3190   19.3110 C.ar    1  SC71        0.1421
     29  C22       24.7680   12.3100   18.6570 C.ar    1  SC71        0.0592
     30  C23       23.4300   12.5370   19.0710 C.ar    1  SC71        0.1421
     31  C24       22.8630   11.7820   20.1300 C.ar    1  SC71        0.0256
     32  C25       21.4040   10.9750   25.3310 C.3     1  SC71        0.1072
     33  C26       20.1920   11.7470   24.7670 C.3     1  SC71        0.0496
     34  C27       19.3930   12.4410   25.8540 C.3     1  SC71        0.1181
     35  C28       19.0170   11.4570   26.9580 C.3     1  SC71        0.0484
     36  C29       20.2560   10.7860   27.5320 C.3     1  SC71        0.0912
     37  N3        20.9960   10.0930   26.4420 N.3     1  SC71       -0.2167
     38  O4        18.2350   12.9880   25.2360 O.3     1  SC71       -0.3562
     39  C30       17.4450   13.6970   26.1740 C.3     1  SC71        0.1421
     40  C31       16.4120   14.5050   25.3830 C.3     1  SC71        0.0346
@<TRIPOS>BOND
     1     2    30    1
     2    29    30   ar
     3    29    28   ar
     4     1    28    1
     5    30    31   ar
     6    28    27   ar
     7    14    15    1
     8    14    13    1
     9    31    26   ar
    10    27    26   ar
    11    26    25    1
    12    13    10    1
    13    16    12    1
    14    16    17    1
    15    12    10    1
    16    25    22    1
    17    10     9   am
    18    22    21    1
    19    22    23    1
    20     9     4    1
    21     9    11    2
    22    20    19    2
    23     5     4   ar
    24     5     6   ar
    25    21    19   am
    26    19     6    1
    27     4     3   ar
    28    24    23    1
    29     6     7   ar
    30    23    32    1
    31     3     8   ar
    32     7     8   ar
    33    33    32    1
    34    33    34    1
    35     8    18    1
    36    38    34    1
    37    38    39    1
    38    32    37    1
    39    40    39    1
    40    34    35    1
    41    37    36    1
    42    35    36    1
