@<TRIPOS>MOLECULE
2qpa_ADP_A_1.pdb
 27 29 0 0 0
SMALL
GASTEIGER

@<TRIPOS>ATOM
      1  PB        -0.6130   39.0190  -17.8260 P.3   800  ADP800      0.5373
      2  O1B       -2.0030   39.1950  -18.2850 O.3   800  ADP800     -0.1143
      3  O2B       -0.5230   39.4260  -16.2830 O.3   800  ADP800     -0.1143
      4  O3B        0.3670   39.9600  -18.6830 O.2   800  ADP800     -0.2221
      5  PA        -0.2790   37.0690  -19.5330 P.3   800  ADP800      0.2231
      6  O1A       -1.6770   37.2420  -19.9990 O.3   800  ADP800     -0.4370
      7  O2A        0.7000   38.0030  -20.4220 O.2   800  ADP800     -0.5169
      8  O3A       -0.1640   37.4710  -17.9750 O.3   800  ADP800     -0.2261
      9  O5'        0.1510   35.5320  -19.7180 O.3   800  ADP800     -0.3111
     10  C5'       -0.0090   35.2030  -21.1030 C.3   800  ADP800      0.1813
     11  C4'        0.3660   33.7530  -21.2850 C.3   800  ADP800      0.1821
     12  O4'       -0.5080   32.9470  -20.4670 O.3   800  ADP800     -0.3135
     13  C3'        0.1680   33.2820  -22.7350 C.3   800  ADP800      0.2184
     14  O3'        1.4040   33.3050  -23.4700 O.3   800  ADP800     -0.2174
     15  C2'       -0.4490   31.8600  -22.5850 C.3   800  ADP800      0.2570
     16  O2'        0.3600   30.8700  -23.2400 O.3   800  ADP800     -0.2130
     17  C1'       -0.5380   31.6300  -21.0490 C.3   800  ADP800      0.3186
     18  N9        -1.7930   30.9570  -20.5880 N.pl3 800  ADP800     -0.1439
     19  C8        -2.2880   31.0410  -19.3030 C.3   800  ADP800      0.3377
     20  N7        -3.3910   30.3620  -19.1850 N.2   800  ADP800     -0.2095
     21  C5        -3.6920   29.7860  -20.3720 C.2   800  ADP800      0.2526
     22  C6        -4.7490   28.9560  -20.8430 C.2   800  ADP800      0.4393
     23  N6        -5.7680   28.5640  -19.9860 N.pl3 800  ADP800      0.2180
     24  N1        -4.7360   28.5530  -22.1400 N.2   800  ADP800      0.0021
     25  C2        -3.7580   28.9230  -22.9860 C.3   800  ADP800      0.5254
     26  N3        -2.7460   29.7070  -22.5870 N.2   800  ADP800     -0.0055
     27  C4        -2.6770   30.1630  -21.3040 C.2   800  ADP800      0.3518
@<TRIPOS>BOND
     1    14    13    1
     2    16    15    1
     3    25    26    1
     4    25    24    1
     5    13    15    1
     6    13    11    1
     7    26    27    2
     8    15    17    1
     9    24    22    2
    10    27    18    1
    11    27    21    1
    12    11    10    1
    13    11    12    1
    14    10     9    1
    15    17    18    1
    16    17    12    1
    17    22    21    1
    18    22    23    1
    19    18    19    1
    20     7     5    2
    21    21    20    2
    22     6     5    1
    23     9     5    1
    24     5     8    1
    25    19    20    1
    26     4     1    2
    27     2     1    1
    28     8     1    1
    29     1     3    1
