@<TRIPOS>MOLECULE
2qpd_HEM_A_1.pdb
 43 50 0 0 0
SMALL
GASTEIGER

@<TRIPOS>ATOM
      1  CHA      -37.9880   18.4990    3.8010 C.2   800  HEM800      0.0000
      2  CHB      -40.3810   14.9090    1.7170 C.2   800  HEM800      0.0000
      3  CHC      -36.1920   12.4930    1.6520 C.2   800  HEM800      0.0000
      4  CHD      -33.6970   16.4800    2.7160 C.2   800  HEM800      0.0000
      5  C1A      -39.0270   17.8160    3.1980 C.ar  800  HEM800      0.0000
      6  C2A      -40.4200   18.2050    2.9490 C.ar  800  HEM800      0.0000
      7  C3A      -41.0920   17.1780    2.3930 C.ar  800  HEM800      0.0000
      8  C4A      -40.1140   16.1320    2.2470 C.ar  800  HEM800      0.0000
      9  CMA      -42.6040   17.0320    1.9730 C.3   800  HEM800      0.0000
     10  CAA      -41.0890   19.5280    3.3000 C.3   800  HEM800      0.0000
     11  CBA      -41.1920   19.6950    4.8000 C.3   800  HEM800      0.0000
     12  CGA      -41.7460   21.0910    4.8960 C.2   800  HEM800      0.0000
     13  O1A      -42.4960   21.3760    5.9210 O.co2 800  HEM800      0.0000
     14  O2A      -41.4190   21.8540    3.8980 O.co2 800  HEM800      0.0000
     15  C1B      -39.4770   13.8990    1.6130 C.2   800  HEM800      0.0000
     16  C2B      -39.8100   12.5340    1.2930 C.2   800  HEM800      0.0000
     17  C3B      -38.6530   11.8790    1.2840 C.2   800  HEM800      0.0000
     18  C4B      -37.5490   12.8010    1.6000 C.2   800  HEM800      0.0000
     19  CMB      -41.2120   11.9350    1.0320 C.3   800  HEM800      0.0000
     20  CAB      -38.5110   10.3580    0.9920 C.2   800  HEM800      0.0000
     21  CBB      -38.2440    9.5410    2.0280 C.2   800  HEM800      0.0000
     22  C1C      -35.1490   13.3680    1.8620 C.ar  800  HEM800      0.0000
     23  C2C      -33.7250   13.0760    1.7900 C.ar  800  HEM800      0.0000
     24  C3C      -33.0210   14.1740    2.0860 C.ar  800  HEM800      0.0000
     25  C4C      -33.9970   15.2180    2.3430 C.ar  800  HEM800      0.0000
     26  CMC      -33.1000   11.7260    1.4310 C.3   800  HEM800      0.0000
     27  CAC      -31.4570   14.3100    2.1280 C.2   800  HEM800      0.0000
     28  CBC      -30.8130   14.5280    0.9400 C.2   800  HEM800      0.0000
     29  C1D      -34.5930   17.3690    3.1790 C.2   800  HEM800      0.0000
     30  C2D      -34.2350   18.6540    3.6880 C.2   800  HEM800      0.0000
     31  C3D      -35.5730   19.3110    4.0310 C.2   800  HEM800      0.0000
     32  C4D      -36.6080   18.3240    3.6850 C.2   800  HEM800      0.0000
     33  CMD      -32.8230   19.2620    3.8560 C.3   800  HEM800      0.0000
     34  CAD      -35.7350   20.7490    4.6220 C.3   800  HEM800      0.0000
     35  CBD      -35.0740   20.9160    6.0040 C.3   800  HEM800      0.0000
     36  CGD      -35.8630   22.0170    6.6740 C.2   800  HEM800      0.0000
     37  O1D      -35.7380   22.2590    7.9630 O.co2 800  HEM800      0.0000
     38  O2D      -36.6450   22.6080    5.8250 O.co2 800  HEM800      0.0000
     39  NA       -38.8980   16.5360    2.7510 N.ar  800  HEM800      0.0000
     40  NB       -38.1180   14.0370    1.7900 N.2   800  HEM800      0.0000
     41  NC       -35.2740   14.7060    2.2170 N.ar  800  HEM800      0.0000
     42  ND       -35.9640   17.1990    3.1920 N.2   800  HEM800      0.0000
     43 FE        -37.1470   15.5060    2.7920 Fe    800  HEM800      0.0000
@<TRIPOS>BOND
     1    28    27    2
     2    20    17    1
     3    20    21    2
     4    19    16    1
     5    17    16    2
     6    17    18    1
     7    16    15    1
     8    26    23    1
     9    18     3    2
    10    18    40    1
    11    15     2    1
    12    15    40    2
    13     3    22    1
    14     2     8    2
    15    40    43    1
    16    23    22   ar
    17    23    24   ar
    18    22    41   ar
    19     9     7    1
    20    24    27    1
    21    24    25   ar
    22    41    25   ar
    23    41    43    1
    24     8     7   ar
    25     8    39   ar
    26    25     4    1
    27     7     6   ar
    28     4    29    2
    29    39    43    1
    30    39     5   ar
    31    43    42    1
    32     6     5   ar
    33     6    10    1
    34    29    42    1
    35    29    30    1
    36    42    32    2
    37     5     1    2
    38    10    11    1
    39    32     1    1
    40    32    31    1
    41    30    33    1
    42    30    31    2
    43    14    12   ar
    44    31    34    1
    45    34    35    1
    46    11    12    1
    47    12    13   ar
    48    38    36   ar
    49    35    36    1
    50    36    37   ar
