@<TRIPOS>MOLECULE
2qpe_HEM_A_1.pdb
 43 50 0 0 0
SMALL
GASTEIGER

@<TRIPOS>ATOM
      1  CHA      -37.8540   18.7540    3.8350 C.2   800  HEM800      0.0000
      2  CHB      -40.0610   14.9330    1.9070 C.2   800  HEM800      0.0000
      3  CHC      -35.8980   12.6320    1.9040 C.2   800  HEM800      0.0000
      4  CHD      -33.4740   16.6690    2.9440 C.2   800  HEM800      0.0000
      5  C1A      -38.8190   17.8930    3.3210 C.ar  800  HEM800      0.0000
      6  C2A      -40.2370   18.2300    3.1800 C.ar  800  HEM800      0.0000
      7  C3A      -40.8690   17.1700    2.6020 C.ar  800  HEM800      0.0000
      8  C4A      -39.8270   16.1590    2.4120 C.ar  800  HEM800      0.0000
      9  CMA      -42.3570   16.9240    2.1860 C.3   800  HEM800      0.0000
     10  CAA      -40.6890   19.6250    3.6040 C.3   800  HEM800      0.0000
     11  CBA      -42.0550   19.9300    4.2160 C.3   800  HEM800      0.0000
     12  CGA      -41.7250   21.2160    4.9640 C.2   800  HEM800      0.0000
     13  O1A      -42.0290   21.3290    6.1980 O.co2 800  HEM800      0.0000
     14  O2A      -41.0750   22.1070    4.3120 O.co2 800  HEM800      0.0000
     15  C1B      -39.1430   13.9290    1.8560 C.2   800  HEM800      0.0000
     16  C2B      -39.4400   12.5260    1.5470 C.2   800  HEM800      0.0000
     17  C3B      -38.2510   11.9120    1.5610 C.2   800  HEM800      0.0000
     18  C4B      -37.2300   12.8940    1.8650 C.2   800  HEM800      0.0000
     19  CMB      -40.8360   11.8760    1.2600 C.3   800  HEM800      0.0000
     20  CAB      -37.9860   10.4130    1.2840 C.2   800  HEM800      0.0000
     21  CBB      -38.8300    9.4650    1.7130 C.2   800  HEM800      0.0000
     22  C1C      -34.8750   13.5280    2.0080 C.ar  800  HEM800      0.0000
     23  C2C      -33.4620   13.2990    1.7140 C.ar  800  HEM800      0.0000
     24  C3C      -32.8380   14.4250    2.0010 C.ar  800  HEM800      0.0000
     25  C4C      -33.7850   15.3960    2.5040 C.ar  800  HEM800      0.0000
     26  CMC      -32.7960   12.0140    1.1880 C.3   800  HEM800      0.0000
     27  CAC      -31.3590   14.6710    1.8970 C.3   800  HEM800      0.0000
     28  CBC      -30.7560   13.8010    2.6910 C.3   800  HEM800      0.0000
     29  C1D      -34.4090   17.5790    3.4040 C.2   800  HEM800      0.0000
     30  C2D      -34.0980   18.8640    4.0400 C.2   800  HEM800      0.0000
     31  C3D      -35.4750   19.5170    4.2880 C.2   800  HEM800      0.0000
     32  C4D      -36.4790   18.5660    3.7970 C.2   800  HEM800      0.0000
     33  CMD      -32.7120   19.4530    4.4010 C.3   800  HEM800      0.0000
     34  CAD      -35.7080   20.8870    4.9420 C.3   800  HEM800      0.0000
     35  CBD      -35.8590   20.8340    6.4520 C.3   800  HEM800      0.0000
     36  CGD      -35.9430   22.2770    6.8300 C.2   800  HEM800      0.0000
     37  O1D      -35.1210   22.7180    7.6700 O.co2 800  HEM800      0.0000
     38  O2D      -36.8410   22.9790    6.2810 O.co2 800  HEM800      0.0000
     39  NA       -38.6110   16.5860    2.8620 N.ar  800  HEM800      0.0000
     40  NB       -37.8020   14.1120    2.0730 N.2   800  HEM800      0.0000
     41  NC       -35.0460   14.8090    2.4820 N.ar  800  HEM800      0.0000
     42  ND       -35.8080   17.4220    3.3140 N.2   800  HEM800      0.0000
     43 FE        -36.7960   15.7590    2.6630 Fe    800  HEM800      0.0000
@<TRIPOS>BOND
     1    26    23    1
     2    19    16    1
     3    20    17    1
     4    20    21    2
     5    16    17    2
     6    16    15    1
     7    17    18    1
     8    23    24   ar
     9    23    22   ar
    10    15     2    1
    11    15    40    2
    12    18     3    2
    13    18    40    1
    14    27    24    1
    15    27    28    1
    16     3    22    1
    17     2     8    2
    18    24    25   ar
    19    22    41   ar
    20    40    43    1
    21     9     7    1
    22     8     7   ar
    23     8    39   ar
    24    41    25   ar
    25    41    43    1
    26    25     4    1
    27     7     6   ar
    28    43    39    1
    29    43    42    1
    30    39     5   ar
    31     4    29    2
    32     6     5   ar
    33     6    10    1
    34    42    29    1
    35    42    32    2
    36     5     1    2
    37    29    30    1
    38    10    11    1
    39    32     1    1
    40    32    31    1
    41    30    31    2
    42    30    33    1
    43    11    12    1
    44    31    34    1
    45    14    12   ar
    46    34    35    1
    47    12    13   ar
    48    38    36   ar
    49    35    36    1
    50    36    37   ar
