@<TRIPOS>MOLECULE
2qpj_I20_A_1.pdb
 38 39 0 0 0
SMALL
GASTEIGER

@<TRIPOS>ATOM
      1  C1        26.7960   50.8820   31.3780 C.3   755  I20755      0.0341
      2  C2        26.2050   50.0660   30.2300 C.3   755  I20755      0.1745
      3  O5        24.2910   48.4160   29.5940 O.2   755  I20755     -0.2852
      4  C7        24.8460   48.5540   32.0420 C.3   755  I20755      0.1005
      5  C8        23.6360   48.2430   32.9010 C.3   755  I20755      0.0923
      6  C9        23.8280   46.9640   33.7170 C.3   755  I20755      0.0360
      7  C10       23.3770   49.3880   33.8340 C.2   755  I20755      0.2422
      8  C11       22.6180   46.6560   34.5830 C.ar  755  I20755     -0.0217
      9  C12       22.6740   46.8380   35.9620 C.ar  755  I20755     -0.0043
     10  C13       21.5670   46.5400   36.7580 C.ar  755  I20755     -0.0003
     11  C14       20.3930   46.0660   36.1890 C.ar  755  I20755     -0.0000
     12  C15       20.3360   45.8880   34.8130 C.ar  755  I20755     -0.0003
     13  C16       21.4450   46.1770   34.0200 C.ar  755  I20755     -0.0043
     14  C27       25.1750   51.0460   25.9240 C.3   755  I20755      0.0380
     15  N29       26.4870   50.1680   24.1380 N.3   755  I20755     -0.1231
     16  C30       26.5920   50.5130   27.8970 C.2   755  I20755      0.2419
     17  C32       26.4240   51.4310   26.7090 C.3   755  I20755      0.0888
     18  C35       24.2860   50.9160   35.4740 C.3   755  I20755      0.1978
     19  NZ        26.6190   56.1920   22.8970 N.1   755  I20755     -0.1942
     20  CE        27.0060   55.0960   22.7310 C.1   755  I20755      0.0926
     21  CD        27.4810   53.8570   22.5450 C.3   755  I20755      0.1672
     22  CG        28.6830   53.5900   21.7400 C.3   755  I20755      0.0373
     23  CB        28.6850   51.9510   21.4740 C.3   755  I20755      0.0244
     24  CA        27.6150   51.3850   22.5400 C.3   755  I20755      0.0945
     25  N         26.9210   52.5720   23.0640 N.am  755  I20755     -0.2673
     26  C         25.8780   52.4860   24.0200 C.2   755  I20755      0.2438
     27  O         25.3870   53.4860   24.5150 O.2   755  I20755     -0.2733
     28  C28       25.4250   51.1200   24.4210 C.3   755  I20755      0.1683
     29  O31       27.1920   49.4560   27.7810 O.2   755  I20755     -0.2733
     30  N3        26.0600   50.9080   29.0510 N.am  755  I20755     -0.1971
     31  P4        24.6650   49.4170   30.6560 P.3   755  I20755      0.2730
     32  O6        23.7260   50.5600   30.9520 O.3   755  I20755     -0.1661
     33  N34       24.4470   49.9240   34.4160 N.am  755  I20755     -0.1956
     34  C37       25.2400   52.0490   35.2530 C.2   755  I20755      0.3842
     35  O39       25.0200   53.1410   35.7630 O.co2 755  I20755     -0.2437
     36  O38       26.2330   51.8760   34.5530 O.co2 755  I20755     -0.2437
     37  C36       24.5360   50.2830   36.8390 C.3   755  I20755      0.0356
     38  O33       22.2340   49.7760   34.0280 O.2   755  I20755     -0.2733
@<TRIPOS>BOND
     1    23    22    1
     2    23    24    1
     3    22    21    1
     4    24    25    1
     5    21    20    1
     6    21    25    1
     7    20    19    3
     8    25    26   am
     9    26    28    1
    10    26    27    2
    11    15    28    1
    12    28    14    1
    13    14    17    1
    14    17    16    1
    15    29    16    2
    16    16    30   am
    17    30     2    1
    18     3    31    2
    19     2    31    1
    20     2     1    1
    21    31    32    1
    22    31     4    1
    23     4     5    1
    24     5     6    1
    25     5     7    1
    26     6     8    1
    27     7    38    2
    28     7    33   am
    29    13     8   ar
    30    13    12   ar
    31    33    18    1
    32    36    34   ar
    33     8     9   ar
    34    12    11   ar
    35    34    18    1
    36    34    35   ar
    37    18    37    1
    38     9    10   ar
    39    11    10   ar
