@<TRIPOS>MOLECULE
2qpk_HEM_A_1.pdb
 43 50 0 0 0
SMALL
GASTEIGER

@<TRIPOS>ATOM
      1  CHA        8.9420    0.0480   29.2130 C.2   605  HEM605      0.0000
      2  CHB        9.0470    4.8620   29.0120 C.2   605  HEM605      0.0000
      3  CHC       11.0530    4.5600   24.6340 C.2   605  HEM605      0.0000
      4  CHD       10.8340   -0.2480   24.7940 C.2   605  HEM605      0.0000
      5  C1A        8.8550    1.3600   29.5410 C.2   605  HEM605      0.0000
      6  C2A        8.2900    1.8270   30.7610 C.2   605  HEM605      0.0000
      7  C3A        8.2910    3.1630   30.7200 C.2   605  HEM605      0.0000
      8  C4A        8.8570    3.5770   29.4470 C.2   605  HEM605      0.0000
      9  CMA        7.8210    4.1090   31.8470 C.3   605  HEM605      0.0000
     10  CAA        7.8150    0.9230   31.9010 C.3   605  HEM605      0.0000
     11  CBA        9.0090    0.5370   32.7680 C.3   605  HEM605      0.0000
     12  CGA        8.5940   -0.4630   33.8400 C.2   605  HEM605      0.0000
     13  O1A        7.7550   -0.1520   34.7360 O.co2 605  HEM605      0.0000
     14  O2A        9.1100   -1.6080   33.8450 O.co2 605  HEM605      0.0000
     15  C1B        9.5900    5.2010   27.8010 C.ar  605  HEM605      0.0000
     16  C2B        9.7640    6.5540   27.2670 C.ar  605  HEM605      0.0000
     17  C3B       10.2960    6.4640   26.0610 C.ar  605  HEM605      0.0000
     18  C4B       10.4890    5.0660   25.7810 C.ar  605  HEM605      0.0000
     19  CMB        9.3980    7.8410   28.0300 C.3   605  HEM605      0.0000
     20  CAB       10.6910    7.6230   25.1340 C.2   605  HEM605      0.0000
     21  CBB       10.9020    8.8460   25.6470 C.2   605  HEM605      0.0000
     22  C1C       11.1810    3.2490   24.2940 C.2   605  HEM605      0.0000
     23  C2C       11.8730    2.7360   23.1310 C.2   605  HEM605      0.0000
     24  C3C       11.7360    1.3940   23.1550 C.2   605  HEM605      0.0000
     25  C4C       11.1050    1.0260   24.3900 C.2   605  HEM605      0.0000
     26  CMC       12.4110    3.6300   21.9600 C.3   605  HEM605      0.0000
     27  CAC       12.2120    0.3530   22.0980 C.2   605  HEM605      0.0000
     28  CBC       12.8610    0.7120   20.9780 C.2   605  HEM605      0.0000
     29  C1D       10.1800   -0.6390   25.9440 C.ar  605  HEM605      0.0000
     30  C2D        9.6780   -1.9720   26.2390 C.ar  605  HEM605      0.0000
     31  C3D        9.0650   -1.8660   27.6020 C.ar  605  HEM605      0.0000
     32  C4D        9.2650   -0.4770   28.0150 C.ar  605  HEM605      0.0000
     33  CMD        9.6920   -3.2480   25.3790 C.3   605  HEM605      0.0000
     34  CAD        8.3690   -3.0000   28.3700 C.3   605  HEM605      0.0000
     35  CBD        6.8820   -2.9450   27.9700 C.3   605  HEM605      0.0000
     36  CGD        6.2230   -4.1330   28.5950 C.2   605  HEM605      0.0000
     37  O1D        6.3210   -5.2640   28.0140 O.co2 605  HEM605      0.0000
     38  O2D        5.6190   -3.9430   29.6770 O.co2 605  HEM605      0.0000
     39  NA         9.1870    2.4290   28.7440 N.2   605  HEM605      0.0000
     40  NB        10.0790    4.3300   26.8700 N.ar  605  HEM605      0.0000
     41  NC        10.7620    2.1750   25.0700 N.2   605  HEM605      0.0000
     42  ND         9.9270    0.2060   27.0260 N.ar  605  HEM605      0.0000
     43 FE         10.1460    2.2680   26.9340 Fe    605  HEM605      0.0000
@<TRIPOS>BOND
     1    28    27    2
     2    26    23    1
     3    27    24    1
     4    23    24    2
     5    23    22    1
     6    24    25    1
     7    22     3    2
     8    22    41    1
     9    25     4    1
    10    25    41    2
    11     3    18    1
    12     4    29    2
    13    41    43    1
    14    20    21    2
    15    20    17    1
    16    33    30    1
    17    18    17   ar
    18    18    40   ar
    19    29    30   ar
    20    29    42   ar
    21    17    16   ar
    22    30    31   ar
    23    40    43    1
    24    40    15   ar
    25    43    42    1
    26    43    39    1
    27    42    32   ar
    28    16    15   ar
    29    16    19    1
    30    31    32   ar
    31    31    34    1
    32    15     2    1
    33    35    34    1
    34    35    36    1
    35    37    36   ar
    36    32     1    2
    37    36    38   ar
    38    39     8    1
    39    39     5    2
    40     2     8    2
    41     1     5    1
    42     8     7    1
    43     5     6    1
    44     7     6    2
    45     7     9    1
    46     6    10    1
    47    10    11    1
    48    11    12    1
    49    12    14   ar
    50    12    13   ar
