@<TRIPOS>MOLECULE
2qpk_SHA_A_1.pdb
 11 11 0 0 0
SMALL
GASTEIGER

@<TRIPOS>ATOM
      1  C1         5.1190    2.5860   29.6830 C.ar  616  SHA616      0.0616
      2  C2         5.2810    1.2460   30.0950 C.ar  616  SHA616      0.0051
      3  C3         4.7140    0.7280   31.2640 C.ar  616  SHA616      0.0003
      4  C4         3.9970    1.6190   32.0420 C.ar  616  SHA616      0.0033
      5  C5         3.7500    2.9100   31.6100 C.ar  616  SHA616      0.0421
      6  C6         4.3120    3.4830   30.4970 C.ar  616  SHA616      0.1975
      7  O6         4.0610    4.7920   30.2430 O.3   616  SHA616     -0.2865
      8  C7         5.7440    3.0650   28.4580 C.2   616  SHA616      0.1132
      9  O7         5.5700    4.1590   28.1240 O.2   616  SHA616     -0.5359
     10  N8         6.5130    2.2000   27.7660 N.am  616  SHA616     -0.1983
     11  O9         7.2580    2.4270   26.5580 O.3   616  SHA616     -0.4024
@<TRIPOS>BOND
     1    11    10    1
     2    10     8   am
     3     9     8    2
     4     8     1    1
     5     1     2   ar
     6     1     6   ar
     7     2     3   ar
     8     7     6    1
     9     6     5   ar
    10     3     4   ar
    11     5     4   ar
