@<TRIPOS>MOLECULE
2qpl_BTY_A_1.pdb
 12 13 0 0 0
SMALL
GASTEIGER

@<TRIPOS>ATOM
      1  C1        26.0610   72.9230   43.7880 C.cat 292  BTY292      0.3164
      2  C3        25.8220   71.7680   41.7780 C.1   292  BTY292      0.3588
      3  C5        26.3870   70.5200   43.6310 C.2   292  BTY292      0.2072
      4  C8        26.8480   70.1200   45.6190 C.2   292  BTY292      0.0637
      5  O12       25.5520   71.8620   40.4590 O.2   292  BTY292     -0.1751
      6  N2        25.7890   72.9050   42.4850 N.2   292  BTY292     -0.2720
      7  N4        26.1260   70.5750   42.3220 N.2   292  BTY292     -0.2952
      8  C9        26.7030   69.5280   44.4390 C.3   292  BTY292      0.1208
      9  C10       27.2220   69.4060   46.9040 C.3   292  BTY292      0.0494
     10  N7        26.6430   71.4330   45.5600 N.2   292  BTY292     -0.1770
     11  N6        26.3660   71.7110   44.3990 N.pl3 292  BTY292     -0.1216
     12  N11       26.0070   74.0550   44.4680 N.pl3 292  BTY292     -0.0755
@<TRIPOS>BOND
     1     5     2    2
     2     2     7    2
     3     2     6    2
     4     7     3    2
     5     6     1    2
     6     3    11    1
     7     3     8    1
     8     1    11    1
     9     1    12    1
    10    11    10    1
    11     8     4    1
    12    10     4    2
    13     4     9    1
