@<TRIPOS>MOLECULE
2qpm_246_A_1.pdb
 18 19 0 0 0
SMALL
GASTEIGER

@<TRIPOS>ATOM
      1 CL5        34.8720    2.4490    0.8730 Cl    1536  2461536    -0.0613
      2  C1        36.9680    6.6100    3.4140 C.2   1536  2461536     0.3438
      3  O1        36.0120    6.5230    2.6550 O.2   1536  2461536    -0.2488
      4  N2        37.2840    7.7720    3.9840 N.am  1536  2461536    -0.1821
      5  C3        37.4530    4.3320    3.2700 C.ar  1536  2461536     0.0789
      6  N3        37.7310    5.5880    3.7250 N.am  1536  2461536    -0.1608
      7  C4        36.4350    4.0890    2.3610 C.ar  1536  2461536     0.0474
      8  C5        36.1390    2.7790    2.0030 C.ar  1536  2461536     0.1397
      9  N6        36.8380    1.7610    2.5280 N.ar  1536  2461536    -0.2323
     10  C7        37.8260    1.9630    3.3820 C.ar  1536  2461536     0.1012
     11  C8        38.1660    3.2480    3.7780 C.ar  1536  2461536     0.0374
     12  C9        36.5050    8.9820    3.6870 C.3   1536  2461536     0.1432
     13  C10       37.3750   10.2320    3.8240 C.ar  1536  2461536    -0.0005
     14  C11       37.1170   11.3410    3.0270 C.ar  1536  2461536    -0.0026
     15  C12       37.8880   12.4900    3.1600 C.ar  1536  2461536    -0.0003
     16  C13       38.9190   12.5290    4.0930 C.ar  1536  2461536    -0.0000
     17  C14       39.1780   11.4190    4.8890 C.ar  1536  2461536    -0.0003
     18  C15       38.4070   10.2700    4.7550 C.ar  1536  2461536    -0.0026
@<TRIPOS>BOND
     1     1     8    1
     2     8     7   ar
     3     8     9   ar
     4     7     5   ar
     5     9    10   ar
     6     3     2    2
     7    14    15   ar
     8    14    13   ar
     9    15    16   ar
    10     5     6    1
    11     5    11   ar
    12    10    11   ar
    13     2     6   am
    14     2     4   am
    15    12    13    1
    16    12     4    1
    17    13    18   ar
    18    16    17   ar
    19    18    17   ar
