@<TRIPOS>MOLECULE
2qpp_HEM_A_1.pdb
 43 50 0 0 0
SMALL
GASTEIGER

@<TRIPOS>ATOM
      1  CHA       20.6020   27.5990   15.6020 C.2   300  HEM300      0.0000
      2  CHB       23.8220   31.1560   16.0430 C.2   300  HEM300      0.0000
      3  CHC       27.3280   28.3420   14.2140 C.2   300  HEM300      0.0000
      4  CHD       24.1740   24.6290   14.0460 C.2   300  HEM300      0.0000
      5  C1A       21.1730   28.8000   15.9570 C.2   300  HEM300      0.0000
      6  C2A       20.5500   29.8830   16.7070 C.2   300  HEM300      0.0000
      7  C3A       21.4550   30.8610   16.8240 C.2   300  HEM300      0.0000
      8  C4A       22.6630   30.4300   16.1500 C.2   300  HEM300      0.0000
      9  CMA       21.2580   32.2180   17.5500 C.3   300  HEM300      0.0000
     10  CAA       19.1180   29.9210   17.3000 C.3   300  HEM300      0.0000
     11  CBA       18.0330   29.8990   16.2220 C.3   300  HEM300      0.0000
     12  CGA       16.6950   29.4910   16.8140 C.2   300  HEM300      0.0000
     13  O1A       15.6440   29.9920   16.3220 O.co2 300  HEM300      0.0000
     14  O2A       16.6750   28.6580   17.7720 O.co2 300  HEM300      0.0000
     15  C1B       25.0480   30.6950   15.6280 C.ar  300  HEM300      0.0000
     16  C2B       26.2830   31.4400   15.7160 C.ar  300  HEM300      0.0000
     17  C3B       27.2620   30.6720   15.2110 C.ar  300  HEM300      0.0000
     18  C4B       26.6750   29.4120   14.7890 C.ar  300  HEM300      0.0000
     19  CMB       26.4000   32.8720   16.3000 C.3   300  HEM300      0.0000
     20  CAB       28.7560   31.0470   15.1000 C.2   300  HEM300      0.0000
     21  CBB       29.2070   32.1770   15.6610 C.2   300  HEM300      0.0000
     22  C1C       26.7870   27.0810   14.0250 C.2   300  HEM300      0.0000
     23  C2C       27.4920   25.9020   13.5540 C.2   300  HEM300      0.0000
     24  C3C       26.6200   24.8830   13.5090 C.2   300  HEM300      0.0000
     25  C4C       25.3300   25.3740   13.9520 C.2   300  HEM300      0.0000
     26  CMC       28.9880   25.8550   13.1780 C.3   300  HEM300      0.0000
     27  CAC       26.9070   23.4270   13.0820 C.2   300  HEM300      0.0000
     28  CBC       27.2620   23.1300   11.8310 C.2   300  HEM300      0.0000
     29  C1D       22.9300   25.0570   14.4560 C.ar  300  HEM300      0.0000
     30  C2D       21.7510   24.2280   14.5780 C.ar  300  HEM300      0.0000
     31  C3D       20.6490   25.1650   15.0630 C.ar  300  HEM300      0.0000
     32  C4D       21.2600   26.4610   15.1850 C.ar  300  HEM300      0.0000
     33  CMD       21.6030   22.7240   14.2860 C.3   300  HEM300      0.0000
     34  CAD       19.1830   24.8050   15.3530 C.3   300  HEM300      0.0000
     35  CBD       18.9350   24.8070   16.8520 C.3   300  HEM300      0.0000
     36  CGD       17.5040   24.4080   17.0290 C.2   300  HEM300      0.0000
     37  O1D       16.6150   25.2790   16.8370 O.co2 300  HEM300      0.0000
     38  O2D       17.2600   23.2160   17.3410 O.co2 300  HEM300      0.0000
     39  NA        22.4600   29.1690   15.6330 N.2   300  HEM300      0.0000
     40  NB        25.3190   29.4620   15.0620 N.ar  300  HEM300      0.0000
     41  NC        25.4680   26.7190   14.2600 N.2   300  HEM300      0.0000
     42  ND        22.5980   26.3560   14.8250 N.ar  300  HEM300      0.0000
     43 FE         23.9870   27.8510   15.0890 Fe    300  HEM300      0.0000
@<TRIPOS>BOND
     1    28    27    2
     2    27    24    1
     3    26    23    1
     4    24    23    2
     5    24    25    1
     6    23    22    1
     7    25     4    1
     8    25    41    2
     9    22     3    2
    10    22    41    1
    11     4    29    2
    12     3    18    1
    13    41    43    1
    14    33    30    1
    15    29    30   ar
    16    29    42   ar
    17    30    31   ar
    18    18    40   ar
    19    18    17   ar
    20    42    43    1
    21    42    32   ar
    22    40    43    1
    23    40    15   ar
    24    31    32   ar
    25    31    34    1
    26    43    39    1
    27    20    17    1
    28    20    21    2
    29    32     1    2
    30    17    16   ar
    31    34    35    1
    32     1     5    1
    33    15    16   ar
    34    15     2    1
    35    39     5    2
    36    39     8    1
    37    16    19    1
    38     5     6    1
    39     2     8    2
    40     8     7    1
    41    11    12    1
    42    11    10    1
    43    13    12   ar
    44     6     7    2
    45     6    10    1
    46    12    14   ar
    47     7     9    1
    48    37    36   ar
    49    35    36    1
    50    36    38   ar
