@<TRIPOS>MOLECULE
2qpq_CIT_A_1.pdb
 13 12 0 0 0
SMALL
GASTEIGER

@<TRIPOS>ATOM
      1  C1        17.7600   -2.0790   63.6750 C.2   302  CIT302      0.3680
      2  O1        17.1360   -2.7910   64.4770 O.co2 302  CIT302     -0.2455
      3  O2        19.0030   -2.2360   63.5230 O.co2 302  CIT302     -0.2455
      4  C2        17.0030   -1.0520   62.8600 C.3   302  CIT302      0.1560
      5  C3        16.4370   -1.7890   61.6530 C.3   302  CIT302      0.2402
      6  O7        15.5850   -2.8390   62.1850 O.3   302  CIT302     -0.2129
      7  C4        17.5140   -2.4930   60.7930 C.3   302  CIT302      0.1560
      8  C5        16.9450   -3.0100   59.4810 C.2   302  CIT302      0.3680
      9  O3        17.7080   -3.4240   58.5750 O.co2 302  CIT302     -0.2455
     10  O4        15.7030   -3.0450   59.2730 O.co2 302  CIT302     -0.2455
     11  C6        15.6000   -0.7730   60.8610 C.2   302  CIT302      0.3927
     12  O5        16.0900    0.1050   60.1210 O.co2 302  CIT302     -0.2429
     13  O6        14.3760   -0.8310   60.9510 O.co2 302  CIT302     -0.2429
@<TRIPOS>BOND
     1     9     8   ar
     2    10     8   ar
     3     8     7    1
     4    12    11   ar
     5     7     5    1
     6    11    13   ar
     7    11     5    1
     8     5     6    1
     9     5     4    1
    10     4     1    1
    11     3     1   ar
    12     1     2   ar
