@<TRIPOS>MOLECULE
2qpt_ANP_A_1.pdb
 31 33 0 0 0
SMALL
GASTEIGER

@<TRIPOS>ATOM
      1  PG        11.1900  -52.1500   -1.9750 P.3   600  ANP600      0.4884
      2  O1G       12.6300  -52.3880   -1.5840 O.3   600  ANP600     -0.1240
      3  O2G       10.2300  -52.0520   -0.8130 O.3   600  ANP600     -0.1240
      4  O3G       10.9980  -51.0680   -3.0110 O.2   600  ANP600     -0.2331
      5  PB        11.8690  -54.4170   -3.8040 P.3   600  ANP600      0.4669
      6  O1B       12.0440  -53.6370   -5.0830 O.2   600  ANP600     -0.2351
      7  O2B       13.0900  -54.7030   -2.9630 O.3   600  ANP600     -0.1253
      8  N3B       10.7060  -53.6080   -2.7910 N.3   600  ANP600     -0.0163
      9  PA        11.4380  -57.0880   -3.2350 P.3   600  ANP600      0.2220
     10  O1A       12.5920  -57.8990   -3.7660 O.2   600  ANP600     -0.5170
     11  O2A       11.5000  -56.5730   -1.8230 O.3   600  ANP600     -0.4370
     12  O3A       11.2040  -55.8280   -4.1970 O.3   600  ANP600     -0.2360
     13  O5'       10.0920  -57.9400   -3.4110 O.3   600  ANP600     -0.3111
     14  C5'        9.0920  -57.6330   -4.3750 C.3   600  ANP600      0.1813
     15  C4'        7.9610  -58.6320   -4.1620 C.3   600  ANP600      0.1821
     16  O4'        7.7540  -59.3980   -5.3480 O.3   600  ANP600     -0.3135
     17  C3'        8.3250  -59.6390   -3.0860 C.3   600  ANP600      0.2184
     18  O3'        7.1360  -60.0880   -2.4310 O.3   600  ANP600     -0.2174
     19  C2'        8.9260  -60.8020   -3.8370 C.3   600  ANP600      0.2570
     20  O2'        8.6200  -62.0280   -3.1730 O.3   600  ANP600     -0.2130
     21  C1'        8.2510  -60.7300   -5.1920 C.3   600  ANP600      0.3186
     22  N9         9.2100  -60.9660   -6.2880 N.pl3 600  ANP600     -0.1439
     23  C8        10.5070  -60.6110   -6.3000 C.3   600  ANP600      0.3377
     24  N7        11.0880  -60.9710   -7.4730 N.2   600  ANP600     -0.2095
     25  C5        10.1460  -61.5650   -8.2280 C.2   600  ANP600      0.2526
     26  C6        10.0870  -62.1730   -9.5710 C.2   600  ANP600      0.4393
     27  N6        11.1890  -62.2180  -10.3570 N.pl3 600  ANP600      0.2180
     28  N1         8.9060  -62.6830   -9.9790 N.2   600  ANP600      0.0021
     29  C2         7.8110  -62.6330   -9.2030 C.3   600  ANP600      0.5254
     30  N3         7.7950  -62.0930   -7.9750 N.2   600  ANP600     -0.0055
     31  C4         8.9110  -61.5540   -7.4440 C.2   600  ANP600      0.3518
@<TRIPOS>BOND
     1    27    26    1
     2    28    26    2
     3    28    29    1
     4    26    25    1
     5    29    30    1
     6    25    24    2
     7    25    31    1
     8    30    31    2
     9    24    23    1
    10    31    22    1
    11    23    22    1
    12    22    21    1
    13    16    21    1
    14    16    15    1
    15    21    19    1
    16     6     5    2
    17    14    15    1
    18    14    13    1
    19    12     5    1
    20    12     9    1
    21    15    17    1
    22    19    20    1
    23    19    17    1
    24     5     7    1
    25     5     8    1
    26    10     9    2
    27    13     9    1
    28     9    11    1
    29    17    18    1
    30     4     1    2
    31     8     1    1
    32     1     2    1
    33     1     3    1
