@<TRIPOS>MOLECULE
2qpu_QPS_B_1.pdb
 44 47 0 0 0
SMALL
GASTEIGER

@<TRIPOS>ATOM
      1  C1A      200.8060   -1.5360   51.1050 C.3   3000  QPS3000     0.1273
      2  C2A      199.5500   -2.3170   50.6380 C.3   3000  QPS3000     0.2049
      3  C3A      199.9580   -3.2450   49.4780 C.3   3000  QPS3000     0.2179
      4  C4A      200.0190   -2.4000   48.2020 C.3   3000  QPS3000     0.2053
      5  C5A      200.9980   -1.2280   48.4400 C.2   3000  QPS3000     0.0180
      6  C6A      201.5840   -0.4730   47.2600 C.3   3000  QPS3000     0.2066
      7  C7A      201.3790   -0.7900   49.8710 C.2   3000  QPS3000    -0.0100
      8  O2A      199.0130   -3.0500   51.7280 O.3   3000  QPS3000    -0.2184
      9  O3A      199.0240   -4.3120   49.2900 O.3   3000  QPS3000    -0.2172
     10  O4A      200.4250   -3.2430   47.1190 O.3   3000  QPS3000    -0.2157
     11  O6A      200.6690    0.5280   46.8250 O.3   3000  QPS3000    -0.2155
     12  C1B      204.4970   -2.0280   54.9800 C.3   3000  QPS3000     0.2694
     13  C2B      202.9910   -1.9100   55.2490 C.3   3000  QPS3000     0.2394
     14  C3B      202.2080   -2.5660   54.0930 C.3   3000  QPS3000     0.2054
     15  C4B      202.5650   -1.8440   52.7810 C.3   3000  QPS3000     0.1333
     16  C5B      204.1010   -1.9740   52.5680 C.3   3000  QPS3000     0.1364
     17  C6B      204.5440   -1.2510   51.3050 C.3   3000  QPS3000     0.0337
     18  N4B      201.8170   -2.4650   51.6570 N.3   3000  QPS3000    -0.2087
     19  O2B      202.6950   -2.5460   56.4870 O.3   3000  QPS3000    -0.2149
     20  O3B      200.8110   -2.4530   54.3410 O.3   3000  QPS3000    -0.2186
     21  O5B      204.8010   -1.3970   53.7130 O.3   3000  QPS3000    -0.3295
     22  C1C      208.1940   -5.9140   55.7920 C.3   3000  QPS3000     0.2695
     23  C2C      207.1970   -5.5850   56.9330 C.3   3000  QPS3000     0.2404
     24  C3C      205.8630   -5.1030   56.3440 C.3   3000  QPS3000     0.2167
     25  C4C      206.1190   -3.8560   55.5030 C.3   3000  QPS3000     0.1804
     26  C5C      207.1340   -4.2270   54.3600 C.3   3000  QPS3000     0.1803
     27  C6C      207.5280   -3.0580   53.4540 C.3   3000  QPS3000     0.2141
     28  O2C      206.9990   -6.7520   57.7350 O.3   3000  QPS3000    -0.2149
     29  O3C      204.9620   -4.7880   57.3980 O.3   3000  QPS3000    -0.2175
     30  O4C      204.8460   -3.4030   54.9400 O.3   3000  QPS3000    -0.3257
     31  O5C      208.3820   -4.7520   54.9340 O.3   3000  QPS3000    -0.3257
     32  O6C      208.1740   -2.0280   54.1960 O.3   3000  QPS3000    -0.2176
     33  C1D      209.3330  -10.0930   52.6020 C.3   3000  QPS3000     0.3023
     34  C2D      210.2090   -9.5970   53.7640 C.3   3000  QPS3000     0.2433
     35  C3D      209.3040   -8.9010   54.7960 C.3   3000  QPS3000     0.2168
     36  C4D      208.5890   -7.7140   54.1170 C.3   3000  QPS3000     0.1804
     37  C5D      207.7600   -8.2470   52.9260 C.3   3000  QPS3000     0.1804
     38  C6D      207.1010   -7.1010   52.1560 C.3   3000  QPS3000     0.2141
     39  O1D      210.1270  -10.7170   51.6440 O.3   3000  QPS3000    -0.1869
     40  O2D      210.8750  -10.7060   54.3630 O.3   3000  QPS3000    -0.2148
     41  O3D      210.0870   -8.4280   55.8890 O.3   3000  QPS3000    -0.2175
     42  O4D      207.6890   -7.0290   55.0530 O.3   3000  QPS3000    -0.3257
     43  O5D      208.6330   -8.9680   51.9860 O.3   3000  QPS3000    -0.3237
     44  O6D      206.3320   -7.5640   51.0620 O.3   3000  QPS3000    -0.2176
@<TRIPOS>BOND
     1    11     6    1
     2    10     4    1
     3     6     5    1
     4     4     5    1
     5     4     3    1
     6     5     7    2
     7     9     3    1
     8     3     2    1
     9     7     1    1
    10     2     1    1
    11     2     8    1
    12    44    38    1
    13     1    18    1
    14    17    16    1
    15    39    33    1
    16    18    15    1
    17    43    33    1
    18    43    37    1
    19    38    37    1
    20    16    15    1
    21    16    21    1
    22    33    34    1
    23    15    14    1
    24    37    36    1
    25    27    32    1
    26    27    26    1
    27    21    12    1
    28    34    40    1
    29    34    35    1
    30    14    20    1
    31    14    13    1
    32    36    35    1
    33    36    42    1
    34    26    31    1
    35    26    25    1
    36    35    41    1
    37    31    22    1
    38    30    12    1
    39    30    25    1
    40    12    13    1
    41    42    22    1
    42    13    19    1
    43    25    24    1
    44    22    23    1
    45    24    23    1
    46    24    29    1
    47    23    28    1
