@<TRIPOS>MOLECULE
2qpu_BGC_C_1.pdb
 12 12 0 0 0
SMALL
GASTEIGER

@<TRIPOS>ATOM
      1  C2       216.3670   58.5690   52.5070 C.3   4000  BGC4000     0.2434
      2  C3       216.0010   60.0440   52.3270 C.3   4000  BGC4000     0.2199
      3  C4       215.1300   60.5090   53.4950 C.3   4000  BGC4000     0.2144
      4  C5       215.8340   60.2100   54.8280 C.3   4000  BGC4000     0.1836
      5  C6       214.9570   60.5260   56.0240 C.3   4000  BGC4000     0.2142
      6  C1       217.0530   58.3870   53.8660 C.3   4000  BGC4000     0.3024
      7  O1       217.3610   57.0510   54.0740 O.3   4000  BGC4000    -0.1869
      8  O2       217.2370   58.1600   51.4650 O.3   4000  BGC4000    -0.2148
      9  O3       215.3050   60.2280   51.1040 O.3   4000  BGC4000    -0.2174
     10  O4       214.8970   61.9050   53.3810 O.3   4000  BGC4000    -0.2176
     11  O5       216.1750   58.8090   54.9160 O.3   4000  BGC4000    -0.3236
     12  O6       215.5590   60.0760   57.2290 O.3   4000  BGC4000    -0.2176
@<TRIPOS>BOND
     1     9     2    1
     2     8     1    1
     3     2     1    1
     4     2     3    1
     5     1     6    1
     6    10     3    1
     7     3     4    1
     8     6     7    1
     9     6    11    1
    10     4    11    1
    11     4     5    1
    12     5    12    1
