@<TRIPOS>MOLECULE
2qpu_QPU_A_1.pdb
 32 34 0 0 0
SMALL
GASTEIGER

@<TRIPOS>ATOM
      1  C1A      165.2180   50.6870   14.9210 C.3   3000  QPU3000     0.1361
      2  C2A      163.7320   50.2960   14.7110 C.3   3000  QPU3000     0.2030
      3  C3A      162.8630   51.5520   14.8410 C.3   3000  QPU3000     0.2137
      4  C4A      162.6800   51.8270   16.3400 C.3   3000  QPU3000     0.1872
      5  C5A      164.0770   51.9780   16.9810 C.3   3000  QPU3000     0.0650
      6  C6A      164.2210   52.6830   18.3220 C.3   3000  QPU3000     0.0054
      7  C7A      165.3380   51.4040   16.2850 C.3   3000  QPU3000     0.1729
      8  O2A      163.5750   49.6760   13.4460 O.3   3000  QPU3000    -0.2187
      9  O3A      161.5850   51.3740   14.2350 O.3   3000  QPU3000    -0.2176
     10  O4A      161.8850   53.0020   16.4990 O.3   3000  QPU3000    -0.2202
     11  O6A      166.0420   50.5590   17.1940 O.3   3000  QPU3000    -0.2215
     12  C1B      168.6980   50.7780   10.8650 C.3   3000  QPU3000     0.2694
     13  C2B      167.2730   50.2200   10.6620 C.3   3000  QPU3000     0.2394
     14  C3B      166.2690   50.9990   11.5220 C.3   3000  QPU3000     0.2054
     15  C4B      166.6840   50.8540   12.9970 C.3   3000  QPU3000     0.1330
     16  C5B      168.1290   51.4330   13.1540 C.3   3000  QPU3000     0.1364
     17  C6B      168.6350   51.3040   14.5860 C.3   3000  QPU3000     0.0337
     18  N4B      165.7070   51.5780   13.8460 N.3   3000  QPU3000    -0.2105
     19  O2B      166.9340   50.2990    9.2860 O.3   3000  QPU3000    -0.2149
     20  O3B      164.9610   50.4730   11.3260 O.3   3000  QPU3000    -0.2186
     21  O5B      169.0390   50.7100   12.2690 O.3   3000  QPU3000    -0.3295
     22  C1C      170.3570   54.2040    7.0280 C.3   3000  QPU3000     0.1777
     23  C2C      169.0450   53.4090    6.8610 C.3   3000  QPU3000     0.2140
     24  C3C      168.4010   53.1750    8.2380 C.3   3000  QPU3000     0.2141
     25  C4C      169.3780   52.3820    9.1000 C.3   3000  QPU3000     0.1802
     26  C5C      170.6920   53.2160    9.2490 C.3   3000  QPU3000     0.1778
     27  C6C      171.7760   52.5180   10.0680 C.3   3000  QPU3000     0.2140
     28  O2C      168.1610   54.1360    6.0080 O.3   3000  QPU3000    -0.2176
     29  O3C      167.2040   52.4420    8.0850 O.3   3000  QPU3000    -0.2176
     30  O4C      168.7760   52.1310   10.4050 O.3   3000  QPU3000    -0.3257
     31  O5C      171.2600   53.5030    7.9240 O.3   3000  QPU3000    -0.3482
     32  O6C      172.2350   53.3370   11.1280 O.3   3000  QPU3000    -0.2176
@<TRIPOS>BOND
     1    28    23    1
     2    23    22    1
     3    23    24    1
     4    22    31    1
     5    31    26    1
     6    29    24    1
     7    24    25    1
     8    25    26    1
     9    25    30    1
    10    26    27    1
    11    19    13    1
    12    27    32    1
    13    30    12    1
    14    13    12    1
    15    13    14    1
    16    12    21    1
    17    20    14    1
    18    14    15    1
    19    21    16    1
    20    15    16    1
    21    15    18    1
    22    16    17    1
    23     8     2    1
    24    18     1    1
    25     9     3    1
    26     2     3    1
    27     2     1    1
    28     3     4    1
    29     1     7    1
    30     7     5    1
    31     7    11    1
    32     4    10    1
    33     4     5    1
    34     5     6    1
