@<TRIPOS>MOLECULE
2qpy_DHT_A_1.pdb
 21 24 0 0 0
SMALL
GASTEIGER

@<TRIPOS>ATOM
      1  C1        26.5790    5.2040    4.7540 C.3   931  DHT931      0.0078
      2  C2        25.8410    6.4740    5.2510 C.3   931  DHT931      0.0645
      3  C3        24.3790    6.3210    4.7660 C.2   931  DHT931      0.1506
      4  O3        23.8760    7.2830    4.1350 O.2   931  DHT931     -0.2961
      5  C4        23.6430    5.0540    5.0510 C.3   931  DHT931      0.0645
      6  C5        24.4420    3.8110    4.5180 C.3   931  DHT931      0.0073
      7  C6        23.7370    2.4450    4.8220 C.3   931  DHT931      0.0004
      8  C7        24.5710    1.2740    4.2370 C.3   931  DHT931      0.0000
      9  C8        26.0280    1.2270    4.7940 C.3   931  DHT931      0.0001
     10  C9        26.7310    2.5970    4.5150 C.3   931  DHT931      0.0000
     11  C10       25.9380    3.8350    5.1240 C.3   931  DHT931      0.0008
     12  C11       28.2040    2.5100    5.0490 C.3   931  DHT931      0.0001
     13  C12       29.0520    1.3570    4.5460 C.3   931  DHT931      0.0024
     14  C13       28.3440   -0.0210    4.7210 C.3   931  DHT931      0.0282
     15  C14       26.8670    0.0820    4.1570 C.3   931  DHT931      0.0024
     16  C15       26.3590   -1.3550    4.3930 C.3   931  DHT931      0.0027
     17  C16       27.5850   -2.2170    3.9650 C.3   931  DHT931      0.0329
     18  C17       28.7610   -1.2050    3.8750 C.3   931  DHT931      0.1519
     19  O17       29.9720   -1.8590    4.3280 O.3   931  DHT931     -0.2232
     20  C18       28.3970   -0.3890    6.2690 C.3   931  DHT931      0.0025
     21  C19       25.8750    3.6730    6.6900 C.3   931  DHT931      0.0000
@<TRIPOS>BOND
     1    18    17    1
     2    18    19    1
     3    18    14    1
     4    17    16    1
     5     4     3    2
     6    15    16    1
     7    15    14    1
     8    15     9    1
     9     8     9    1
    10     8     7    1
    11    10     9    1
    12    10    12    1
    13    10    11    1
    14     6     7    1
    15     6     5    1
    16     6    11    1
    17    13    14    1
    18    13    12    1
    19    14    20    1
    20     1    11    1
    21     1     2    1
    22     3     5    1
    23     3     2    1
    24    11    21    1
