@<TRIPOS>MOLECULE
2qpy_4HY_A_1.pdb
 21 22 0 0 0
SMALL
GASTEIGER

@<TRIPOS>ATOM
      1  C1        14.0740   19.7010   28.1940 C.ar    1  4HY1       -0.0099
      2  C2        17.7180   16.5290   30.2850 C.ar    1  4HY1        0.1460
      3  C3        14.2590   19.5260   29.6270 C.ar    1  4HY1        0.0051
      4  C4        18.5960   17.5110   29.8610 C.ar    1  4HY1        0.0465
      5  C5        15.0550   18.4680   30.0970 C.ar    1  4HY1        0.0647
      6  C6        19.8380   17.6680   30.4350 C.ar    1  4HY1        0.0720
      7  C7        15.6400   17.5290   29.2160 C.ar    1  4HY1        0.1558
      8  C8        20.2380   16.8050   31.5080 C.ar    1  4HY1        0.2012
      9  C9        15.4370   17.7120   27.8100 C.ar    1  4HY1        0.0647
     10  C10       19.3480   15.7880   31.9570 C.ar    1  4HY1        0.0456
     11  C11       14.6210   18.8110   27.3130 C.ar    1  4HY1        0.0051
     12  C12       18.0740   15.6540   31.3450 C.ar    1  4HY1        0.0408
     13  C13       13.2650   20.8480   27.6840 C.3     1  4HY1        0.1404
     14  C14       11.7290   20.7830   28.0130 C.2     1  4HY1        0.3692
     15  I1        15.3510   18.2820   32.1820 I       1  4HY1       -0.0393
     16  I2        21.0930   19.1960   29.7240 I       1  4HY1       -0.0391
     17  I3        16.1940   16.2280   26.4820 I       1  4HY1       -0.0393
     18  O3        10.9600   20.4830   27.0600 O.co2   1  4HY1       -0.2453
     19  O2        16.4590   16.4440   29.6400 O.3     1  4HY1       -0.4526
     20  O1        21.5030   16.9700   32.0870 O.3     1  4HY1       -0.2861
     21  O4        11.3830   21.0420   29.1990 O.co2   1  4HY1       -0.2453
@<TRIPOS>BOND
     1    17     9    1
     2    18    14   ar
     3    11     9   ar
     4    11     1   ar
     5    13    14    1
     6    13     1    1
     7     9     7   ar
     8    14    21   ar
     9     1     3   ar
    10     7    19    1
    11     7     5   ar
    12     3     5   ar
    13    19     2    1
    14    16     6    1
    15     4     2   ar
    16     4     6   ar
    17     5    15    1
    18     2    12   ar
    19     6     8   ar
    20    12    10   ar
    21     8    10   ar
    22     8    20    1
