@<TRIPOS>MOLECULE
2qq0_TMP_B_1.pdb
 21 22 0 0 0
SMALL
GASTEIGER

@<TRIPOS>ATOM
      1  P        -17.8620   60.9950   13.1710 P.3   601  TMP601      0.5327
      2  O1P      -18.5500   59.8360   12.4750 O.3   601  TMP601     -0.1145
      3  O2P      -18.2020   62.2220   12.3250 O.2   601  TMP601     -0.2224
      4  O3P      -16.3990   61.0060   13.4260 O.3   601  TMP601     -0.1145
      5  O5'      -18.7380   61.2630   14.5430 O.3   601  TMP601     -0.2675
      6  C5'      -18.0610   61.6470   15.7490 C.3   601  TMP601      0.1858
      7  C4'      -18.9840   61.5320   16.9680 C.3   601  TMP601      0.1774
      8  O4'      -18.1990   61.8560   18.1130 O.3   601  TMP601     -0.3339
      9  C3'      -20.1870   62.4840   16.9850 C.3   601  TMP601      0.1857
     10  O3'      -21.3080   61.8520   17.6670 O.3   601  TMP601     -0.2203
     11  C2'      -19.7090   63.6340   17.8160 C.3   601  TMP601      0.0874
     12  C1'      -18.8450   62.9070   18.8110 C.3   601  TMP601      0.2090
     13  N1       -17.7730   63.7810   19.3300 N.am  601  TMP601     -0.1794
     14  C2       -17.5400   63.8800   20.7220 C.1   601  TMP601      0.2844
     15  O2       -18.2690   63.2050   21.4720 O.2   601  TMP601     -0.1918
     16  N3       -16.5360   64.6230   21.2030 N.2   601  TMP601     -0.2455
     17  C4       -15.7390   65.3460   20.4170 C.1   601  TMP601      0.2134
     18  O4       -14.8760   66.0690   20.9200 O.2   601  TMP601     -0.2088
     19  C5       -15.9290   65.2980   18.9510 C.2   601  TMP601      0.0891
     20  C5M      -15.0340   66.1080   18.0390 C.3   601  TMP601      0.0462
     21  C6       -16.9780   64.4800   18.5020 C.2   601  TMP601      0.0877
@<TRIPOS>BOND
     1     3     1    2
     2     2     1    1
     3     1     4    1
     4     1     5    1
     5     5     6    1
     6     6     7    1
     7     7     9    1
     8     7     8    1
     9     9    10    1
    10     9    11    1
    11    11    12    1
    12    20    19    1
    13     8    12    1
    14    21    19    2
    15    21    13    1
    16    12    13    1
    17    19    17    1
    18    13    14   am
    19    17    18    2
    20    17    16    2
    21    14    16    2
    22    14    15    2
