@<TRIPOS>MOLECULE
2qq0_THM_A_1.pdb
 17 18 0 0 0
SMALL
GASTEIGER

@<TRIPOS>ATOM
      1  O5'       15.8490   52.2010   18.0480 O.3   501  THM501     -0.2176
      2  C5'       14.9430   51.6140   18.9750 C.3   501  THM501      0.2141
      3  C4'       15.5510   51.8070   20.3600 C.3   501  THM501      0.1802
      4  O4'       14.5260   51.5110   21.3210 O.3   501  THM501     -0.3338
      5  C3'       16.7060   50.8400   20.6540 C.3   501  THM501      0.1858
      6  O3'       17.6420   51.4260   21.5670 O.3   501  THM501     -0.2203
      7  C2'       16.0620   49.7110   21.4200 C.3   501  THM501      0.0874
      8  C1'       14.9940   50.4450   22.1580 C.3   501  THM501      0.2090
      9  N1        13.8480   49.6010   22.4380 N.am  501  THM501     -0.1794
     10  C2        13.3310   49.6150   23.7710 C.1   501  THM501      0.2844
     11  O2        13.8630   50.3160   24.6680 O.2   501  THM501     -0.1918
     12  N3        12.2330   48.8830   24.0680 N.2   501  THM501     -0.2455
     13  C4        11.6020   48.1200   23.1540 C.1   501  THM501      0.2134
     14  O4        10.6090   47.4450   23.4950 O.2   501  THM501     -0.2088
     15  C5        12.1230   48.0820   21.7540 C.2   501  THM501      0.0891
     16  C5M       11.4400   47.2610   20.6920 C.3   501  THM501      0.0462
     17  C6        13.2520   48.8520   21.4770 C.2   501  THM501      0.0877
@<TRIPOS>BOND
     1     1     2    1
     2     2     3    1
     3     3     5    1
     4     3     4    1
     5     5     7    1
     6     5     6    1
     7    16    15    1
     8     4     8    1
     9     7     8    1
    10    17    15    2
    11    17     9    1
    12    15    13    1
    13     8     9    1
    14     9    10   am
    15    13    14    2
    16    13    12    2
    17    10    12    2
    18    10    11    2
