@<TRIPOS>MOLECULE
2qq0_ANP_A_1.pdb
 31 33 0 0 0
SMALL
GASTEIGER

@<TRIPOS>ATOM
      1  PG        15.5600   51.8190   15.2010 P.3   601  ANP601      0.4884
      2  O1G       14.1730   51.8660   15.8780 O.3   601  ANP601     -0.1240
      3  O2G       16.3960   50.7060   15.7340 O.3   601  ANP601     -0.1240
      4  O3G       16.1180   53.2210   15.4370 O.2   601  ANP601     -0.2331
      5  PB        15.1150   52.5250   12.2200 P.3   601  ANP601      0.4669
      6  O1B       13.7180   52.1670   11.8980 O.2   601  ANP601     -0.2351
      7  O2B       15.5130   53.8820   12.6100 O.3   601  ANP601     -0.1253
      8  N3B       15.6270   51.4150   13.4480 N.3   601  ANP601     -0.0163
      9  PA        17.1950   52.8740   10.2060 P.3   601  ANP601      0.2220
     10  O1A       16.7450   53.9740    9.2700 O.2   601  ANP601     -0.5170
     11  O2A       18.1770   53.1760   11.2990 O.3   601  ANP601     -0.4370
     12  O3A       15.9270   52.1130   10.8700 O.3   601  ANP601     -0.2360
     13  O5'       17.8500   51.6370    9.4310 O.3   601  ANP601     -0.3111
     14  C5'       17.2330   50.9620    8.3470 C.3   601  ANP601      0.1813
     15  C4'       18.3660   50.1630    7.7280 C.3   601  ANP601      0.1821
     16  O4'       18.6350   49.0100    8.5350 O.3   601  ANP601     -0.3135
     17  C3'       18.0100   49.5500    6.3940 C.3   601  ANP601      0.2184
     18  O3'       18.2450   50.4840    5.3380 O.3   601  ANP601     -0.2174
     19  C2'       18.9440   48.3470    6.3340 C.3   601  ANP601      0.2570
     20  O2'       20.2460   48.7440    5.8880 O.3   601  ANP601     -0.2130
     21  C1'       19.1930   47.9310    7.7530 C.3   601  ANP601      0.3186
     22  N9        18.4710   46.7520    8.2450 N.pl3 601  ANP601     -0.1439
     23  C8        18.9410   45.9420    9.2330 C.3   601  ANP601      0.3377
     24  N7        18.0550   44.9660    9.5450 N.2   601  ANP601     -0.2095
     25  C5        16.9810   45.1410    8.7300 C.2   601  ANP601      0.2526
     26  C6        15.6780   44.4610    8.5670 C.2   601  ANP601      0.4393
     27  N6        15.3530   43.3860    9.3120 N.pl3 601  ANP601      0.2180
     28  N1        14.8490   44.9850    7.6230 N.2   601  ANP601      0.0021
     29  C2        15.1350   46.0640    6.8960 C.3   601  ANP601      0.5254
     30  N3        16.3080   46.7210    6.9930 N.2   601  ANP601     -0.0055
     31  C4        17.2400   46.3260    7.8990 C.2   601  ANP601      0.3518
@<TRIPOS>BOND
     1    18    17    1
     2    20    19    1
     3    19    17    1
     4    19    21    1
     5    17    15    1
     6    29    30    1
     7    29    28    1
     8    30    31    2
     9    28    26    2
    10    15    14    1
    11    15    16    1
    12    21    22    1
    13    21    16    1
    14    31    22    1
    15    31    25    1
    16    22    23    1
    17    14    13    1
    18    26    25    1
    19    26    27    1
    20    25    24    2
    21    23    24    1
    22    10     9    2
    23    13     9    1
    24     9    12    1
    25     9    11    1
    26    12     5    1
    27     6     5    2
    28     5     7    1
    29     5     8    1
    30     8     1    1
    31     1     4    2
    32     1     3    1
    33     1     2    1
