@<TRIPOS>MOLECULE
2qq0_ADP_B_1.pdb
 27 29 0 0 0
SMALL
GASTEIGER

@<TRIPOS>ATOM
      1  PB       -17.1380   60.7760    9.2030 P.3   701  ADP701      0.5373
      2  O1B      -15.6730   61.0430    9.1550 O.2   701  ADP701     -0.2221
      3  O2B      -17.5880   59.2270    9.6320 O.3   701  ADP701     -0.1143
      4  O3B      -17.9030   61.8030    9.9690 O.3   701  ADP701     -0.1143
      5  PA       -18.8190   60.3940    6.8350 P.3   701  ADP701      0.2231
      6  O1A      -18.2670   59.2290    5.9640 O.2   701  ADP701     -0.5169
      7  O2A      -20.1440   59.9780    7.8180 O.3   701  ADP701     -0.4370
      8  O3A      -17.6130   61.0630    7.6770 O.3   701  ADP701     -0.2261
      9  O5'      -19.2720   61.6450    5.9480 O.3   701  ADP701     -0.3111
     10  C5'      -18.4910   62.3460    4.9750 C.3   701  ADP701      0.1813
     11  C4'      -19.5100   63.1510    4.1820 C.3   701  ADP701      0.1821
     12  O4'      -19.9760   64.2720    4.9440 O.3   701  ADP701     -0.3135
     13  C3'      -18.9330   63.7920    2.9400 C.3   701  ADP701      0.2184
     14  O3'      -18.8860   62.8660    1.8350 O.3   701  ADP701     -0.2174
     15  C2'      -19.8920   64.9380    2.6860 C.3   701  ADP701      0.2570
     16  O2'      -21.0220   64.4390    1.9650 O.3   701  ADP701     -0.2130
     17  C1'      -20.4010   65.3490    4.0520 C.3   701  ADP701      0.3186
     18  N9       -19.7330   66.5380    4.6410 N.pl3 701  ADP701     -0.1439
     19  C8       -20.3270   67.3750    5.5150 C.3   701  ADP701      0.3377
     20  N7       -19.4790   68.3420    5.9490 N.2   701  ADP701     -0.2095
     21  C5       -18.2920   68.0980    5.3520 C.2   701  ADP701      0.2526
     22  C6       -16.9570   68.7400    5.3870 C.2   701  ADP701      0.4393
     23  N6       -16.7300   69.8280    6.1740 N.pl3 701  ADP701      0.2180
     24  N1       -15.9930   68.1480    4.6380 N.2   701  ADP701      0.0021
     25  C2       -16.2070   67.0770    3.8520 C.3   701  ADP701      0.5254
     26  N3       -17.3950   66.4480    3.7560 N.2   701  ADP701     -0.0055
     27  C4       -18.4500   66.9070    4.5000 C.2   701  ADP701      0.3518
@<TRIPOS>BOND
     1    14    13    1
     2    16    15    1
     3    15    13    1
     4    15    17    1
     5    13    11    1
     6    26    25    1
     7    26    27    2
     8    25    24    1
     9    17    18    1
    10    17    12    1
    11    11    12    1
    12    11    10    1
    13    27    18    1
    14    27    21    1
    15    24    22    2
    16    18    19    1
    17    10     9    1
    18    21    22    1
    19    21    20    2
    20    22    23    1
    21    19    20    1
    22     9     5    1
    23     6     5    2
    24     5     8    1
    25     5     7    1
    26     8     1    1
    27     2     1    2
    28     1     3    1
    29     1     4    1
