@<TRIPOS>MOLECULE
2qq7_SR2_A_1.pdb
 27 29 0 0 0
SMALL
GASTEIGER

@<TRIPOS>ATOM
      1  C4         6.4920   -4.9110   -8.4140 C.ar  1345  SR21345     0.0511
      2  C3         5.5350   -4.4390   -9.3070 C.ar  1345  SR21345     0.0381
      3 BRR1        5.9640   -4.3990  -11.1730 Br    1345  SR21345    -0.0489
      4  C22        4.2920   -4.0070   -8.8180 C.ar  1345  SR21345     0.0069
      5  C21        4.0220   -4.0460   -7.4430 C.ar  1345  SR21345     0.0041
      6  C20        4.9890   -4.5210   -6.5550 C.ar  1345  SR21345     0.0444
      7  C5         6.2250   -4.9490   -7.0470 C.ar  1345  SR21345     0.1839
      8  N1         7.1450   -5.4100   -6.2050 N.pl3 1345  SR21345    -0.0060
      9  C6         8.4580   -5.1500   -6.3030 C.2   1345  SR21345     0.3642
     10  C7         9.3400   -5.8390   -5.4670 C.2   1345  SR21345     0.1008
     11  C8         8.8800   -6.7950   -4.5380 C.2   1345  SR21345     0.0250
     12  N3         8.9590   -4.2290   -7.1720 N.2   1345  SR21345    -0.0327
     13  C19       10.2650   -3.9730   -7.2490 C.3   1345  SR21345     0.3917
     14  N2        11.1330   -4.6240   -6.4790 N.2   1345  SR21345    -0.2225
     15  C18       10.7070   -5.5430   -5.5900 C.2   1345  SR21345     0.0699
     16  C17       11.6230   -6.1960   -4.7810 C.3   1345  SR21345     0.0731
     17  C13       11.1650   -7.1360   -3.8630 C.2   1345  SR21345    -0.0032
     18  C9         9.8080   -7.4500   -3.7290 C.2   1345  SR21345     0.0698
     19  N11        9.5110   -8.3540   -2.7820 N.am  1345  SR21345    -0.1795
     20  C10        8.5050   -8.2370   -1.8920 C.2   1345  SR21345     0.2456
     21  O61        7.6640   -7.3310   -1.8730 O.2   1345  SR21345    -0.2730
     22  C11        8.4440   -9.3830   -0.8680 C.3   1345  SR21345     0.0886
     23  C51        7.6910   -9.1230    0.4720 C.3   1345  SR21345     0.0270
     24  C61        6.1500   -9.0200    0.2960 C.3   1345  SR21345     0.0727
     25  N63        5.4880   -9.6940    1.4510 N.3   1345  SR21345    -0.2703
     26  C65        4.0320   -9.6820    1.2150 C.3   1345  SR21345     0.0897
     27  C67        5.7730   -9.0290    2.7260 C.3   1345  SR21345     0.0897
@<TRIPOS>BOND
     1     3     2    1
     2     2     4   ar
     3     2     1   ar
     4     4     5   ar
     5     1     7   ar
     6     5     6   ar
     7    13    12    1
     8    13    14    1
     9    12     9    2
    10     7     6   ar
    11     7     8    1
    12    14    15    2
    13     9     8    1
    14     9    10    1
    15    15    10    1
    16    15    16    1
    17    10    11    2
    18    16    17    1
    19    11    18    1
    20    17    18    2
    21    18    19    1
    22    19    20   am
    23    20    21    2
    24    20    22    1
    25    22    23    1
    26    24    23    1
    27    24    25    1
    28    26    25    1
    29    25    27    1
