@<TRIPOS>MOLECULE
2qqe_THM_A_1.pdb
 17 18 0 0 0
SMALL
GASTEIGER

@<TRIPOS>ATOM
      1  O5'       37.1560   11.0630   12.2590 O.3   501  THM501     -0.2176
      2  C5'       37.6320   11.7990   13.2960 C.3   501  THM501      0.2141
      3  C4'       36.6860   11.7960   14.4960 C.3   501  THM501      0.1802
      4  O4'       37.6580   12.0800   15.5290 O.3   501  THM501     -0.3338
      5  C3'       35.6440   12.9450   14.5640 C.3   501  THM501      0.1858
      6  O3'       34.3520   12.7100   15.2270 O.3   501  THM501     -0.2203
      7  C2'       36.3640   13.9950   15.3830 C.3   501  THM501      0.0874
      8  C1'       37.1510   13.1120   16.3420 C.3   501  THM501      0.2090
      9  N1        38.2790   13.8190   16.9860 N.am  501  THM501     -0.1794
     10  C2        38.4330   13.8320   18.3500 C.1   501  THM501      0.2844
     11  O2        37.6670   13.2780   19.1360 O.2   501  THM501     -0.1918
     12  N3        39.5360   14.5420   18.7850 N.2   501  THM501     -0.2455
     13  C4        40.4470   15.2350   18.0030 C.1   501  THM501      0.2134
     14  O4        41.3960   15.8470   18.4630 O.2   501  THM501     -0.2088
     15  C5        40.2340   15.1570   16.6000 C.2   501  THM501      0.0891
     16  C5M       41.1850   15.8450   15.6600 C.3   501  THM501      0.0462
     17  C6        39.1850   14.4720   16.1640 C.2   501  THM501      0.0877
@<TRIPOS>BOND
     1     1     2    1
     2     2     3    1
     3     3     5    1
     4     3     4    1
     5     5     6    1
     6     5     7    1
     7     7     8    1
     8     4     8    1
     9    16    15    1
    10    17    15    2
    11    17     9    1
    12     8     9    1
    13    15    13    1
    14     9    10   am
    15    13    14    2
    16    13    12    2
    17    10    12    2
    18    10    11    2
