@<TRIPOS>MOLECULE
2qqf_A1R_A_1.pdb
 35 38 0 0 0
SMALL
GASTEIGER

@<TRIPOS>ATOM
      1  N1        39.6060   59.1060   23.7150 N.2   1001  A1R1001     0.0021
      2  C2        40.6400   60.0660   23.9550 C.3   1001  A1R1001     0.5254
      3  N3        40.9450   60.5680   25.3060 N.2   1001  A1R1001    -0.0055
      4  C4        40.1030   60.0030   26.3630 C.2   1001  A1R1001     0.3518
      5  C5        39.0550   59.0520   26.2370 C.2   1001  A1R1001     0.2526
      6  C6        38.8030   58.5840   24.8190 C.2   1001  A1R1001     0.4393
      7  N6        37.8020   57.6380   24.4880 N.pl3 1001  A1R1001     0.2180
      8  N7        38.4980   58.7720   27.4730 N.2   1001  A1R1001    -0.2095
      9  C8        39.1780   59.5200   28.3480 C.3   1001  A1R1001     0.3377
     10  N9        40.1690   60.2880   27.7240 N.pl3 1001  A1R1001    -0.1439
     11  C1'       41.1620   61.2480   28.2550 C.3   1001  A1R1001     0.3186
     12  C2'       40.8370   62.1710   29.3540 C.3   1001  A1R1001     0.2570
     13  O2'       40.6360   63.5260   28.8690 O.3   1001  A1R1001    -0.2130
     14  C3'       41.9560   62.0470   30.3320 C.3   1001  A1R1001     0.2184
     15  O3'       42.8050   63.2200   30.4840 O.3   1001  A1R1001    -0.2174
     16  O4'       42.2440   60.4480   28.6380 O.3   1001  A1R1001    -0.3135
     17  C4'       42.7910   60.8510   29.9030 C.3   1001  A1R1001     0.1821
     18  C5'       42.7330   59.5790   30.8290 C.3   1001  A1R1001     0.1813
     19  O5'       43.2600   59.9110   32.1520 O.3   1001  A1R1001    -0.3112
     20  PA        43.3590   58.9090   33.3240 P.3   1001  A1R1001     0.2189
     21  O1A       42.0740   58.2670   33.6630 O.2   1001  A1R1001    -0.5170
     22  O2A       43.9170   59.6440   34.4690 O.3   1001  A1R1001    -0.4371
     23  O3A       44.4500   57.8420   33.1250 O.3   1001  A1R1001    -0.2703
     24  PB        45.9020   57.6680   32.7660 P.3   1001  A1R1001     0.2189
     25  O1B       46.5560   58.9440   32.4590 O.3   1001  A1R1001    -0.4371
     26  O2B       46.2450   56.9210   31.6340 O.2   1001  A1R1001    -0.5170
     27  O5N       46.3500   57.3280   34.1840 O.3   1001  A1R1001    -0.3117
     28  C5N       46.1380   56.3500   35.0810 C.3   1001  A1R1001     0.1760
     29  N4N       44.7410   55.5260   36.5170 N.2   1001  A1R1001    -0.2675
     30  C1N       45.0660   55.0710   37.8970 C.2   1001  A1R1001     0.1022
     31  O2N       44.9220   56.5980   39.2090 O.3   1001  A1R1001    -0.2138
     32  C2N       45.9800   55.9310   38.4340 C.3   1001  A1R1001     0.2245
     33  O3N       46.4220   58.3940   37.8780 O.3   1001  A1R1001    -0.2178
     34  C3N       46.3760   57.0070   37.5670 C.3   1001  A1R1001     0.2125
     35  C4N       45.5650   56.7680   36.2970 C.3   1001  A1R1001     0.1661
@<TRIPOS>BOND
     1     1     2    1
     2     1     6    2
     3     2     3    1
     4     7     6    1
     5     6     5    1
     6     3     4    2
     7     5     4    1
     8     5     8    2
     9     4    10    1
    10     8     9    1
    11    10    11    1
    12    10     9    1
    13    11    16    1
    14    11    12    1
    15    16    17    1
    16    13    12    1
    17    12    14    1
    18    17    14    1
    19    17    18    1
    20    14    15    1
    21    18    19    1
    22    26    24    2
    23    19    20    1
    24    25    24    1
    25    24    23    1
    26    24    27    1
    27    23    20    1
    28    20    21    2
    29    20    22    1
    30    27    28    1
    31    28    35    1
    32    35    29    1
    33    35    34    1
    34    29    30    2
    35    34    33    1
    36    34    32    1
    37    30    32    1
    38    32    31    1
