@<TRIPOS>MOLECULE
2qqg_A1R_A_1.pdb
 35 38 0 0 0
SMALL
GASTEIGER

@<TRIPOS>ATOM
      1  N1        18.1280   87.0640    1.2980 N.2   1001  A1R1001     0.0021
      2  C2        19.4630   86.6930    1.6020 C.3   1001  A1R1001     0.5254
      3  N3        19.9680   86.6520    2.9740 N.2   1001  A1R1001    -0.0055
      4  C4        18.9910   87.0200    3.9740 C.2   1001  A1R1001     0.3518
      5  C5        17.6500   87.4060    3.7870 C.2   1001  A1R1001     0.2526
      6  C6        17.2020   87.4250    2.3590 C.2   1001  A1R1001     0.4393
      7  N6        15.8840   87.7840    1.9690 N.pl3 1001  A1R1001     0.2180
      8  N7        17.0440   87.6830    5.0050 N.2   1001  A1R1001    -0.2095
      9  C8        17.9910   87.4670    5.9280 C.3   1001  A1R1001     0.3377
     10  N9        19.1940   87.0590    5.3460 N.pl3 1001  A1R1001    -0.1439
     11  C1'       20.4970   86.6940    5.9220 C.3   1001  A1R1001     0.3186
     12  C2'       21.0770   87.4270    7.0630 C.3   1001  A1R1001     0.2570
     13  O2'       22.0690   88.3950    6.6210 O.3   1001  A1R1001    -0.2130
     14  C3'       21.6490   86.3900    7.9600 C.3   1001  A1R1001     0.2184
     15  O3'       23.0860   86.2260    7.8920 O.3   1001  A1R1001    -0.2174
     16  O4'       20.3170   85.3630    6.3190 O.3   1001  A1R1001    -0.3135
     17  C4'       20.9790   85.0830    7.5710 C.3   1001  A1R1001     0.1821
     18  C5'       19.9020   84.5150    8.5550 C.3   1001  A1R1001     0.1813
     19  O5'       20.5290   84.2440    9.8560 O.3   1001  A1R1001    -0.3112
     20  PA        19.7520   83.6580   11.0530 P.3   1001  A1R1001     0.2189
     21  O1A       18.5490   84.4400   11.3900 O.2   1001  A1R1001    -0.5170
     22  O2A       20.6970   83.5360   12.1820 O.3   1001  A1R1001    -0.4371
     23  O3A       19.3820   82.1900   10.8000 O.3   1001  A1R1001    -0.2703
     24  PB        20.0260   80.8990   10.4100 P.3   1001  A1R1001     0.2189
     25  O1B       21.4550   81.0850   10.1830 O.3   1001  A1R1001    -0.4371
     26  O2B       19.6260   80.2190    9.2450 O.2   1001  A1R1001    -0.5170
     27  O5N       19.8900   80.2990   11.8190 O.3   1001  A1R1001    -0.3117
     28  C5N       18.8700   79.8930   12.5900 C.3   1001  A1R1001     0.1760
     29  N4N       17.3120   80.0270   14.0390 N.2   1001  A1R1001    -0.2675
     30  C1N       17.1970   79.2510   15.3050 C.2   1001  A1R1001     0.1022
     31  O2N       18.1980   80.2690   16.7530 O.3   1001  A1R1001    -0.2138
     32  C2N       18.4510   79.1290   15.8790 C.3   1001  A1R1001     0.2245
     33  O3N       20.4990   80.6470   15.6060 O.3   1001  A1R1001    -0.2178
     34  C3N       19.5050   79.7580   15.1080 C.3   1001  A1R1001     0.2125
     35  C4N       18.7800   80.3580   13.9200 C.3   1001  A1R1001     0.1661
@<TRIPOS>BOND
     1     1     2    1
     2     1     6    2
     3     2     3    1
     4     7     6    1
     5     6     5    1
     6     3     4    2
     7     5     4    1
     8     5     8    2
     9     4    10    1
    10     8     9    1
    11    10    11    1
    12    10     9    1
    13    11    16    1
    14    11    12    1
    15    16    17    1
    16    13    12    1
    17    12    14    1
    18    17    14    1
    19    17    18    1
    20    15    14    1
    21    18    19    1
    22    26    24    2
    23    19    20    1
    24    25    24    1
    25    24    23    1
    26    24    27    1
    27    23    20    1
    28    20    21    2
    29    20    22    1
    30    27    28    1
    31    28    35    1
    32    35    29    1
    33    35    34    1
    34    29    30    2
    35    34    33    1
    36    34    32    1
    37    30    32    1
    38    32    31    1
