@<TRIPOS>MOLECULE
2qqt_HEM_A_1.pdb
 43 50 0 0 0
SMALL
GASTEIGER

@<TRIPOS>ATOM
      1  CHA        8.6890    0.0930   29.2240 C.2   605  HEM605      0.0000
      2  CHB        9.1790    4.8310   29.1880 C.2   605  HEM605      0.0000
      3  CHC       10.9990    4.5200   24.7000 C.2   605  HEM605      0.0000
      4  CHD       10.6930   -0.2780   24.7890 C.2   605  HEM605      0.0000
      5  C1A        8.6810    1.3650   29.6310 C.2   605  HEM605      0.0000
      6  C2A        8.2960    1.7610   30.9370 C.2   605  HEM605      0.0000
      7  C3A        8.4190    3.0780   30.9740 C.2   605  HEM605      0.0000
      8  C4A        8.9540    3.5280   29.6630 C.2   605  HEM605      0.0000
      9  CMA        8.1540    3.8850   32.2430 C.3   605  HEM605      0.0000
     10  CAA        7.8000    0.8380   32.0670 C.3   605  HEM605      0.0000
     11  CBA        8.8770    0.2450   33.0010 C.3   605  HEM605      0.0000
     12  CGA        8.3830   -0.5800   33.9840 C.2   605  HEM605      0.0000
     13  O1A        7.4480   -0.1740   34.7520 O.co2 605  HEM605      0.0000
     14  O2A        8.8670   -1.7100   34.1100 O.co2 605  HEM605      0.0000
     15  C1B        9.7290    5.2070   27.9440 C.ar  605  HEM605      0.0000
     16  C2B        9.9510    6.6000   27.4370 C.ar  605  HEM605      0.0000
     17  C3B       10.4650    6.4810   26.1590 C.ar  605  HEM605      0.0000
     18  C4B       10.5030    5.0440   25.8800 C.ar  605  HEM605      0.0000
     19  CMB        9.7620    7.9280   28.2020 C.3   605  HEM605      0.0000
     20  CAB       10.9180    7.6050   25.1510 C.2   605  HEM605      0.0000
     21  CBB       10.8810    8.9470   25.4270 C.2   605  HEM605      0.0000
     22  C1C       11.1010    3.2190   24.3510 C.2   605  HEM605      0.0000
     23  C2C       11.6950    2.7580   23.1340 C.2   605  HEM605      0.0000
     24  C3C       11.6210    1.3430   23.1480 C.2   605  HEM605      0.0000
     25  C4C       10.9800    0.9850   24.3700 C.2   605  HEM605      0.0000
     26  CMC       12.3210    3.7310   22.0370 C.3   605  HEM605      0.0000
     27  CAC       12.1260    0.3040   22.0800 C.3   605  HEM605      0.0000
     28  CBC       12.7790    0.6410   20.9010 C.3   605  HEM605      0.0000
     29  C1D       10.0790   -0.5790   26.0050 C.ar  605  HEM605      0.0000
     30  C2D        9.7160   -1.9740   26.3810 C.ar  605  HEM605      0.0000
     31  C3D        9.0570   -1.8590   27.7310 C.ar  605  HEM605      0.0000
     32  C4D        9.1320   -0.4000   28.0580 C.ar  605  HEM605      0.0000
     33  CMD        9.9440   -3.2340   25.5920 C.3   605  HEM605      0.0000
     34  CAD        8.4630   -3.0520   28.5760 C.3   605  HEM605      0.0000
     35  CBD        6.9780   -3.2190   28.0950 C.3   605  HEM605      0.0000
     36  CGD        6.1530   -4.3070   28.7480 C.2   605  HEM605      0.0000
     37  O1D        6.1400   -5.3620   28.0840 O.co2 605  HEM605      0.0000
     38  O2D        5.5180   -4.1790   29.8440 O.co2 605  HEM605      0.0000
     39  NA         9.0670    2.4480   28.8590 N.2   605  HEM605      0.0000
     40  NB        10.0290    4.3040   26.9460 N.ar  605  HEM605      0.0000
     41  NC        10.6760    2.1450   25.1050 N.2   605  HEM605      0.0000
     42  ND         9.7010    0.3170   27.0400 N.ar  605  HEM605      0.0000
     43 FE         10.0260    2.3110   27.0640 Fe    605  HEM605      0.0000
@<TRIPOS>BOND
     1    28    27    1
     2    26    23    1
     3    27    24    1
     4    23    24    2
     5    23    22    1
     6    24    25    1
     7    22     3    2
     8    22    41    1
     9    25     4    1
    10    25    41    2
    11     3    18    1
    12     4    29    2
    13    41    43    1
    14    20    21    2
    15    20    17    1
    16    33    30    1
    17    18    17   ar
    18    18    40   ar
    19    29    30   ar
    20    29    42   ar
    21    17    16   ar
    22    30    31   ar
    23    40    43    1
    24    40    15   ar
    25    42    43    1
    26    42    32   ar
    27    43    39    1
    28    16    15   ar
    29    16    19    1
    30    31    32   ar
    31    31    34    1
    32    15     2    1
    33    32     1    2
    34    37    36   ar
    35    35    34    1
    36    35    36    1
    37    36    38   ar
    38    39     5    2
    39    39     8    1
    40     2     8    2
    41     1     5    1
    42     5     6    1
    43     8     7    1
    44     6     7    2
    45     6    10    1
    46     7     9    1
    47    10    11    1
    48    11    12    1
    49    12    14   ar
    50    12    13   ar
