@<TRIPOS>MOLECULE
2qqt_AIN_A_1.pdb
 13 13 0 0 0
SMALL
GASTEIGER

@<TRIPOS>ATOM
      1  O1         0.6600    5.1410   31.2450 O.co2 596  AIN596     -0.2404
      2  C7         1.6780    4.6170   30.7190 C.2   596  AIN596      0.3907
      3  O2         1.4920    3.7410   29.9290 O.co2 596  AIN596     -0.2404
      4  C3         3.0460    4.9680   31.2120 C.ar  596  AIN596      0.1143
      5  C4         3.1030    6.0570   32.2510 C.ar  596  AIN596      0.0097
      6  C5         4.3120    6.5410   32.8000 C.ar  596  AIN596      0.0004
      7  C6         5.5970    6.1310   32.3570 C.ar  596  AIN596      0.0031
      8  C1         5.6110    5.0530   31.3310 C.ar  596  AIN596      0.0378
      9  C2         4.3650    4.4600   30.6940 C.ar  596  AIN596      0.1547
     10  O3         4.3850    3.4440   29.7280 O.3   596  AIN596     -0.4239
     11  C8         5.2340    2.9780   28.5740 C.2   596  AIN596      0.3220
     12  O4         5.7890    3.3760   27.6240 O.2   596  AIN596     -0.2497
     13  C9         5.0790    1.5710   28.7580 C.3   596  AIN596      0.1216
@<TRIPOS>BOND
     1    12    11    2
     2    11    13    1
     3    11    10    1
     4    10     9    1
     5     3     2   ar
     6     9     4   ar
     7     9     8   ar
     8     2     4    1
     9     2     1   ar
    10     4     5   ar
    11     8     7   ar
    12     5     6   ar
    13     7     6   ar
