@<TRIPOS>MOLECULE
2qqt_NAG_A_1.pdb
 14 14 0 0 0
SMALL
GASTEIGER

@<TRIPOS>ATOM
      1  C1        23.3970    4.8100    6.8710 C.3   1001  NAG1001     0.1665
      2  C2        24.6890    4.4130    6.1540 C.3   1001  NAG1001     0.1576
      3  C3        24.4090    3.8480    4.7650 C.3   1001  NAG1001     0.2069
      4  C4        23.3640    2.7290    4.7970 C.3   1001  NAG1001     0.2134
      5  C5        22.1520    3.0750    5.7060 C.3   1001  NAG1001     0.1809
      6  C6        21.4070    1.8030    6.0640 C.3   1001  NAG1001     0.2141
      7  C7        26.8820    5.3810    6.3460 C.2   1001  NAG1001     0.2420
      8  C8        27.7770    6.5970    6.1770 C.3   1001  NAG1001     0.0964
      9  N2        25.5980    5.5370    6.0340 N.am  1001  NAG1001    -0.2019
     10  O3        25.6220    3.3340    4.2300 O.3   1001  NAG1001    -0.2184
     11  O4        22.9060    2.4790    3.4400 O.3   1001  NAG1001    -0.2176
     12  O5        22.5600    3.6500    6.9790 O.3   1001  NAG1001    -0.3489
     13  O6        22.0950    1.0870    7.0820 O.3   1001  NAG1001    -0.2176
     14  O7        27.3510    4.3180    6.7680 O.2   1001  NAG1001    -0.2733
@<TRIPOS>BOND
     1    11     4    1
     2    10     3    1
     3     3     4    1
     4     3     2    1
     5     4     5    1
     6     5     6    1
     7     5    12    1
     8     9     2    1
     9     9     7   am
    10     6    13    1
    11     2     1    1
    12     8     7    1
    13     7    14    2
    14     1    12    1
