@<TRIPOS>MOLECULE
2qqu_MAN_A_1.pdb
 11 11 0 0 0
SMALL
GASTEIGER

@<TRIPOS>ATOM
      1  C1        27.1350  -15.9640  -13.5100 C.3   753  MAN753      0.1777
      2  C2        27.6170  -17.4040  -13.3810 C.3   753  MAN753      0.2141
      3  C3        28.4720  -17.6050  -12.1230 C.3   753  MAN753      0.2173
      4  C4        29.4710  -16.4770  -11.8440 C.3   753  MAN753      0.2142
      5  C5        29.0210  -15.0880  -12.3250 C.3   753  MAN753      0.1810
      6  C6        30.2150  -14.1640  -12.5540 C.3   753  MAN753      0.2141
      7  O2        28.3430  -17.7710  -14.5310 O.3   753  MAN753     -0.2176
      8  O3        29.1590  -18.8340  -12.2130 O.3   753  MAN753     -0.2175
      9  O4        29.6540  -16.4200  -10.4460 O.3   753  MAN753     -0.2176
     10  O5        28.2710  -15.1240  -13.5290 O.3   753  MAN753     -0.3481
     11  O6        29.7690  -12.8360  -12.7400 O.3   753  MAN753     -0.2176
@<TRIPOS>BOND
     1     7     2    1
     2    10     1    1
     3    10     5    1
     4     1     2    1
     5     2     3    1
     6    11     6    1
     7     6     5    1
     8     5     4    1
     9     8     3    1
    10     3     4    1
    11     4     9    1
