@<TRIPOS>MOLECULE
2qqu_SUC_A_1.pdb
 23 24 0 0 0
SMALL
GASTEIGER

@<TRIPOS>ATOM
      1  C1        22.5540    5.6520   -9.7690 C.3   800  SUC800      0.2713
      2  C2        22.4950    4.6390  -10.9180 C.3   800  SUC800      0.2406
      3  C3        22.2080    5.3600  -12.2410 C.3   800  SUC800      0.2198
      4  C4        20.9510    6.2210  -12.1370 C.3   800  SUC800      0.2144
      5  C5        20.9370    7.0680  -10.8610 C.3   800  SUC800      0.1835
      6  C6        19.5540    7.6540  -10.6280 C.3   800  SUC800      0.2142
      7  O1        23.6390    6.5570   -9.9710 O.3   800  SUC800     -0.3033
      8  O2        23.7160    3.9320  -11.0020 O.3   800  SUC800     -0.2149
      9  O3        22.0770    4.4490  -13.3100 O.3   800  SUC800     -0.2174
     10  O4        20.8670    7.0780  -13.2570 O.3   800  SUC800     -0.2176
     11  O5        21.3140    6.3410   -9.6980 O.3   800  SUC800     -0.3256
     12  O6        18.5510    6.7970  -11.1310 O.3   800  SUC800     -0.2176
     13  C1'       25.4360    5.7660   -8.5440 C.3   800  SUC800      0.2406
     14  C2'       24.4630    6.8980   -8.8600 C.3   800  SUC800      0.2516
     15  C3'       25.2280    8.1670   -9.1990 C.3   800  SUC800      0.2381
     16  C4'       24.2150    9.2370   -8.8990 C.3   800  SUC800      0.2167
     17  C5'       23.4870    8.6620   -7.6950 C.3   800  SUC800      0.1835
     18  C6'       22.0020    8.9600   -7.7530 C.3   800  SUC800      0.2142
     19  O1'       24.9240    5.0170   -7.4650 O.3   800  SUC800     -0.2149
     20  O2'       23.6820    7.2580   -7.7280 O.3   800  SUC800     -0.3272
     21  O3'       25.5820    8.2140  -10.5530 O.3   800  SUC800     -0.2150
     22  O4'       24.8290   10.4760   -8.6390 O.3   800  SUC800     -0.2175
     23  O6'       21.4470    8.5610   -6.5280 O.3   800  SUC800     -0.2176
@<TRIPOS>BOND
     1     9     3    1
     2    10     4    1
     3     3     4    1
     4     3     2    1
     5     4     5    1
     6    12     6    1
     7     8     2    1
     8     2     1    1
     9     5     6    1
    10     5    11    1
    11    21    15    1
    12     7     1    1
    13     7    14    1
    14     1    11    1
    15    15    16    1
    16    15    14    1
    17    16    22    1
    18    16    17    1
    19    14    13    1
    20    14    20    1
    21    13    19    1
    22    18    17    1
    23    18    23    1
    24    20    17    1
