@<TRIPOS>MOLECULE
2qqu_NAG_A_1.pdb
 14 14 0 0 0
SMALL
GASTEIGER

@<TRIPOS>ATOM
      1  C1        22.1540   -4.1080   -5.9710 C.3   750  NAG750      0.1665
      2  C2        23.3610   -4.2110   -6.8960 C.3   750  NAG750      0.1576
      3  C3        23.0090   -5.0430   -8.1160 C.3   750  NAG750      0.2069
      4  C4        22.5140   -6.4200   -7.6700 C.3   750  NAG750      0.2134
      5  C5        21.3450   -6.2710   -6.6880 C.3   750  NAG750      0.1809
      6  C6        20.9680   -7.6170   -6.0700 C.3   750  NAG750      0.2141
      7  C7        24.9100   -2.3190   -6.7870 C.2   750  NAG750      0.2420
      8  C8        25.1210   -0.8910   -7.1890 C.3   750  NAG750      0.0964
      9  N2        23.7930   -2.8790   -7.2700 N.am  750  NAG750     -0.2019
     10  O3        24.1200   -5.1480   -8.9790 O.3   750  NAG750     -0.2184
     11  O4        22.0880   -7.1190   -8.8190 O.3   750  NAG750     -0.2176
     12  O5        21.6330   -5.3750   -5.6300 O.3   750  NAG750     -0.3489
     13  O6        21.8840   -8.0020   -5.0680 O.3   750  NAG750     -0.2176
     14  O7        25.7410   -2.8980   -6.0700 O.2   750  NAG750     -0.2733
@<TRIPOS>BOND
     1    10     3    1
     2    11     4    1
     3     3     4    1
     4     3     2    1
     5     4     5    1
     6     9     2    1
     7     9     7   am
     8     8     7    1
     9     2     1    1
    10     7    14    2
    11     5     6    1
    12     5    12    1
    13     6    13    1
    14     1    12    1
