@<TRIPOS>MOLECULE
2qqv_NAG_A_1.pdb
 14 14 0 0 0
SMALL
GASTEIGER

@<TRIPOS>ATOM
      1  C1        45.9860    9.4460    7.0370 C.3   750  NAG750      0.1665
      2  C2        45.4840    8.4280    8.0550 C.3   750  NAG750      0.1576
      3  C3        46.4490    8.3010    9.2250 C.3   750  NAG750      0.2069
      4  C4        47.8980    8.1340    8.7680 C.3   750  NAG750      0.2134
      5  C5        48.2420    9.1950    7.7180 C.3   750  NAG750      0.1809
      6  C6        49.6400    9.0170    7.1360 C.3   750  NAG750      0.2141
      7  C7        43.0490    8.2530    8.1100 C.2   750  NAG750      0.2420
      8  C8        41.7860    9.0080    8.3940 C.3   750  NAG750      0.0964
      9  N2        44.1760    8.8260    8.5350 N.am  750  NAG750     -0.2019
     10  O3        46.0730    7.2060   10.0280 O.3   750  NAG750     -0.2184
     11  O4        48.6930    8.3310    9.9120 O.3   750  NAG750     -0.2176
     12  O5        47.3110    9.1450    6.6570 O.3   750  NAG750     -0.3489
     13  O6        49.6870    7.8490    6.3460 O.3   750  NAG750     -0.2176
     14  O7        43.0050    7.1710    7.5210 O.2   750  NAG750     -0.2733
@<TRIPOS>BOND
     1    13     6    1
     2    12     1    1
     3    12     5    1
     4     1     2    1
     5     6     5    1
     6    14     7    2
     7     5     4    1
     8     2     9    1
     9     2     3    1
    10     7     8    1
    11     7     9   am
    12     4     3    1
    13     4    11    1
    14     3    10    1
