@<TRIPOS>MOLECULE
2qqv_SUC_A_1.pdb
 23 24 0 0 0
SMALL
GASTEIGER

@<TRIPOS>ATOM
      1  C1        37.3800   13.7390   10.7660 C.3   800  SUC800      0.2713
      2  C2        38.4480   13.0590   11.6320 C.3   800  SUC800      0.2406
      3  C3        38.2840   13.3710   13.1250 C.3   800  SUC800      0.2198
      4  C4        38.0170   14.8510   13.3910 C.3   800  SUC800      0.2144
      5  C5        36.9810   15.4330   12.4210 C.3   800  SUC800      0.1835
      6  C6        36.8700   16.9460   12.5750 C.3   800  SUC800      0.2142
      7  O1        36.1170   13.1210   10.9610 O.3   800  SUC800     -0.3033
      8  O2        38.4050   11.6600   11.4350 O.3   800  SUC800     -0.2149
      9  O3        39.4450   12.9830   13.8300 O.3   800  SUC800     -0.2174
     10  O4        37.5710   14.9980   14.7230 O.3   800  SUC800     -0.2176
     11  O5        37.3010   15.1230   11.0710 O.3   800  SUC800     -0.3256
     12  O6        38.0360   17.5690   12.0880 O.3   800  SUC800     -0.2176
     13  C1'       35.7100   11.3760    9.3440 C.3   800  SUC800      0.2406
     14  C2'       35.3540   12.7880    9.8070 C.3   800  SUC800      0.2516
     15  C3'       33.8820   12.8500   10.1790 C.3   800  SUC800      0.2381
     16  C4'       33.4790   14.2630    9.8190 C.3   800  SUC800      0.2167
     17  C5'       34.4080   14.6180    8.6730 C.3   800  SUC800      0.1835
     18  C6'       34.8800   16.0630    8.7660 C.3   800  SUC800      0.2142
     19  O1'       36.7040   11.4260    8.3430 O.3   800  SUC800     -0.2149
     20  O2'       35.5140   13.7370    8.7590 O.3   800  SUC800     -0.3272
     21  O3'       33.6970   12.6030   11.5510 O.3   800  SUC800     -0.2150
     22  O4'       32.1320   14.3260    9.4190 O.3   800  SUC800     -0.2175
     23  O6'       34.9570   16.6170    7.4710 O.3   800  SUC800     -0.2176
@<TRIPOS>BOND
     1    23    18    1
     2    19    13    1
     3    17    20    1
     4    17    18    1
     5    17    16    1
     6    20    14    1
     7    13    14    1
     8    22    16    1
     9    14    15    1
    10    14     7    1
    11    16    15    1
    12    15    21    1
    13     1     7    1
    14     1    11    1
    15     1     2    1
    16    11     5    1
    17     8     2    1
    18     2     3    1
    19    12     6    1
    20     5     6    1
    21     5     4    1
    22     3     4    1
    23     3     9    1
    24     4    10    1
