@<TRIPOS>MOLECULE
2qqv_MAN_A_1.pdb
 11 11 0 0 0
SMALL
GASTEIGER

@<TRIPOS>ATOM
      1  C1        53.1350   -0.6110   14.7080 C.3   753  MAN753      0.1777
      2  C2        53.8580   -1.5150   15.6970 C.3   753  MAN753      0.2141
      3  C3        54.5960   -2.6950   15.0520 C.3   753  MAN753      0.2173
      4  C4        53.8270   -3.3700   13.9040 C.3   753  MAN753      0.2142
      5  C5        52.7860   -2.4840   13.2130 C.3   753  MAN753      0.1810
      6  C6        51.3500   -2.8050   13.6560 C.3   753  MAN753      0.2141
      7  O2        52.9030   -1.9860   16.6230 O.3   753  MAN753     -0.2176
      8  O3        54.8430   -3.6790   16.0420 O.3   753  MAN753     -0.2175
      9  O4        54.7470   -3.8050   12.9290 O.3   753  MAN753     -0.2176
     10  O5        53.1300   -1.1160   13.3820 O.3   753  MAN753     -0.3481
     11  O6        50.4970   -1.6870   13.5110 O.3   753  MAN753     -0.2176
@<TRIPOS>BOND
     1     9     4    1
     2     5    10    1
     3     5     6    1
     4     5     4    1
     5    10     1    1
     6    11     6    1
     7     4     3    1
     8     1     2    1
     9     3     2    1
    10     3     8    1
    11     2     7    1
