@<TRIPOS>MOLECULE
2qqw_SUC_A_1.pdb
 23 24 0 0 0
SMALL
GASTEIGER

@<TRIPOS>ATOM
      1  C1       -16.4350   16.9820   -9.9760 C.3   800  SUC800      0.2713
      2  C2       -15.4440   17.6510  -10.9420 C.3   800  SUC800      0.2406
      3  C3       -15.7160   17.2230  -12.3900 C.3   800  SUC800      0.2198
      4  C4       -15.7750   15.6980  -12.4910 C.3   800  SUC800      0.2144
      5  C5       -16.7630   15.1550  -11.4630 C.3   800  SUC800      0.1835
      6  C6       -16.8620   13.6360  -11.5370 C.3   800  SUC800      0.2142
      7  O1       -17.7580   17.4740  -10.1990 O.3   800  SUC800     -0.3033
      8  O2       -15.5620   19.0480  -10.8260 O.3   800  SUC800     -0.2149
      9  O3       -14.7700   17.7560  -13.2950 O.3   800  SUC800     -0.2174
     10  O4       -16.2020   15.2790  -13.7670 O.3   800  SUC800     -0.2176
     11  O5       -16.4040   15.5740  -10.1490 O.3   800  SUC800     -0.3256
     12  O6       -15.6170   13.0700  -11.8850 O.3   800  SUC800     -0.2176
     13  C1'      -18.2890   19.1510   -8.5420 C.3   800  SUC800      0.2406
     14  C2'      -18.5700   17.7510   -9.0670 C.3   800  SUC800      0.2516
     15  C3'      -20.0250   17.6480   -9.4680 C.3   800  SUC800      0.2381
     16  C4'      -20.3310   16.1920   -9.2860 C.3   800  SUC800      0.2167
     17  C5'      -19.4620   15.8350   -8.0880 C.3   800  SUC800      0.1835
     18  C6'      -18.8890   14.4210   -8.1320 C.3   800  SUC800      0.2142
     19  O1'      -17.2340   19.0720   -7.6090 O.3   800  SUC800     -0.2149
     20  O2'      -18.4000   16.7730   -8.0600 O.3   800  SUC800     -0.3272
     21  O3'      -20.2210   18.0150  -10.8040 O.3   800  SUC800     -0.2150
     22  O4'      -21.7080   16.0530   -9.0480 O.3   800  SUC800     -0.2175
     23  O6'      -18.1790   14.1940   -6.9300 O.3   800  SUC800     -0.2176
@<TRIPOS>BOND
     1    10     4    1
     2     9     3    1
     3     4     3    1
     4     4     5    1
     5     3     2    1
     6    12     6    1
     7     6     5    1
     8     5    11    1
     9     2     8    1
    10     2     1    1
    11    21    15    1
    12     7     1    1
    13     7    14    1
    14    11     1    1
    15    15    16    1
    16    15    14    1
    17    16    22    1
    18    16    17    1
    19    14    13    1
    20    14    20    1
    21    13    19    1
    22    18    17    1
    23    18    23    1
    24    17    20    1
