@<TRIPOS>MOLECULE
2qqw_NAG_A_1.pdb
 14 14 0 0 0
SMALL
GASTEIGER

@<TRIPOS>ATOM
      1  C1        -7.5960   21.2220   -6.5250 C.3   750  NAG750      0.1665
      2  C2        -8.1900   22.3100   -7.3920 C.3   750  NAG750      0.1576
      3  C3        -7.3490   22.4220   -8.6460 C.3   750  NAG750      0.2069
      4  C4        -5.8890   22.6480   -8.2770 C.3   750  NAG750      0.2134
      5  C5        -5.3840   21.6000   -7.2830 C.3   750  NAG750      0.1809
      6  C6        -3.9890   21.9540   -6.7730 C.3   750  NAG750      0.2141
      7  C7       -10.6180   22.7260   -7.3340 C.2   750  NAG750      0.2420
      8  C8       -11.9360   22.1870   -7.8010 C.3   750  NAG750      0.0964
      9  N2        -9.5700   21.9660   -7.6660 N.am  750  NAG750     -0.2019
     10  O3        -7.7730   23.5150   -9.4100 O.3   750  NAG750     -0.2184
     11  O4        -5.1540   22.5960   -9.4730 O.3   750  NAG750     -0.2176
     12  O5        -6.2620   21.5120   -6.1800 O.3   750  NAG750     -0.3489
     13  O6        -4.0650   22.8500   -5.6820 O.3   750  NAG750     -0.2176
     14  O7       -10.5630   23.7960   -6.7120 O.2   750  NAG750     -0.2733
@<TRIPOS>BOND
     1    11     4    1
     2    10     3    1
     3     3     4    1
     4     3     2    1
     5     4     5    1
     6     8     7    1
     7     9     2    1
     8     9     7   am
     9     2     1    1
    10     7    14    2
    11     5     6    1
    12     5    12    1
    13     6    13    1
    14     1    12    1
