@<TRIPOS>MOLECULE
2qqw_MAN_A_1.pdb
 11 11 0 0 0
SMALL
GASTEIGER

@<TRIPOS>ATOM
      1  C1         0.2980   31.4560  -14.4210 C.3   753  MAN753      0.1777
      2  C2         1.3680   32.4970  -14.1370 C.3   753  MAN753      0.2141
      3  C3         1.0850   33.1950  -12.8040 C.3   753  MAN753      0.2173
      4  C4        -0.3990   33.5270  -12.5610 C.3   753  MAN753      0.2142
      5  C5        -1.3800   32.5410  -13.2100 C.3   753  MAN753      0.1810
      6  C6        -2.7840   33.1220  -13.3510 C.3   753  MAN753      0.2141
      7  O2         1.3540   33.4660  -15.1590 O.3   753  MAN753     -0.2176
      8  O3         1.8510   34.3800  -12.7420 O.3   753  MAN753     -0.2175
      9  O4        -0.6580   33.5440  -11.1710 O.3   753  MAN753     -0.2176
     10  O5        -0.9270   32.1400  -14.4900 O.3   753  MAN753     -0.3481
     11  O6        -3.6590   32.0930  -13.7620 O.3   753  MAN753     -0.2176
@<TRIPOS>BOND
     1     7     2    1
     2    10     1    1
     3    10     5    1
     4     1     2    1
     5     2     3    1
     6    11     6    1
     7     6     5    1
     8     5     4    1
     9     3     8    1
    10     3     4    1
    11     4     9    1
