@<TRIPOS>MOLECULE
2qr1_ADP_E_1.pdb
 27 29 0 0 0
SMALL
GASTEIGER

@<TRIPOS>ATOM
      1  PB        32.9020   25.4270   32.2060 P.3   1004  ADP1004     0.5373
      2  O1B       33.3450   24.2600   33.0860 O.3   1004  ADP1004    -0.1143
      3  O2B       32.4820   26.6670   32.9730 O.3   1004  ADP1004    -0.1143
      4  O3B       33.8340   25.6870   31.0390 O.2   1004  ADP1004    -0.2221
      5  PA        31.2430   23.6040   30.8660 P.3   1004  ADP1004     0.2231
      6  O1A       29.8280   23.5190   30.3420 O.3   1004  ADP1004    -0.4370
      7  O2A       32.4180   23.3790   29.9320 O.2   1004  ADP1004    -0.5169
      8  O3A       31.4780   25.0380   31.5500 O.3   1004  ADP1004    -0.2261
      9  O5'       31.3850   22.6050   32.1330 O.3   1004  ADP1004    -0.3111
     10  C5'       31.0110   21.2290   32.1210 C.3   1004  ADP1004     0.1813
     11  C4'       32.2170   20.3660   32.4640 C.3   1004  ADP1004     0.1821
     12  O4'       32.1650   19.1750   31.6850 O.3   1004  ADP1004    -0.3135
     13  C3'       33.5360   21.0360   32.1190 C.3   1004  ADP1004     0.2184
     14  O3'       34.4910   20.6760   33.1200 O.3   1004  ADP1004    -0.2174
     15  C2'       33.9180   20.4870   30.7570 C.3   1004  ADP1004     0.2570
     16  O2'       35.3080   20.1850   30.6320 O.3   1004  ADP1004    -0.2130
     17  C1'       33.1200   19.2060   30.6220 C.3   1004  ADP1004     0.3186
     18  N9        32.4540   19.1840   29.2960 N.pl3 1004  ADP1004    -0.1439
     19  C8        31.5710   20.0910   28.8310 C.3   1004  ADP1004     0.3377
     20  N7        31.1540   19.7810   27.5840 N.2   1004  ADP1004    -0.2095
     21  C5        31.7880   18.6490   27.2320 C.2   1004  ADP1004     0.2526
     22  C6        31.8020   17.7760   26.0350 C.2   1004  ADP1004     0.4393
     23  N6        31.0280   18.0900   24.9610 N.pl3 1004  ADP1004     0.2180
     24  N1        32.6090   16.6780   26.0690 N.2   1004  ADP1004     0.0021
     25  C2        33.3760   16.3800   27.1440 C.3   1004  ADP1004     0.5254
     26  N3        33.4090   17.1280   28.2660 N.2   1004  ADP1004    -0.0055
     27  C4        32.6470   18.2540   28.3610 C.2   1004  ADP1004     0.3518
@<TRIPOS>BOND
     1    23    22    1
     2    22    24    2
     3    22    21    1
     4    24    25    1
     5    25    26    1
     6    21    20    2
     7    21    27    1
     8    20    19    1
     9    26    27    2
    10    27    18    1
    11    19    18    1
    12    18    17    1
    13     7     5    2
    14     6     5    1
    15    17    15    1
    16    17    12    1
    17    16    15    1
    18    15    13    1
    19     5     8    1
    20     5     9    1
    21     4     1    2
    22     8     1    1
    23    12    11    1
    24    13    11    1
    25    13    14    1
    26    10     9    1
    27    10    11    1
    28     1     3    1
    29     1     2    1
