@<TRIPOS>MOLECULE
2qr2_VK3_B_1.pdb
 13 14 0 0 0
SMALL
GASTEIGER

@<TRIPOS>ATOM
      1  C1K       23.2330   15.3950    4.8460 C.2   235  VK3235      0.1955
      2  O1K       22.0700   15.8160    4.9110 O.2   235  VK3235     -0.2866
      3  C2K       23.6680   14.5020    5.9070 C.2   235  VK3235      0.0409
      4  C3K       24.9420   14.0230    5.9100 C.2   235  VK3235      0.0202
      5  C4K       25.8830   14.3340    4.8370 C.2   235  VK3235      0.1918
      6  O4K       26.9990   13.8240    4.9740 O.2   235  VK3235     -0.2869
      7  C5K       25.4070   15.1190    3.7460 C.ar  235  VK3235      0.0417
      8  C6K       26.2320   15.3250    2.6820 C.ar  235  VK3235      0.0033
      9  C7K       25.7870   16.0400    1.6130 C.ar  235  VK3235      0.0001
     10  C8K       24.5150   16.5340    1.6000 C.ar  235  VK3235      0.0001
     11  C9K       23.6720   16.3270    2.6510 C.ar  235  VK3235      0.0033
     12  C10       24.1060   15.6150    3.7300 C.ar  235  VK3235      0.0420
     13  C11       25.3890   13.1330    7.0780 C.3   235  VK3235      0.0345
@<TRIPOS>BOND
     1    10     9   ar
     2    10    11   ar
     3     9     8   ar
     4    11    12   ar
     5     8     7   ar
     6    12     7   ar
     7    12     1    1
     8     7     5    1
     9     5     6    2
    10     5     4    1
    11     1     2    2
    12     1     3    1
    13     3     4    2
    14     4    13    1
