@<TRIPOS>MOLECULE
2qr9_HZ3_A_1.pdb
 29 32 0 0 0
SMALL
GASTEIGER

@<TRIPOS>ATOM
      1  CAK        2.7320    0.3330   -7.1590 C.ar    1  HZ31        0.0030
      2  CAG        2.3260   -0.6330   -8.0470 C.ar    1  HZ31        0.0420
      3  CAV        1.2980   -0.3500   -8.9260 C.ar    1  HZ31        0.1957
      4  OAC        0.9090   -1.2990   -9.8110 O.3     1  HZ31       -0.2866
      5  CAH        0.6760    0.8890   -8.9010 C.ar    1  HZ31        0.0420
      6  CAL        1.0660    1.8660   -8.0100 C.ar    1  HZ31        0.0030
      7  CAX        2.1070    1.5710   -7.1570 C.ar    1  HZ31       -0.0014
      8  CAR        2.5010    2.4800   -6.2160 C.2     1  HZ31        0.0072
      9  CBB        1.6560    2.8230   -4.9880 C.3     1  HZ31        0.1607
     10  OAQ        2.7920    2.8770   -4.0880 O.3     1  HZ31       -0.3415
     11  CAT        1.2350    4.2600   -4.8340 C.2     1  HZ31        0.0445
     12  CAZ       -0.2390    4.7210   -4.7530 C.3     1  HZ31        0.2908
     13  OAO       -0.5600    6.1210   -5.1240 O.3     1  HZ31       -0.3227
     14  CAA       -1.9480    6.3190   -4.8690 C.3     1  HZ31        0.1773
     15  OAE       -1.0200    3.6540   -5.3900 O.3     1  HZ31       -0.1849
     16  CAU        2.4390    4.9570   -4.7180 C.2     1  HZ31        0.0445
     17  CBA        2.6420    6.4510   -4.5030 C.3     1  HZ31        0.2908
     18  OAP        3.9920    6.8570   -4.9160 O.3     1  HZ31       -0.3227
     19  CAB        5.0500    5.8570   -4.9960 C.3     1  HZ31        0.1773
     20  OAF        1.6180    7.2120   -5.2100 O.3     1  HZ31       -0.1849
     21  CBC        3.5470    3.9090   -4.7850 C.3     1  HZ31        0.1607
     22  CAS        3.6910    3.1730   -6.0990 C.2     1  HZ31        0.0072
     23  CAY        4.8330    3.0430   -6.8610 C.ar    1  HZ31       -0.0014
     24  CAM        4.8800    2.7620   -8.2320 C.ar    1  HZ31        0.0030
     25  CAI        6.1260    2.5770   -8.8490 C.ar    1  HZ31        0.0420
     26  CAW        7.2920    2.6270   -8.0790 C.ar    1  HZ31        0.1957
     27  OAD        8.5280    2.4600   -8.6190 O.3     1  HZ31       -0.2866
     28  CAJ        7.2160    2.8780   -6.7150 C.ar    1  HZ31        0.0420
     29  CAN        6.0010    3.0570   -6.1140 C.ar    1  HZ31        0.0030
@<TRIPOS>BOND
     1     4     3    1
     2     3     5   ar
     3     3     2   ar
     4     5     6   ar
     5    25    24   ar
     6    25    26   ar
     7    27    26    1
     8    24    23   ar
     9    26    28   ar
    10     2     1   ar
    11     6     7   ar
    12     1     7   ar
    13     7     8    1
    14    23    29   ar
    15    23    22    1
    16    28    29   ar
    17     8    22    2
    18     8     9    1
    19    22    21    1
    20    15    12    1
    21    20    17    1
    22    13    14    1
    23    13    12    1
    24    19    18    1
    25     9    11    1
    26     9    10    1
    27    18    17    1
    28    11    12    1
    29    11    16    2
    30    21    16    1
    31    21    10    1
    32    16    17    1
