@<TRIPOS>MOLECULE
2qrb_HEM_A_1.pdb
 43 50 0 0 0
SMALL
GASTEIGER

@<TRIPOS>ATOM
      1  CHA        8.6630    0.1320   29.1660 C.2   619  HEM619      0.0000
      2  CHB        9.0040    4.8610   29.0790 C.2   619  HEM619      0.0000
      3  CHC       11.0540    4.5300   24.6520 C.2   619  HEM619      0.0000
      4  CHD       10.8420   -0.2680   24.7230 C.2   619  HEM619      0.0000
      5  C1A        8.5900    1.4020   29.5780 C.2   619  HEM619      0.0000
      6  C2A        8.0690    1.8140   30.8520 C.2   619  HEM619      0.0000
      7  C3A        8.1510    3.1750   30.8480 C.2   619  HEM619      0.0000
      8  C4A        8.7240    3.5820   29.5530 C.2   619  HEM619      0.0000
      9  CMA        7.7090    4.0790   32.0120 C.3   619  HEM619      0.0000
     10  CAA        7.5710    0.8870   31.9880 C.2   619  HEM619      0.0000
     11  CBA        8.6910    0.2620   32.9120 C.2   619  HEM619      0.0000
     12  CGA        8.2680   -0.5680   33.9410 C.2   619  HEM619      0.0000
     13  O1A        7.4770   -0.1000   34.8400 O.co2 619  HEM619      0.0000
     14  O2A        8.6730   -1.7460   33.9830 O.co2 619  HEM619      0.0000
     15  C1B        9.5790    5.2170   27.8370 C.ar  619  HEM619      0.0000
     16  C2B        9.8820    6.5980   27.3640 C.ar  619  HEM619      0.0000
     17  C3B       10.4380    6.4750   26.1020 C.ar  619  HEM619      0.0000
     18  C4B       10.5160    5.0340   25.8280 C.ar  619  HEM619      0.0000
     19  CMB        9.6100    7.9230   28.1090 C.3   619  HEM619      0.0000
     20  CAB       10.9640    7.5960   25.1330 C.2   619  HEM619      0.0000
     21  CBB       10.9000    8.9400   25.4040 C.2   619  HEM619      0.0000
     22  C1C       11.1900    3.2410   24.2810 C.2   619  HEM619      0.0000
     23  C2C       11.7920    2.8160   23.0670 C.2   619  HEM619      0.0000
     24  C3C       11.7430    1.3920   23.0530 C.2   619  HEM619      0.0000
     25  C4C       11.1100    0.9970   24.2840 C.2   619  HEM619      0.0000
     26  CMC       12.3800    3.8190   21.9800 C.3   619  HEM619      0.0000
     27  CAC       12.2740    0.4120   21.9400 C.3   619  HEM619      0.0000
     28  CBC       12.9100    0.8340   20.7730 C.3   619  HEM619      0.0000
     29  C1D       10.2060   -0.5530   25.9520 C.ar  619  HEM619      0.0000
     30  C2D        9.8640   -1.9440   26.3540 C.ar  619  HEM619      0.0000
     31  C3D        9.1520   -1.8260   27.7090 C.ar  619  HEM619      0.0000
     32  C4D        9.1850   -0.3580   28.0100 C.ar  619  HEM619      0.0000
     33  CMD       10.1380   -3.2070   25.5910 C.3   619  HEM619      0.0000
     34  CAD        8.5480   -3.0120   28.5750 C.3   619  HEM619      0.0000
     35  CBD        7.0380   -3.1820   28.0960 C.3   619  HEM619      0.0000
     36  CGD        6.1750   -4.2540   28.7490 C.2   619  HEM619      0.0000
     37  O1D        6.0990   -5.2820   28.0590 O.co2 619  HEM619      0.0000
     38  O2D        5.5700   -4.1370   29.8520 O.co2 619  HEM619      0.0000
     39  NA         8.9750    2.4800   28.8150 N.2   619  HEM619      0.0000
     40  NB         9.9790    4.2850   26.8660 N.ar  619  HEM619      0.0000
     41  NC        10.7790    2.1510   25.0160 N.2   619  HEM619      0.0000
     42  ND         9.7700    0.3560   26.9780 N.ar  619  HEM619      0.0000
     43 FE          9.9020    2.2580   27.0300 Fe    619  HEM619      0.0000
@<TRIPOS>BOND
     1    28    27    1
     2    27    24    1
     3    26    23    1
     4    24    23    2
     5    24    25    1
     6    23    22    1
     7    22     3    2
     8    22    41    1
     9    25     4    1
    10    25    41    2
    11     3    18    1
    12     4    29    2
    13    41    43    1
    14    20    21    2
    15    20    17    1
    16    33    30    1
    17    18    17   ar
    18    18    40   ar
    19    29    30   ar
    20    29    42   ar
    21    17    16   ar
    22    30    31   ar
    23    40    43    1
    24    40    15   ar
    25    42    43    1
    26    42    32   ar
    27    43    39    1
    28    16    15   ar
    29    16    19    1
    30    31    32   ar
    31    31    34    1
    32    15     2    1
    33    32     1    2
    34    37    36   ar
    35    35    34    1
    36    35    36    1
    37    36    38   ar
    38    39     8    1
    39    39     5    2
    40     2     8    2
    41     1     5    1
    42     8     7    1
    43     5     6    1
    44     7     6    2
    45     7     9    1
    46     6    10    1
    47    10    11    2
    48    11    12    1
    49    12    14   ar
    50    12    13   ar
