@<TRIPOS>MOLECULE
2qrc_AMP_G_1.pdb
 23 25 0 0 0
SMALL
GASTEIGER

@<TRIPOS>ATOM
      1  P         -1.9210  -20.0460   27.5560 P.3   1001  AMP1001     0.5327
      2  O1P       -1.4820  -19.5750   28.9480 O.3   1001  AMP1001    -0.1145
      3  O2P       -1.0830  -19.6280   26.3660 O.2   1001  AMP1001    -0.2224
      4  O3P       -3.3910  -19.8930   27.2730 O.3   1001  AMP1001    -0.1145
      5  O5'       -1.5930  -21.6020   27.4660 O.3   1001  AMP1001    -0.2675
      6  C5'       -1.4260  -22.2400   26.2070 C.3   1001  AMP1001     0.1860
      7  C4'       -1.6260  -23.7590   26.3530 C.3   1001  AMP1001     0.1823
      8  O4'       -0.4560  -24.3750   26.8670 O.3   1001  AMP1001    -0.3135
      9  C3'       -2.7110  -24.1570   27.3390 C.3   1001  AMP1001     0.2184
     10  O3'       -3.2100  -25.4140   26.9000 O.3   1001  AMP1001    -0.2174
     11  C2'       -2.0190  -24.4000   28.6590 C.3   1001  AMP1001     0.2570
     12  O2'       -2.6280  -25.4580   29.4030 O.3   1001  AMP1001    -0.2130
     13  C1'       -0.6300  -24.8170   28.2380 C.3   1001  AMP1001     0.3186
     14  N9         0.3820  -24.2430   29.1790 N.pl3 1001  AMP1001    -0.1439
     15  C8         0.3220  -23.0270   29.7500 C.3   1001  AMP1001     0.3377
     16  N7         1.4050  -22.8080   30.5400 N.2   1001  AMP1001    -0.2095
     17  C5         2.1820  -23.9020   30.5000 C.2   1001  AMP1001     0.2526
     18  C6         3.4610  -24.3270   31.1190 C.2   1001  AMP1001     0.4393
     19  N6         4.1440  -23.5200   31.9710 N.pl3 1001  AMP1001     0.2180
     20  N1         3.9220  -25.5540   30.7990 N.2   1001  AMP1001     0.0021
     21  C2         3.2630  -26.3730   29.9670 C.3   1001  AMP1001     0.5254
     22  N3         2.0970  -26.0510   29.3850 N.2   1001  AMP1001    -0.0055
     23  C4         1.5080  -24.8470   29.6020 C.2   1001  AMP1001     0.3518
@<TRIPOS>BOND
     1     6     7    1
     2     6     5    1
     3     7     8    1
     4     7     9    1
     5     3     1    2
     6     8    13    1
     7    10     9    1
     8     4     1    1
     9     9    11    1
    10     5     1    1
    11     1     2    1
    12    13    11    1
    13    13    14    1
    14    11    12    1
    15    14    23    1
    16    14    15    1
    17    22    23    2
    18    22    21    1
    19    23    17    1
    20    15    16    1
    21    21    20    1
    22    17    16    2
    23    17    18    1
    24    20    18    2
    25    18    19    1
