@<TRIPOS>MOLECULE
2qrd_ATP_E_1.pdb
 31 33 0 0 0
SMALL
GASTEIGER

@<TRIPOS>ATOM
      1  PG        25.4000   36.9100   32.0310 P.3   1002  ATP1002     0.5373
      2  O1G       25.2380   37.7720   33.2480 O.3   1002  ATP1002    -0.1143
      3  O2G       26.0660   35.5850   32.2570 O.3   1002  ATP1002    -0.1143
      4  O3G       24.1580   36.8270   31.1710 O.2   1002  ATP1002    -0.2221
      5  PB        26.3550   37.5360   29.5300 P.3   1002  ATP1002     0.2277
      6  O1B       25.7640   36.1810   29.2090 O.3   1002  ATP1002    -0.4368
      7  O2B       25.6640   38.7950   29.0680 O.2   1002  ATP1002    -0.5168
      8  O3B       26.4720   37.6690   31.1300 O.3   1002  ATP1002    -0.2258
      9  PA        28.2790   38.4470   27.8170 P.3   1002  ATP1002     0.2189
     10  O1A       27.9720   37.7290   26.5150 O.2   1002  ATP1002    -0.5170
     11  O2A       29.6610   38.9870   28.0920 O.3   1002  ATP1002    -0.4371
     12  O3A       27.8790   37.5160   29.0490 O.3   1002  ATP1002    -0.2700
     13  O5'       27.2230   39.6680   27.9760 O.3   1002  ATP1002    -0.3112
     14  C5'       27.3650   40.8920   27.2580 C.3   1002  ATP1002     0.1813
     15  C4'       26.7970   42.0430   28.0780 C.3   1002  ATP1002     0.1821
     16  O4'       25.4860   41.7330   28.5630 O.3   1002  ATP1002    -0.3135
     17  C3'       27.6560   42.3720   29.2940 C.3   1002  ATP1002     0.2184
     18  O3'       28.0210   43.7560   29.2480 O.3   1002  ATP1002    -0.2174
     19  C2'       26.7430   42.1020   30.4690 C.3   1002  ATP1002     0.2570
     20  O2'       26.9730   42.9660   31.5790 O.3   1002  ATP1002    -0.2130
     21  C1'       25.3820   42.3440   29.8460 C.3   1002  ATP1002     0.3186
     22  N9        24.2810   41.8010   30.6820 N.pl3 1002  ATP1002    -0.1439
     23  C8        24.2300   40.5810   31.2600 C.3   1002  ATP1002     0.3377
     24  N7        23.0830   40.4340   31.9670 N.2   1002  ATP1002    -0.2095
     25  C5        22.3850   41.5770   31.8500 C.2   1002  ATP1002     0.2526
     26  C6        21.0900   42.0950   32.3420 C.2   1002  ATP1002     0.4393
     27  N6        20.2950   41.3300   33.1130 N.pl3 1002  ATP1002     0.2180
     28  N1        20.7260   43.3530   31.9830 N.2   1002  ATP1002     0.0021
     29  C2        21.5090   44.1300   31.2030 C.3   1002  ATP1002     0.5254
     30  N3        22.6970   43.7180   30.7200 N.2   1002  ATP1002    -0.0055
     31  C4        23.1780   42.4790   31.0020 C.2   1002  ATP1002     0.3518
@<TRIPOS>BOND
     1    10     9    2
     2    14    13    1
     3    14    15    1
     4     9    13    1
     5     9    11    1
     6     9    12    1
     7    15    16    1
     8    15    17    1
     9    16    21    1
    10    12     5    1
    11     7     5    2
    12     6     5    1
    13    18    17    1
    14    17    19    1
    15     5     8    1
    16    21    19    1
    17    21    22    1
    18    19    20    1
    19    22    31    1
    20    22    23    1
    21    30    31    2
    22    30    29    1
    23    31    25    1
    24     8     1    1
    25     4     1    2
    26    29    28    1
    27    23    24    1
    28    25    24    2
    29    25    26    1
    30    28    26    2
    31     1     3    1
    32     1     2    1
    33    26    27    1
