@<TRIPOS>MOLECULE
2qrd_ADP_E_1.pdb
 27 29 0 0 0
SMALL
GASTEIGER

@<TRIPOS>ATOM
      1  PB        32.7070   25.5510   32.1050 P.3   1004  ADP1004     0.5373
      2  O1B       32.9250   24.6830   33.3280 O.3   1004  ADP1004    -0.1143
      3  O2B       31.8150   26.7310   32.3120 O.3   1004  ADP1004    -0.1143
      4  O3B       33.9670   25.8040   31.3070 O.2   1004  ADP1004    -0.2221
      5  PA        30.5410   23.8250   31.1640 P.3   1004  ADP1004     0.2231
      6  O1A       29.6660   24.4910   32.1810 O.3   1004  ADP1004    -0.4370
      7  O2A       29.9230   23.6740   29.8060 O.2   1004  ADP1004    -0.5169
      8  O3A       31.9590   24.5900   31.0200 O.3   1004  ADP1004    -0.2261
      9  O5'       31.0430   22.3530   31.5710 O.3   1004  ADP1004    -0.3111
     10  C5'       31.2860   21.9070   32.8940 C.3   1004  ADP1004     0.1813
     11  C4'       32.1230   20.6320   32.8140 C.3   1004  ADP1004     0.1821
     12  O4'       31.5890   19.7030   31.8560 O.3   1004  ADP1004    -0.3135
     13  C3'       33.5500   20.9200   32.4060 C.3   1004  ADP1004     0.2184
     14  O3'       34.3530   20.0410   33.1850 O.3   1004  ADP1004    -0.2174
     15  C2'       33.6080   20.4600   30.9500 C.3   1004  ADP1004     0.2570
     16  O2'       34.9020   20.0100   30.5080 O.3   1004  ADP1004    -0.2130
     17  C1'       32.5450   19.3690   30.8560 C.3   1004  ADP1004     0.3186
     18  N9        31.9440   19.3250   29.4950 N.pl3 1004  ADP1004    -0.1439
     19  C8        31.0910   20.2200   28.9500 C.3   1004  ADP1004     0.3377
     20  N7        30.7540   19.8740   27.6990 N.2   1004  ADP1004    -0.2095
     21  C5        31.4080   18.7240   27.4270 C.2   1004  ADP1004     0.2526
     22  C6        31.4880   17.8190   26.2780 C.2   1004  ADP1004     0.4393
     23  N6        30.7660   18.1080   25.1650 N.pl3 1004  ADP1004     0.2180
     24  N1        32.3000   16.7310   26.3750 N.2   1004  ADP1004     0.0021
     25  C2        33.0000   16.4450   27.4930 C.3   1004  ADP1004     0.5254
     26  N3        32.9580   17.2310   28.5810 N.2   1004  ADP1004    -0.0055
     27  C4        32.1940   18.3610   28.5920 C.2   1004  ADP1004     0.3518
@<TRIPOS>BOND
     1    23    22    1
     2    22    24    2
     3    22    21    1
     4    24    25    1
     5    21    20    2
     6    21    27    1
     7    25    26    1
     8    20    19    1
     9    26    27    2
    10    27    18    1
    11    19    18    1
    12    18    17    1
    13     7     5    2
    14    16    15    1
    15    17    15    1
    16    17    12    1
    17    15    13    1
    18     8     5    1
    19     8     1    1
    20     5     9    1
    21     5     6    1
    22     4     1    2
    23     9    10    1
    24    12    11    1
    25     1     3    1
    26     1     2    1
    27    13    11    1
    28    13    14    1
    29    11    10    1
