@<TRIPOS>MOLECULE
2qre_AMZ_E_1.pdb
 22 23 0 0 0
SMALL
GASTEIGER

@<TRIPOS>ATOM
      1  O5        21.3780   43.0960   32.9030 O.2   1002  AMZ1002    -0.2653
      2  C6        21.4330   41.9930   32.4180 C.2   1002  AMZ1002     0.3002
      3  N2        20.3830   41.1880   32.4450 N.am  1002  AMZ1002    -0.0826
      4  C3A       22.7080   41.5340   31.7910 C.2   1002  AMZ1002     0.1445
      5  C7A       23.5350   42.3350   31.0360 C.3   1002  AMZ1002     0.1990
      6  N3        23.2670   43.6540   30.7740 N.3   1002  AMZ1002    -0.1080
      7  N1        23.3230   40.3330   31.8120 N.2   1002  AMZ1002    -0.2490
      8  C5        24.4690   40.4220   31.0770 C.3   1002  AMZ1002     0.2039
      9  N         24.6040   41.6630   30.5960 N.3   1002  AMZ1002    -0.2080
     10  C1        25.7210   42.1530   29.7580 C.3   1002  AMZ1002     0.2123
     11  C2        27.0830   41.8640   30.3880 C.3   1002  AMZ1002     0.2272
     12  C3        27.9760   41.5770   29.2090 C.3   1002  AMZ1002     0.2155
     13  O2        28.6980   42.7480   28.8470 O.3   1002  AMZ1002    -0.2176
     14  O1        27.6110   42.9750   31.1130 O.3   1002  AMZ1002    -0.2161
     15  O         25.6880   41.4710   28.5070 O.3   1002  AMZ1002    -0.3353
     16  C         27.0320   41.2510   28.0640 C.3   1002  AMZ1002     0.1798
     17  C4        27.2540   39.8210   27.5830 C.3   1002  AMZ1002     0.1859
     18  O3        27.6860   38.9770   28.6480 O.3   1002  AMZ1002    -0.2675
     19  P         27.0150   37.5180   28.7910 P.3   1002  AMZ1002     0.5327
     20  OP1       26.1280   37.5660   30.0250 O.3   1002  AMZ1002    -0.1145
     21  O4        26.2870   37.3530   27.4740 O.2   1002  AMZ1002    -0.2224
     22  OP2       28.2170   36.6120   28.9290 O.3   1002  AMZ1002    -0.1145
@<TRIPOS>BOND
     1    21    19    2
     2    17    16    1
     3    17    18    1
     4    16    15    1
     5    16    12    1
     6    15    10    1
     7    18    19    1
     8    19    22    1
     9    19    20    1
    10    13    12    1
    11    12    11    1
    12    10    11    1
    13    10     9    1
    14    11    14    1
    15     9     5    1
    16     9     8    1
    17     6     5    1
    18     5     4    1
    19     8     7    1
    20     4     7    2
    21     4     2    1
    22     2     3   am
    23     2     1    2
