@<TRIPOS>MOLECULE
2qrg_M07_A_1.pdb
 23 25 0 0 0
SMALL
GASTEIGER

@<TRIPOS>ATOM
      1  C15       37.2640   26.6140   35.0690 C.3   998  M07998      0.2525
      2  O8        37.9810   26.0510   33.9560 O.3   998  M07998     -0.4714
      3  C12       37.1670   25.5740   32.9600 C.ar  998  M07998      0.1387
      4  C11       37.7550   25.0240   31.8220 C.ar  998  M07998      0.0369
      5  C10       36.9620   24.5260   30.7830 C.ar  998  M07998      0.0044
      6  C13       35.7670   25.6230   33.0530 C.ar  998  M07998      0.0369
      7  C14       34.9750   25.1210   32.0150 C.ar  998  M07998      0.0044
      8  C9        35.5710   24.5660   30.8780 C.ar  998  M07998      0.0171
      9  C8        34.7850   24.0860   29.8200 C.2   998  M07998      0.1034
     10  C7        35.2840   23.3430   28.5820 C.3   998  M07998      0.1240
     11  N1        33.4700   24.2530   29.6950 N.2   998  M07998     -0.0846
     12  O7        32.9520   23.6970   28.4860 O.2   998  M07998     -0.3538
     13  C1        33.9930   22.9180   27.8760 C.3   998  M07998      0.2912
     14  O5        33.7750   21.5110   28.1170 O.3   998  M07998     -0.3182
     15  C5        32.5500   20.9950   27.5300 C.3   998  M07998      0.1844
     16  C6        32.4080   19.5330   27.9740 C.3   998  M07998      0.2142
     17  O6        33.4000   18.7350   27.3090 O.3   998  M07998     -0.2176
     18  C4        32.5900   21.1640   25.9950 C.3   998  M07998      0.2145
     19  O4        31.3630   20.6960   25.4160 O.3   998  M07998     -0.2176
     20  C3        32.8400   22.6280   25.6070 C.3   998  M07998      0.2210
     21  O3        33.0610   22.7310   24.1940 O.3   998  M07998     -0.2173
     22  C2        34.0610   23.1980   26.3570 C.3   998  M07998      0.2505
     23  O2        34.1640   24.6070   26.1110 O.3   998  M07998     -0.2136
@<TRIPOS>BOND
     1    21    20    1
     2    19    18    1
     3    20    18    1
     4    20    22    1
     5    18    15    1
     6    23    22    1
     7    22    13    1
     8    17    16    1
     9    15    16    1
    10    15    14    1
    11    13    14    1
    12    13    12    1
    13    13    10    1
    14    12    11    1
    15    10     9    1
    16    11     9    2
    17     9     8    1
    18     5     8   ar
    19     5     4   ar
    20     8     7   ar
    21     4     3   ar
    22     7     6   ar
    23     3     6   ar
    24     3     2    1
    25     2     1    1
