@<TRIPOS>MOLECULE
2qrh_M08_A_1.pdb
 21 23 0 0 0
SMALL
GASTEIGER

@<TRIPOS>ATOM
      1  C10       36.8630   24.4410   30.8680 C.ar  998  M08998      0.0013
      2  C11       37.6340   24.8740   31.9530 C.ar  998  M08998      0.0000
      3  C12       37.0060   25.3460   33.1030 C.ar  998  M08998      0.0000
      4  C13       35.6120   25.3910   33.1770 C.ar  998  M08998      0.0000
      5  C14       34.8420   24.9550   32.0950 C.ar  998  M08998      0.0013
      6  C9        35.4680   24.4780   30.9410 C.ar  998  M08998      0.0169
      7  C8        34.7020   24.0540   29.8520 C.2   998  M08998      0.1034
      8  C7        35.2310   23.3450   28.6120 C.3   998  M08998      0.1240
      9  N1        33.3890   24.2240   29.7090 N.2   998  M08998     -0.0846
     10  O7        32.9030   23.7020   28.4730 O.2   998  M08998     -0.3538
     11  C1        33.9570   22.9260   27.8830 C.3   998  M08998      0.2912
     12  O5        33.7250   21.5120   28.1200 O.3   998  M08998     -0.3182
     13  C5        32.4970   21.0230   27.5240 C.3   998  M08998      0.1844
     14  C6        32.3190   19.5650   27.9670 C.3   998  M08998      0.2142
     15  O6        33.3060   18.7600   27.3130 O.3   998  M08998     -0.2176
     16  C4        32.5900   21.1960   25.9930 C.3   998  M08998      0.2145
     17  O4        31.3940   20.7240   25.3640 O.3   998  M08998     -0.2176
     18  C3        32.8320   22.6630   25.6110 C.3   998  M08998      0.2210
     19  O3        33.0330   22.7460   24.1940 O.3   998  M08998     -0.2173
     20  C2        34.0550   23.2250   26.3670 C.3   998  M08998      0.2505
     21  O2        34.1880   24.6390   26.1340 O.3   998  M08998     -0.2136
@<TRIPOS>BOND
     1    19    18    1
     2    17    16    1
     3    18    16    1
     4    18    20    1
     5    16    13    1
     6    21    20    1
     7    20    11    1
     8    15    14    1
     9    13    14    1
    10    13    12    1
    11    11    12    1
    12    11    10    1
    13    11     8    1
    14    10     9    1
    15     8     7    1
    16     9     7    2
    17     7     6    1
    18     1     6   ar
    19     1     2   ar
    20     6     5   ar
    21     2     3   ar
    22     5     4   ar
    23     3     4   ar
