@<TRIPOS>MOLECULE
2qrk_AMP_A_1.pdb
 23 25 0 0 0
SMALL
GASTEIGER

@<TRIPOS>ATOM
      1  P         29.8420    4.0540    6.9800 P.3   500  AMP500      0.5327
      2  O1P       29.9870    5.4360    6.3680 O.3   500  AMP500     -0.1145
      3  O2P       30.0090    2.9770    5.9210 O.2   500  AMP500     -0.2224
      4  O3P       28.6270    3.8520    7.8920 O.3   500  AMP500     -0.1145
      5  O5'       31.1640    3.9620    7.8720 O.3   500  AMP500     -0.2675
      6  C5'       31.5930    2.7450    8.4380 C.3   500  AMP500      0.1860
      7  C4'       32.4570    3.1390    9.6170 C.3   500  AMP500      0.1823
      8  O4'       32.7240    1.9210   10.2950 O.3   500  AMP500     -0.3135
      9  C3'       33.7850    3.7790    9.2270 C.3   500  AMP500      0.2184
     10  O3'       34.1090    4.8530   10.1280 O.3   500  AMP500     -0.2174
     11  C2'       34.7560    2.6210    9.4080 C.3   500  AMP500      0.2570
     12  O2'       36.1070    3.0170    9.6900 O.3   500  AMP500     -0.2130
     13  C1'       34.1100    1.8940   10.5770 C.3   500  AMP500      0.3186
     14  N9        34.5730    0.4950   10.6840 N.pl3 500  AMP500     -0.1439
     15  C8        34.8010   -0.3670    9.6580 C.3   500  AMP500      0.3377
     16  N7        35.2330   -1.5620   10.1430 N.2   500  AMP500     -0.2095
     17  C5        35.2760   -1.4480   11.4970 C.2   500  AMP500      0.2526
     18  C6        35.6520   -2.3270   12.6220 C.2   500  AMP500      0.4393
     19  N6        36.0800   -3.5960   12.3500 N.pl3 500  AMP500      0.2180
     20  N1        35.5690   -1.8190   13.8850 N.2   500  AMP500      0.0021
     21  C2        35.1600   -0.5480   14.1470 C.3   500  AMP500      0.5254
     22  N3        34.8010    0.3120   13.1580 N.2   500  AMP500     -0.0055
     23  C4        34.8470   -0.0830   11.8530 C.2   500  AMP500      0.3518
@<TRIPOS>BOND
     1     3     1    2
     2     2     1    1
     3     1     5    1
     4     1     4    1
     5     5     6    1
     6     6     7    1
     7     9    11    1
     8     9     7    1
     9     9    10    1
    10    11    12    1
    11    11    13    1
    12     7     8    1
    13    15    16    1
    14    15    14    1
    15    16    17    2
    16     8    13    1
    17    13    14    1
    18    14    23    1
    19    17    23    1
    20    17    18    1
    21    23    22    2
    22    19    18    1
    23    18    20    2
    24    22    21    1
    25    20    21    1
