@<TRIPOS>MOLECULE
2qrl_OGA_A_1.pdb
 10 9 0 0 0
SMALL
GASTEIGER

@<TRIPOS>ATOM
      1  C1        44.4200   54.5490   16.2100 C.2   500  OGA500      0.4419
      2  C2        45.1230   53.8940   17.3170 C.2   500  OGA500      0.3455
      3  C4        46.2560   54.3270   19.4840 C.3   500  OGA500      0.2290
      4  C5        46.6180   55.5610   20.2870 C.2   500  OGA500      0.3866
      5  O1        44.1960   55.7740   16.3160 O.co2 500  OGA500     -0.2354
      6  O2        44.0210   53.8850   15.2300 O.co2 500  OGA500     -0.2354
      7  O2'       45.2590   52.6740   17.3840 O.2   500  OGA500     -0.2611
      8  O3        47.0710   55.3280   21.4390 O.co2 500  OGA500     -0.2437
      9  N1        45.5520   54.7050   18.2640 N.am  500  OGA500     -0.1838
     10  O4        46.4710   56.7320   19.8030 O.co2 500  OGA500     -0.2437
@<TRIPOS>BOND
     1     6     1   ar
     2     1     5   ar
     3     1     2    1
     4     2     7    2
     5     2     9   am
     6     9     3    1
     7     3     4    1
     8    10     4   ar
     9     4     8   ar
