@<TRIPOS>MOLECULE
2qrm_M09_A_1.pdb
 24 26 0 0 0
SMALL
GASTEIGER

@<TRIPOS>ATOM
      1  C10       36.6780   24.5020   31.1920 C.ar  998  M09998      0.0030
      2  C11       37.3420   24.9560   32.3400 C.ar  998  M09998      0.0241
      3  C12       36.6090   25.4560   33.4240 C.ar  998  M09998      0.1429
      4  N2        37.2180   25.8980   34.5350 N.pl3 998  M09998      0.0577
      5  O9        38.6190   26.1100   34.5570 O.2   998  M09998     -0.1261
      6  O8        36.4580   26.1600   35.7100 O.2   998  M09998     -0.1261
      7  C13       35.2160   25.4980   33.3520 C.ar  998  M09998      0.0241
      8  C14       34.5570   25.0440   32.2090 C.ar  998  M09998      0.0030
      9  C9        35.2780   24.5430   31.1280 C.ar  998  M09998      0.0170
     10  C8        34.5840   24.1120   29.9890 C.2   998  M09998      0.1034
     11  C7        35.1790   23.4320   28.7600 C.3   998  M09998      0.1240
     12  N1        33.2710   24.2520   29.7820 N.2   998  M09998     -0.0846
     13  O7        32.8500   23.7430   28.5110 O.2   998  M09998     -0.3538
     14  C1        33.9420   22.9760   27.9790 C.3   998  M09998      0.2912
     15  O5        33.7100   21.5730   28.2340 O.3   998  M09998     -0.3182
     16  C5        32.5160   21.0510   27.5850 C.3   998  M09998      0.1844
     17  C6        32.3730   19.5830   28.0010 C.3   998  M09998      0.2142
     18  O6        33.4110   18.8130   27.3890 O.3   998  M09998     -0.2176
     19  C4        32.6240   21.2220   26.0500 C.3   998  M09998      0.2145
     20  O4        31.4130   20.7890   25.4240 O.3   998  M09998     -0.2176
     21  C3        32.9120   22.6730   25.6560 C.3   998  M09998      0.2210
     22  O3        33.1810   22.7210   24.2440 O.3   998  M09998     -0.2173
     23  C2        34.1110   23.2240   26.4560 C.3   998  M09998      0.2505
     24  O2        34.3030   24.6190   26.1700 O.3   998  M09998     -0.2136
@<TRIPOS>BOND
     1    22    21    1
     2    20    19    1
     3    21    19    1
     4    21    23    1
     5    19    16    1
     6    24    23    1
     7    23    14    1
     8    18    17    1
     9    16    17    1
    10    16    15    1
    11    14    15    1
    12    14    13    1
    13    14    11    1
    14    13    12    1
    15    11    10    1
    16    12    10    2
    17    10     9    1
    18     9     1   ar
    19     9     8   ar
    20     1     2   ar
    21     8     7   ar
    22     2     3   ar
    23     7     3   ar
    24     3     4    1
    25     4     5    2
    26     4     6    2
