@<TRIPOS>MOLECULE
2qrn_UDP_A_1.pdb
 25 26 0 0 0
SMALL
GASTEIGER

@<TRIPOS>ATOM
      1  N1        83.9160   84.3190   17.4810 N.am  402  UDP402     -0.1766
      2  C2        85.0710   84.9970   17.7620 C.1   402  UDP402      0.2845
      3  N3        85.9950   84.4760   18.6090 N.2   402  UDP402     -0.2452
      4  C4        85.7790   83.2470   19.2020 C.1   402  UDP402      0.2182
      5  C5        84.5800   82.5330   18.9170 C.2   402  UDP402      0.1242
      6  C6        83.6680   83.0780   18.0630 C.2   402  UDP402      0.0929
      7  O2        85.2760   86.0970   17.2390 O.2   402  UDP402     -0.1918
      8  O4        86.5950   82.7850   19.9510 O.2   402  UDP402     -0.2085
      9  C1'       82.9160   84.9070   16.5590 C.3   402  UDP402      0.2401
     10  C2'       83.3340   84.6700   15.0890 C.3   402  UDP402      0.2319
     11  O2'       83.9640   85.8500   14.5400 O.3   402  UDP402     -0.2157
     12  C3'       82.0440   84.3780   14.3750 C.3   402  UDP402      0.2158
     13  C4'       80.9760   84.4320   15.4680 C.3   402  UDP402      0.1799
     14  O4'       81.6840   84.2470   16.7060 O.3   402  UDP402     -0.3320
     15  O3'       81.7890   85.3710   13.3740 O.3   402  UDP402     -0.2175
     16  C5'       79.9950   83.3340   15.2840 C.3   402  UDP402      0.1813
     17  O5'       79.0840   83.3550   16.3260 O.3   402  UDP402     -0.3111
     18  PA        78.1630   82.1030   16.1510 P.3   402  UDP402      0.2231
     19  O1A       77.4690   82.1830   14.8640 O.2   402  UDP402     -0.5169
     20  O2A       79.0540   80.7760   16.1950 O.3   402  UDP402     -0.4370
     21  O3A       77.0770   82.0700   17.3490 O.3   402  UDP402     -0.2261
     22  PB        76.1520   80.7280   17.1270 P.3   402  UDP402      0.5373
     23  O1B       75.5180   80.7710   15.7240 O.2   402  UDP402     -0.2221
     24  O2B       75.1400   80.6210   18.1520 O.3   402  UDP402     -0.1143
     25  O3B       77.0780   79.4700   17.2160 O.3   402  UDP402     -0.1143
@<TRIPOS>BOND
     1    15    12    1
     2    12    10    1
     3    12    13    1
     4    11    10    1
     5    19    18    2
     6    10     9    1
     7    16    13    1
     8    16    17    1
     9    13    14    1
    10    23    22    2
    11    18    20    1
    12    18    17    1
    13    18    21    1
    14     9    14    1
    15     9     1    1
    16    22    25    1
    17    22    21    1
    18    22    24    1
    19     7     2    2
    20     1     2   am
    21     1     6    1
    22     2     3    2
    23     6     5    2
    24     3     4    2
    25     5     4    1
    26     4     8    2
