@<TRIPOS>MOLECULE
2qrn_DCM_A_1.pdb
 20 21 0 0 0
SMALL
GASTEIGER

@<TRIPOS>ATOM
      1  N1        66.0390   83.2710   17.4790 N.am  403  DCM403     -0.1802
      2  C2        64.9060   83.4450   18.2700 C.1   403  DCM403      0.2756
      3  N3        64.3500   82.4230   18.9060 N.2   403  DCM403     -0.3024
      4  C4        64.8580   81.2040   18.8080 C.2   403  DCM403      0.2346
      5  C5        66.0350   80.9860   18.0080 C.2   403  DCM403      0.0687
      6  C6        66.5990   82.0460   17.3540 C.2   403  DCM403      0.0835
      7  O2        64.4090   84.5500   18.3700 O.2   403  DCM403     -0.1925
      8  N4        64.2680   80.1610   19.4580 N.pl3 403  DCM403     -0.0921
      9  C1'       66.6120   84.4440   16.7240 C.3   403  DCM403      0.2090
     10  C2'       67.1600   85.4600   17.6670 C.3   403  DCM403      0.0874
     11  C3'       68.4590   85.9520   17.0150 C.3   403  DCM403      0.1857
     12  C4'       68.9360   84.7470   16.1940 C.3   403  DCM403      0.1774
     13  O4'       67.6850   84.0140   15.8170 O.3   403  DCM403     -0.3339
     14  O3'       68.2150   87.0770   16.1710 O.3   403  DCM403     -0.2203
     15  C5'       69.8620   83.8780   17.0000 C.3   403  DCM403      0.1858
     16  O5'       70.3940   82.8700   16.1730 O.3   403  DCM403     -0.2675
     17  P         71.4710   82.0600   17.0600 P.3   403  DCM403      0.5327
     18  O1P       72.5590   83.0560   17.5480 O.3   403  DCM403     -0.1145
     19  O2P       70.7760   81.4450   18.1880 O.3   403  DCM403     -0.1145
     20  O3P       72.1720   80.9180   16.1050 O.2   403  DCM403     -0.2224
@<TRIPOS>BOND
     1    13    12    1
     2    13     9    1
     3    20    17    2
     4    14    11    1
     5    16    15    1
     6    16    17    1
     7    12    15    1
     8    12    11    1
     9     9     1    1
    10     9    10    1
    11    11    10    1
    12    17    18    1
    13    17    19    1
    14     6     1    1
    15     6     5    2
    16     1     2   am
    17     5     4    1
    18     2     7    2
    19     2     3    2
    20     4     3    2
    21     4     8    1
