@<TRIPOS>MOLECULE
2qro_UDP_A_1.pdb
 25 26 0 0 0
SMALL
GASTEIGER

@<TRIPOS>ATOM
      1  N1        83.5020   83.2950   17.2890 N.am  402  UDP402     -0.1766
      2  C2        84.7110   83.8900   17.5010 C.1   402  UDP402      0.2845
      3  N3        85.5990   83.3590   18.3640 N.2   402  UDP402     -0.2452
      4  C4        85.2990   82.2000   19.0490 C.1   402  UDP402      0.2182
      5  C5        84.0370   81.5700   18.8360 C.2   402  UDP402      0.1242
      6  C6        83.1630   82.1220   17.9660 C.2   402  UDP402      0.0929
      7  O2        84.9920   84.9160   16.8970 O.2   402  UDP402     -0.1918
      8  O4        86.0930   81.7240   19.8180 O.2   402  UDP402     -0.2085
      9  C1'       82.5440   83.8890   16.3440 C.3   402  UDP402      0.2401
     10  C2'       82.9560   83.5650   14.8880 C.3   402  UDP402      0.2319
     11  O2'       83.6420   84.6860   14.2900 O.3   402  UDP402     -0.2157
     12  C3'       81.6420   83.2930   14.1710 C.3   402  UDP402      0.2158
     13  C4'       80.5690   83.4470   15.2560 C.3   402  UDP402      0.1799
     14  O4'       81.2670   83.2960   16.5160 O.3   402  UDP402     -0.3320
     15  O3'       81.4340   84.2540   13.1080 O.3   402  UDP402     -0.2175
     16  C5'       79.5420   82.3790   15.1240 C.3   402  UDP402      0.1813
     17  O5'       78.6580   82.4710   16.1720 O.3   402  UDP402     -0.3111
     18  PA        77.6840   81.2280   16.0740 P.3   402  UDP402      0.2231
     19  O1A       76.9350   81.2850   14.7940 O.2   402  UDP402     -0.5169
     20  O2A       78.5420   79.8690   16.1340 O.3   402  UDP402     -0.4370
     21  O3A       76.6290   81.2730   17.3330 O.3   402  UDP402     -0.2261
     22  PB        75.6340   79.9670   17.1870 P.3   402  UDP402      0.5373
     23  O1B       74.9170   80.0220   15.8100 O.2   402  UDP402     -0.2221
     24  O2B       74.6620   79.9190   18.2920 O.3   402  UDP402     -0.1143
     25  O3B       76.5190   78.6530   17.2430 O.3   402  UDP402     -0.1143
@<TRIPOS>BOND
     1    15    12    1
     2    12    10    1
     3    12    13    1
     4    11    10    1
     5    19    18    2
     6    10     9    1
     7    16    13    1
     8    16    17    1
     9    13    14    1
    10    23    22    2
    11    18    20    1
    12    18    17    1
    13    18    21    1
    14     9    14    1
    15     9     1    1
    16     7     2    2
    17    22    25    1
    18    22    21    1
    19    22    24    1
    20     1     2   am
    21     1     6    1
    22     2     3    2
    23     6     5    2
    24     3     4    2
    25     5     4    1
    26     4     8    2
