@<TRIPOS>MOLECULE
2qro_D5M_A_1.pdb
 22 24 0 0 0
SMALL
GASTEIGER

@<TRIPOS>ATOM
      1  O5'       70.1730   82.0150   16.0230 O.3   503  D5M503     -0.2675
      2  C5'       69.6940   83.0410   16.8500 C.3   503  D5M503      0.1859
      3  C4'       68.7840   83.9300   16.0510 C.3   503  D5M503      0.1796
      4  O4'       67.6370   83.2300   15.5410 O.3   503  D5M503     -0.3155
      5  C3'       68.2560   85.0800   16.9150 C.3   503  D5M503      0.1883
      6  O3'       68.2440   86.2850   16.1370 O.3   503  D5M503     -0.2202
      7  C2'       66.8460   84.6720   17.3290 C.3   503  D5M503      0.1151
      8  C1'       66.5280   83.5460   16.3770 C.3   503  D5M503      0.2873
      9  N9        66.0360   82.3800   17.0580 N.pl3 503  D5M503     -0.1460
     10  C8        66.6230   81.1580   17.1540 C.3   503  D5M503      0.3377
     11  N7        65.8510   80.3510   17.8230 N.2   503  D5M503     -0.2095
     12  C5        64.7380   81.0080   18.1880 C.2   503  D5M503      0.2526
     13  C6        63.5730   80.6750   18.8870 C.2   503  D5M503      0.4393
     14  N6        63.3920   79.3990   19.3680 N.pl3 503  D5M503      0.2180
     15  N1        62.6350   81.6290   19.0700 N.2   503  D5M503      0.0021
     16  C2        62.7910   82.8740   18.6040 C.3   503  D5M503      0.5254
     17  N3        63.8730   83.2190   17.9320 N.2   503  D5M503     -0.0055
     18  C4        64.8540   82.3280   17.7060 C.2   503  D5M503      0.3518
     19  P         71.1360   81.1380   16.9440 P.3   503  D5M503      0.5327
     20  O1P       70.3690   80.5630   18.0780 O.3   503  D5M503     -0.1145
     21  O3P       72.3450   82.0440   17.4920 O.3   503  D5M503     -0.1145
     22  O2P       71.7310   79.9590   16.0450 O.2   503  D5M503     -0.2224
@<TRIPOS>BOND
     1     4     3    1
     2     4     8    1
     3     1     2    1
     4     1    19    1
     5    22    19    2
     6     3     2    1
     7     3     5    1
     8     6     5    1
     9     8     9    1
    10     8     7    1
    11     5     7    1
    12    19    21    1
    13    19    20    1
    14     9    10    1
    15     9    18    1
    16    10    11    1
    17    18    17    2
    18    18    12    1
    19    11    12    2
    20    17    16    1
    21    12    13    1
    22    16    15    1
    23    13    15    2
    24    13    14    1
