@<TRIPOS>MOLECULE
2qrp_S06_A_1.pdb
 25 28 0 0 0
SMALL
GASTEIGER

@<TRIPOS>ATOM
      1  C10       36.2690   24.6150   30.4880 C.ar  998  S06998      0.0013
      2  C11       36.9200   25.1130   31.6240 C.ar  998  S06998      0.0000
      3  C12       38.2910   25.3550   31.5810 C.ar  998  S06998      0.0000
      4  C13       38.9300   25.8500   32.7220 C.ar  998  S06998      0.0000
      5  C14       38.2130   26.1050   33.8940 C.ar  998  S06998      0.0000
      6  C15       36.8410   25.8670   33.9390 C.ar  998  S06998      0.0000
      7  C16       36.1980   25.3730   32.7990 C.ar  998  S06998      0.0000
      8  C17       34.8280   25.1280   32.8400 C.ar  998  S06998      0.0000
      9  C18       34.1850   24.6370   31.7040 C.ar  998  S06998      0.0013
     10  C9        34.8970   24.3690   30.5300 C.ar  998  S06998      0.0169
     11  C8        34.2170   23.8950   29.4030 C.2   998  S06998      0.1034
     12  C7        34.8140   23.2020   28.1810 C.3   998  S06998      0.1240
     13  N1        32.9080   24.0230   29.2040 N.2   998  S06998     -0.0846
     14  O7        32.4780   23.4740   27.9610 O.2   998  S06998     -0.3538
     15  C1        33.5790   22.7290   27.4130 C.3   998  S06998      0.2912
     16  O5        33.3860   21.3180   27.6420 O.3   998  S06998     -0.3182
     17  C5        32.1730   20.7930   27.0250 C.3   998  S06998      0.1844
     18  C6        32.0140   19.3370   27.4590 C.3   998  S06998      0.2142
     19  O6        33.0630   18.5510   26.8780 O.3   998  S06998     -0.2176
     20  C4        32.2790   20.9650   25.4970 C.3   998  S06998      0.2145
     21  O4        31.1080   20.4510   24.8440 O.3   998  S06998     -0.2176
     22  C3        32.4960   22.4410   25.1320 C.3   998  S06998      0.2210
     23  O3        32.7230   22.5600   23.7220 O.3   998  S06998     -0.2173
     24  C2        33.7070   23.0090   25.9020 C.3   998  S06998      0.2505
     25  O2        33.8470   24.4170   25.6640 O.3   998  S06998     -0.2136
@<TRIPOS>BOND
     1    23    22    1
     2    21    20    1
     3    22    20    1
     4    22    24    1
     5    20    17    1
     6    25    24    1
     7    24    15    1
     8    19    18    1
     9    17    18    1
    10    17    16    1
    11    15    16    1
    12    15    14    1
    13    15    12    1
    14    14    13    1
    15    12    11    1
    16    13    11    2
    17    11    10    1
    18     1    10   ar
    19     1     2   ar
    20    10     9   ar
    21     3     2   ar
    22     3     4   ar
    23     2     7   ar
    24     9     8   ar
    25     4     5   ar
    26     7     8   ar
    27     7     6   ar
    28     5     6   ar
