@<TRIPOS>MOLECULE
2qrq_S13_A_1.pdb
 22 24 0 0 0
SMALL
GASTEIGER

@<TRIPOS>ATOM
      1  C10       36.1830   24.3820   30.5880 C.ar  998  S13998      0.0010
      2  C11       36.8720   24.8340   31.7180 C.ar  998  S13998     -0.0042
      3  C12       36.1690   25.1700   32.8760 C.ar  998  S13998     -0.0218
      4  C15       36.9190   25.6700   34.1180 C.3   998  S13998      0.0310
      5  C13       34.7840   25.0400   32.9140 C.ar  998  S13998     -0.0042
      6  C14       34.0970   24.5900   31.7840 C.ar  998  S13998      0.0010
      7  C9        34.7930   24.2510   30.6210 C.ar  998  S13998      0.0169
      8  C8        34.0920   23.8180   29.4920 C.2   998  S13998      0.1034
      9  C7        34.6730   23.1140   28.2650 C.3   998  S13998      0.1240
     10  N1        32.7880   23.9840   29.2900 N.2   998  S13998     -0.0846
     11  O7        32.3570   23.4600   28.0260 O.2   998  S13998     -0.3538
     12  C1        33.4330   22.6820   27.4820 C.3   998  S13998      0.2912
     13  O5        33.1850   21.2790   27.7170 O.3   998  S13998     -0.3182
     14  C5        31.9990   20.7720   27.0420 C.3   998  S13998      0.1844
     15  C6        31.8590   19.3100   27.4690 C.3   998  S13998      0.2142
     16  O6        32.9300   18.5450   26.9100 O.3   998  S13998     -0.2176
     17  C4        32.1420   20.9370   25.5180 C.3   998  S13998      0.2145
     18  O4        30.9640   20.4610   24.8430 O.3   998  S13998     -0.2176
     19  C3        32.4090   22.4070   25.1530 C.3   998  S13998      0.2210
     20  O3        32.6890   22.5110   23.7530 O.3   998  S13998     -0.2173
     21  C2        33.5950   22.9670   25.9670 C.3   998  S13998      0.2505
     22  O2        33.7220   24.3740   25.7390 O.3   998  S13998     -0.2136
@<TRIPOS>BOND
     1    20    19    1
     2    18    17    1
     3    19    17    1
     4    19    21    1
     5    17    14    1
     6    22    21    1
     7    21    12    1
     8    16    15    1
     9    14    15    1
    10    14    13    1
    11    12    13    1
    12    12    11    1
    13    12     9    1
    14    11    10    1
    15     9     8    1
    16    10     8    2
    17     8     7    1
    18     1     7   ar
    19     1     2   ar
    20     7     6   ar
    21     2     3   ar
    22     6     5   ar
    23     3     5   ar
    24     3     4    1
