@<TRIPOS>MOLECULE
2qrv_SAH_A_1.pdb
 26 28 0 0 0
SMALL
GASTEIGER

@<TRIPOS>ATOM
      1  N        110.8860   49.1600    2.1250 N.3     1  SAH1       -0.1208
      2  CA       109.6570   49.4810    1.2710 C.3     1  SAH1        0.1952
      3  CB       108.4810   48.5730    1.3600 C.3     1  SAH1        0.0422
      4  CG       108.7660   47.1110    1.1180 C.3     1  SAH1        0.0597
      5  SD       107.1770   46.3220    1.1160 S.3     1  SAH1       -0.1375
      6  C        109.2720   50.9950    1.5190 C.2     1  SAH1        0.3819
      7  O        109.9490   51.7130    2.2820 O.co2   1  SAH1       -0.2441
      8  OXT      108.2460   51.4010    0.8740 O.co2   1  SAH1       -0.2441
      9  C5'      107.3780   44.9730   -0.0010 C.3     1  SAH1        0.0899
     10  C4'      107.0390   45.4090   -1.4930 C.3     1  SAH1        0.1630
     11  O4'      107.0530   44.2210   -2.2550 O.3     1  SAH1       -0.3153
     12  C3'      105.6720   45.9180   -1.7660 C.3     1  SAH1        0.2168
     13  O3'      105.7290   47.3350   -1.9140 O.3     1  SAH1       -0.2175
     14  C2'      105.1990   45.0610   -3.0280 C.3     1  SAH1        0.2569
     15  O2'      104.4510   45.8110   -3.9790 O.3     1  SAH1       -0.2130
     16  C1'      106.4940   44.4550   -3.5960 C.3     1  SAH1        0.3185
     17  N9       106.4460   43.2770   -4.2340 N.pl3   1  SAH1       -0.1439
     18  C8       105.8370   42.0610   -4.0200 C.3     1  SAH1        0.3377
     19  N7       106.1020   41.1470   -4.9010 N.2     1  SAH1       -0.2095
     20  C5       106.9820   41.7700   -5.8180 C.2     1  SAH1        0.2526
     21  C6       107.6720   41.3000   -7.0070 C.2     1  SAH1        0.4393
     22  N6       107.6020   40.0680   -7.5040 N.pl3   1  SAH1        0.2180
     23  N1       108.4540   42.2210   -7.6520 N.2     1  SAH1        0.0021
     24  C2       108.6080   43.5100   -7.2180 C.3     1  SAH1        0.5254
     25  N3       107.9840   43.9860   -6.0810 N.2     1  SAH1       -0.0055
     26  C4       107.1900   43.0730   -5.4330 C.2     1  SAH1        0.3518
@<TRIPOS>BOND
     1    23    24    1
     2    23    21    2
     3    22    21    1
     4    24    25    1
     5    21    20    1
     6    25    26    2
     7    20    26    1
     8    20    19    2
     9    26    17    1
    10    19    18    1
    11    17    18    1
    12    17    16    1
    13    15    14    1
    14    16    14    1
    15    16    11    1
    16    14    12    1
    17    11    10    1
    18    13    12    1
    19    12    10    1
    20    10     9    1
    21     9     5    1
    22     8     6   ar
    23     5     4    1
    24     4     3    1
    25     2     3    1
    26     2     6    1
    27     2     1    1
    28     6     7   ar
