@<TRIPOS>MOLECULE
2qrw_HEM_A_1.pdb
 43 50 0 0 0
SMALL
GASTEIGER

@<TRIPOS>ATOM
      1 FE        -74.3740    9.2280   18.3310 Fe    700  HEM700      0.0000
      2  CHA      -74.9020    6.1750   19.6450 C.2   700  HEM700      0.0000
      3  CHB      -73.9650    7.8020   15.1780 C.2   700  HEM700      0.0000
      4  CHC      -73.3000   12.2100   17.0890 C.2   700  HEM700      0.0000
      5  CHD      -75.2250   10.7320   21.2550 C.2   700  HEM700      0.0000
      6  NA       -74.3850    7.3570   17.5490 N.ar  700  HEM700      0.0000
      7  C1A      -74.6640    6.2240   18.2810 C.ar  700  HEM700      0.0000
      8  C2A      -74.6680    5.0950   17.3870 C.ar  700  HEM700      0.0000
      9  C3A      -74.4100    5.5360   16.1520 C.ar  700  HEM700      0.0000
     10  C4A      -74.2260    6.9660   16.2350 C.ar  700  HEM700      0.0000
     11  CMA      -74.2980    4.7060   14.8570 C.3   700  HEM700      0.0000
     12  CAA      -74.9610    3.6410   17.7980 C.3   700  HEM700      0.0000
     13  CBA      -76.4480    3.4680   17.4490 C.3   700  HEM700      0.0000
     14  CGA      -77.0170    2.1620   17.9590 C.2   700  HEM700      0.0000
     15  O1A      -77.4000    1.2870   17.1340 O.co2 700  HEM700      0.0000
     16  O2A      -77.0840    2.0000   19.1940 O.co2 700  HEM700      0.0000
     17  NB       -73.7660    9.8830   16.4850 N.2   700  HEM700      0.0000
     18  C1B      -73.6530    9.1320   15.3290 C.2   700  HEM700      0.0000
     19  C2B      -73.1670    9.9810   14.2800 C.2   700  HEM700      0.0000
     20  C3B      -72.9660   11.1920   14.7950 C.2   700  HEM700      0.0000
     21  C4B      -73.3330   11.1580   16.2030 C.2   700  HEM700      0.0000
     22  CMB      -72.9380    9.5030   12.8420 C.3   700  HEM700      0.0000
     23  CAB      -72.4120   12.4090   14.0480 C.2   700  HEM700      0.0000
     24  CBB      -71.3800   13.0800   14.6160 C.2   700  HEM700      0.0000
     25  NC       -74.2840   11.1000   19.0360 N.ar  700  HEM700      0.0000
     26  C1C      -73.8260   12.2210   18.3640 C.ar  700  HEM700      0.0000
     27  C2C      -73.9740   13.3690   19.2310 C.ar  700  HEM700      0.0000
     28  C3C      -74.4980   12.9360   20.3850 C.ar  700  HEM700      0.0000
     29  C4C      -74.7030   11.5230   20.2710 C.ar  700  HEM700      0.0000
     30  CMC      -73.5920   14.8210   18.8680 C.3   700  HEM700      0.0000
     31  CAC      -74.8770   13.7310   21.6430 C.2   700  HEM700      0.0000
     32  CBC      -74.3690   14.9470   21.8770 C.2   700  HEM700      0.0000
     33  ND       -74.9890    8.5670   20.1550 N.2   700  HEM700      0.0000
     34  C1D      -75.2760    9.3720   21.2420 C.2   700  HEM700      0.0000
     35  C2D      -75.6500    8.5540   22.3730 C.2   700  HEM700      0.0000
     36  C3D      -75.5390    7.1260   21.8620 C.2   700  HEM700      0.0000
     37  C4D      -75.1310    7.2330   20.4780 C.2   700  HEM700      0.0000
     38  CMD      -76.0580    9.0170   23.7900 C.3   700  HEM700      0.0000
     39  CAD      -75.8110    5.8220   22.6230 C.3   700  HEM700      0.0000
     40  CBD      -74.5450    5.4960   23.4150 C.3   700  HEM700      0.0000
     41  CGD      -74.8700    4.3270   24.3330 C.2   700  HEM700      0.0000
     42  O1D      -74.4990    3.1720   24.0110 O.co2 700  HEM700      0.0000
     43  O2D      -75.5090    4.5340   25.3990 O.co2 700  HEM700      0.0000
@<TRIPOS>BOND
     1    22    19    1
     2    23    24    2
     3    23    20    1
     4    19    20    2
     5    19    18    1
     6    20    21    1
     7    11     9    1
     8     3    18    1
     9     3    10    2
    10    18    17    2
    11     9    10   ar
    12     9     8   ar
    13    21    17    1
    14    21     4    2
    15    10     6   ar
    16    17     1    1
    17     4    26    1
    18    15    14   ar
    19     8    12    1
    20     8     7   ar
    21    13    12    1
    22    13    14    1
    23     6     7   ar
    24     6     1    1
    25    14    16   ar
    26     7     2    2
    27     1    25    1
    28     1    33    1
    29    26    25   ar
    30    26    27   ar
    31    30    27    1
    32    25    29   ar
    33    27    28   ar
    34     2    37    1
    35    33    37    2
    36    33    34    1
    37    29    28   ar
    38    29     5    1
    39    28    31    1
    40    37    36    1
    41    34     5    2
    42    34    35    1
    43    31    32    2
    44    36    35    2
    45    36    39    1
    46    35    38    1
    47    39    40    1
    48    40    41    1
    49    42    41   ar
    50    41    43   ar
