@<TRIPOS>MOLECULE
2qry_TPS_A_1.pdb
 22 23 0 0 0
SMALL
GASTEIGER

@<TRIPOS>ATOM
      1  CM2        9.8580   44.3530  109.6850 C.3   400  TPS400      0.1291
      2  N3         7.6780   50.3510  111.2580 N.pl3 400  TPS400     -0.2970
      3  C2         8.9510   50.3080  110.9180 C.3   400  TPS400      0.1543
      4  S1         9.4980   51.9300  111.1200 S.3   400  TPS400     -0.0951
      5  C5         7.9700   52.6320  111.6710 C.2   400  TPS400      0.0164
      6  C4         7.1330   51.5370  111.6510 C.2   400  TPS400      0.0279
      7  CM4        5.6710   51.6690  112.0630 C.3   400  TPS400      0.0473
      8  C6         7.7930   54.0720  112.0390 C.3   400  TPS400      0.0662
      9  C7         9.1690   54.6330  111.6800 C.3   400  TPS400      0.1590
     10  O7         9.3320   56.0150  111.9740 O.3   400  TPS400     -0.2699
     11  N1A        8.8200   45.8370  111.3500 N.2   400  TPS400     -0.1861
     12  C2A        9.0710   45.5870  110.0620 C.1   400  TPS400      0.0663
     13  N3A        8.6410   46.4090  109.1070 N.2   400  TPS400     -0.3368
     14  C4A        7.9370   47.5230  109.4020 C.2   400  TPS400      0.2292
     15  N4A        7.5070   48.3610  108.3890 N.pl3 400  TPS400     -0.0925
     16  C5A        7.6490   47.8250  110.7710 C.2   400  TPS400      0.0654
     17  C6A        8.1280   46.9210  111.7340 C.2   400  TPS400      0.1115
     18  C7A        6.8550   49.0780  111.2130 C.3   400  TPS400      0.1237
     19  P1        10.8320   56.4040  111.5150 P.3   400  TPS400      0.5326
     20  O1        11.8480   55.4540  112.2090 O.3   400  TPS400     -0.1145
     21  O2        11.1520   57.9240  111.8200 O.3   400  TPS400     -0.1145
     22  O3        10.9410   56.1890  109.9900 O.2   400  TPS400     -0.2224
@<TRIPOS>BOND
     1    15    14    1
     2    13    14    2
     3    13    12    2
     4    14    16    1
     5     1    12    1
     6    22    19    2
     7    12    11    2
     8    16    18    1
     9    16    17    2
    10     3     4    1
    11     3     2    1
    12     4     5    1
    13    18     2    1
    14     2     6    1
    15    11    17    1
    16    19    21    1
    17    19    10    1
    18    19    20    1
    19     6     5    2
    20     6     7    1
    21     5     8    1
    22     9    10    1
    23     9     8    1
