@<TRIPOS>MOLECULE
2qrz_GCP_A_1.pdb
 32 34 0 0 0
SMALL
GASTEIGER

@<TRIPOS>ATOM
      1  PG        66.0260   20.5260   26.8690 P.3   3639  GCP3639     0.1295
      2  O1G       65.6090   20.8490   25.4880 O.2   3639  GCP3639    -0.4595
      3  O2G       67.4370   20.7780   27.2370 O.3   3639  GCP3639    -0.3567
      4  O3G       65.0980   21.3740   27.8740 O.3   3639  GCP3639    -0.3567
      5  C3B       65.6490   18.8270   27.2580 C.3   3639  GCP3639     0.1768
      6  PB        64.0410   18.2960   26.7030 P.3   3639  GCP3639     0.3815
      7  O1B       63.1150   18.4510   27.8470 O.3   3639  GCP3639    -0.1391
      8  O2B       63.6960   18.9690   25.4320 O.2   3639  GCP3639    -0.2547
      9  O3A       64.2560   16.7220   26.4390 O.3   3639  GCP3639    -0.2483
     10  PA        64.2950   16.0620   24.9700 P.3   3639  GCP3639     0.2209
     11  O1A       62.9500   16.1860   24.3640 O.3   3639  GCP3639    -0.4371
     12  O2A       65.4500   16.6060   24.2220 O.2   3639  GCP3639    -0.5170
     13  O5'       64.5800   14.5180   25.3320 O.3   3639  GCP3639    -0.3111
     14  C5'       65.7180   14.1930   26.1320 C.3   3639  GCP3639     0.1813
     15  C4'       66.0410   12.6980   26.0890 C.3   3639  GCP3639     0.1799
     16  O4'       64.8700   11.9650   26.4890 O.3   3639  GCP3639    -0.3326
     17  C3'       66.3730   12.2470   24.6660 C.3   3639  GCP3639     0.2158
     18  O3'       67.2520   11.1200   24.7010 O.3   3639  GCP3639    -0.2175
     19  C2'       64.9970   11.8340   24.1520 C.3   3639  GCP3639     0.2310
     20  O2'       65.1520   10.8770   23.1020 O.3   3639  GCP3639    -0.2158
     21  C1'       64.4720   11.1190   25.3970 C.3   3639  GCP3639     0.2293
     22  N9        62.9990   10.9660   25.3580 N.pl3 3639  GCP3639    -0.2354
     23  C8        62.1130   11.9390   25.1610 C.3   3639  GCP3639     0.2246
     24  N7        60.8780   11.4500   25.2480 N.2   3639  GCP3639    -0.2322
     25  C5        60.9700   10.1490   25.5050 C.2   3639  GCP3639     0.2182
     26  C6        60.0170    9.1570   25.7110 C.1   3639  GCP3639     0.2372
     27  O6        58.6920    9.4550   25.6480 O.2   3639  GCP3639    -0.2069
     28  N1        60.4210    7.8440   25.9830 N.2   3639  GCP3639    -0.2485
     29  C2        61.7820    7.5210   26.0470 C.1   3639  GCP3639     0.2531
     30  N2        62.1620    6.2760   26.3110 N.pl3 3639  GCP3639    -0.0226
     31  N3        62.7380    8.5260   25.8360 N.2   3639  GCP3639    -0.3074
     32  C4        62.3230    9.8350   25.5700 C.2   3639  GCP3639     0.2300
@<TRIPOS>BOND
     1    20    19    1
     2    19    17    1
     3    19    21    1
     4    12    10    2
     5    11    10    1
     6    17    18    1
     7    17    15    1
     8    10    13    1
     9    10     9    1
    10    23    24    1
    11    23    22    1
    12    24    25    2
    13    13    14    1
    14    22    21    1
    15    22    32    1
    16    21    16    1
    17     8     6    2
    18     2     1    2
    19    25    32    1
    20    25    26    1
    21    32    31    2
    22    27    26    2
    23    26    28    2
    24    31    29    2
    25    28    29    2
    26    29    30    1
    27    15    14    1
    28    15    16    1
    29     9     6    1
    30     6     5    1
    31     6     7    1
    32     1     3    1
    33     1     5    1
    34     1     4    1
