@<TRIPOS>MOLECULE
2qs1_UB1_A_1.pdb
 26 27 0 0 0
SMALL
GASTEIGER

@<TRIPOS>ATOM
      1  O23       -1.4700   -6.4820   14.2920 O.co2 603  UB1603     -0.2400
      2  C22       -1.7810   -7.0660   15.3570 C.2   603  UB1603      0.3934
      3  O24       -1.7010   -8.2990   15.5010 O.co2 603  UB1603     -0.2400
      4  C21       -2.2820   -6.2680   16.5040 C.ar  603  UB1603      0.1080
      5  S20       -2.3740   -6.9750   18.0910 S.2   603  UB1603     -0.0733
      6  C19       -3.0110   -5.5790   18.8630 C.ar  603  UB1603      0.0699
      7 BR26       -3.4700   -5.3990   20.7860 Br    603  UB1603     -0.0414
      8  C18       -3.1620   -4.5100   17.8660 C.ar  603  UB1603      0.0453
      9 BR25       -3.8730   -2.7380   18.3690 Br    603  UB1603     -0.0482
     10  C17       -2.7560   -4.8600   16.4720 C.ar  603  UB1603      0.0203
     11  C16       -2.8020   -3.9850   15.2590 C.3   603  UB1603      0.1415
     12  N3        -4.0420   -3.2080   15.2590 N.ar  603  UB1603     -0.2447
     13  C2        -3.9260   -1.8240   15.1100 C.ar  603  UB1603      0.2619
     14  O14       -2.8070   -1.2880   14.9880 O.2   603  UB1603     -0.2671
     15  C1        -5.1590   -1.0060   15.1050 C.ar  603  UB1603      0.0517
     16  C13       -5.0410    0.4830   14.9550 C.3   603  UB1603      0.0376
     17  C6        -6.3920   -1.6360   15.2340 C.ar  603  UB1603      0.0802
     18  C4        -5.3290   -3.7970   15.3800 C.ar  603  UB1603      0.3341
     19  O15       -5.4830   -5.0350   15.5110 O.2   603  UB1603     -0.2462
     20  N5        -6.4880   -2.9720   15.3640 N.ar  603  UB1603     -0.2779
     21  C7        -7.8030   -3.6120   15.4910 C.3   603  UB1603      0.1411
     22  C8        -8.2370   -4.2170   14.1400 C.3   603  UB1603      0.2168
     23  N9        -7.9970   -3.2620   13.0720 N.3   603  UB1603     -0.1187
     24  C10       -9.6810   -4.6590   14.1950 C.2   603  UB1603      0.3838
     25  O11      -10.5460   -4.0820   13.4850 O.co2 603  UB1603     -0.2440
     26  O12       -9.9870   -5.6040   14.9570 O.co2 603  UB1603     -0.2440
@<TRIPOS>BOND
     1    23    22    1
     2    25    24   ar
     3    22    24    1
     4    22    21    1
     5    24    26   ar
     6     1     2   ar
     7    16    15    1
     8    14    13    2
     9    15    13   ar
    10    15    17   ar
    11    13    12   ar
    12    17    20   ar
    13    11    12    1
    14    11    10    1
    15    12    18   ar
    16     2     3   ar
    17     2     4    1
    18    20    18   ar
    19    20    21    1
    20    18    19    2
    21    10     4   ar
    22    10     8   ar
    23     4     5   ar
    24     8     9    1
    25     8     6   ar
    26     5     6   ar
    27     6     7    1
