@<TRIPOS>MOLECULE
2qs2_UBF_A_1.pdb
 24 25 0 0 0
SMALL
GASTEIGER

@<TRIPOS>ATOM
      1  O23       -1.1750   -6.7690   13.9360 O.co2 603  UBF603     -0.2400
      2  C22       -1.1860   -7.4020   15.0170 C.2   603  UBF603      0.3934
      3  O24       -0.6120   -8.5030   15.1310 O.co2 603  UBF603     -0.2400
      4  C21       -1.8810   -6.8320   16.2080 C.ar  603  UBF603      0.1071
      5  S20       -1.6980   -7.4790   17.7860 S.2   603  UBF603     -0.0802
      6  C19       -2.7500   -6.3450   18.5780 C.ar  603  UBF603      0.0354
      7  C18       -3.2460   -5.4640   17.6090 C.ar  603  UBF603      0.0053
      8  C17       -2.8080   -5.6830   16.2880 C.ar  603  UBF603      0.0136
      9  C16       -3.1750   -4.9000   15.0700 C.3   603  UBF603      0.1410
     10  N3        -4.2950   -4.0060   15.3150 N.ar  603  UBF603     -0.2441
     11  C4        -5.6100   -4.4900   15.4730 C.ar  603  UBF603      0.3341
     12  O15       -5.8360   -5.7200   15.4240 O.2   603  UBF603     -0.2462
     13  C2        -4.0400   -2.6290   15.3690 C.ar  603  UBF603      0.2722
     14  O14       -2.8910   -2.1690   15.2290 O.2   603  UBF603     -0.2662
     15  C1        -5.1740   -1.7160   15.5940 C.ar  603  UBF603      0.1080
     16 BR13       -4.8070    0.1300   15.6640 Br    603  UBF603     -0.0425
     17  C6        -6.4530   -2.2460   15.7440 C.ar  603  UBF603      0.0912
     18  N5        -6.6780   -3.5750   15.6820 N.ar  603  UBF603     -0.2771
     19  C7        -8.0490   -4.0860   15.8250 C.3   603  UBF603      0.1411
     20  C8        -8.5660   -4.5150   14.4330 C.3   603  UBF603      0.2168
     21  N9        -8.3010   -3.4800   13.4390 N.3   603  UBF603     -0.1187
     22  C10      -10.0350   -4.8590   14.4740 C.2   603  UBF603      0.3838
     23  O11      -10.8340   -4.2210   13.7460 O.co2 603  UBF603     -0.2440
     24  O12      -10.4280   -5.7820   15.2290 O.co2 603  UBF603     -0.2440
@<TRIPOS>BOND
     1    21    20    1
     2    23    22   ar
     3     1     2   ar
     4    20    22    1
     5    20    19    1
     6    22    24   ar
     7     2     3   ar
     8     2     4    1
     9     9    10    1
    10     9     8    1
    11    14    13    2
    12    10    13   ar
    13    10    11   ar
    14    13    15   ar
    15    12    11    2
    16    11    18   ar
    17    15    16    1
    18    15    17   ar
    19    18    17   ar
    20    18    19    1
    21     4     8   ar
    22     4     5   ar
    23     8     7   ar
    24     7     6   ar
    25     5     6   ar
