@<TRIPOS>MOLECULE
2qs3_UBE_A_1.pdb
 30 32 0 0 0
SMALL
GASTEIGER

@<TRIPOS>ATOM
      1  O24       -1.2010   -7.0020   14.0160 O.co2 603  UBE603     -0.2400
      2  C22       -1.5080   -7.6680   15.0320 C.2   603  UBE603      0.3934
      3  O23       -1.4920   -8.9140   15.0810 O.co2 603  UBE603     -0.2400
      4  C21       -1.8970   -6.9360   16.2590 C.ar  603  UBE603      0.1071
      5  S20       -1.5840   -7.5790   17.8130 S.2   603  UBE603     -0.0807
      6  C19       -2.2970   -6.2050   18.6140 C.ar  603  UBE603      0.0294
      7  C25       -2.2940   -6.1970   20.0990 C.ar  603  UBE603      0.0060
      8  C30       -1.7380   -5.0840   20.7360 C.ar  603  UBE603      0.0005
      9  C29       -1.7090   -5.0220   22.1310 C.ar  603  UBE603      0.0000
     10  C28       -2.2460   -6.0780   22.8690 C.ar  603  UBE603      0.0000
     11  C27       -2.8030   -7.1880   22.2300 C.ar  603  UBE603      0.0000
     12  C26       -2.8310   -7.2480   20.8350 C.ar  603  UBE603      0.0005
     13  C18       -2.7680   -5.2560   17.7100 C.ar  603  UBE603      0.0048
     14  C17       -2.5710   -5.6260   16.3780 C.ar  603  UBE603      0.0136
     15  C16       -2.9630   -4.8380   15.1860 C.3   603  UBE603      0.1410
     16  N3        -4.1150   -3.9910   15.4490 N.ar  603  UBE603     -0.2447
     17  C4        -5.4210   -4.5030   15.5970 C.ar  603  UBE603      0.3341
     18  O15       -5.6450   -5.7310   15.5420 O.2   603  UBE603     -0.2462
     19  C2        -3.8870   -2.6120   15.5170 C.ar  603  UBE603      0.2619
     20  O14       -2.7370   -2.1550   15.3770 O.2   603  UBE603     -0.2671
     21  C1        -5.0440   -1.7130   15.7430 C.ar  603  UBE603      0.0517
     22  C13       -4.8380   -0.2220   15.8270 C.3   603  UBE603      0.0376
     23  C6        -6.3040   -2.2800   15.8840 C.ar  603  UBE603      0.0802
     24  N5        -6.5000   -3.6080   15.8120 N.ar  603  UBE603     -0.2779
     25  C7        -7.8610   -4.1440   15.9450 C.3   603  UBE603      0.1411
     26  C8        -8.3330   -4.5400   14.5290 C.3   603  UBE603      0.2168
     27  N9        -8.0950   -3.4720   13.5630 N.3   603  UBE603     -0.1187
     28  C10       -9.7850   -4.9080   14.5260 C.2   603  UBE603      0.3838
     29  O11      -10.5550   -4.2790   13.7580 O.co2 603  UBE603     -0.2440
     30  O12      -10.1810   -5.8380   15.2680 O.co2 603  UBE603     -0.2440
@<TRIPOS>BOND
     1    27    26    1
     2    29    28   ar
     3     1     2   ar
     4    28    26    1
     5    28    30   ar
     6    26    25    1
     7     2     3   ar
     8     2     4    1
     9    15    16    1
    10    15    14    1
    11    20    19    2
    12    16    19   ar
    13    16    17   ar
    14    19    21   ar
    15    18    17    2
    16    17    24   ar
    17    21    22    1
    18    21    23   ar
    19    24    23   ar
    20    24    25    1
    21     4    14   ar
    22     4     5   ar
    23    14    13   ar
    24    13     6   ar
    25     5     6   ar
    26     6     7    1
    27     7     8   ar
    28     7    12   ar
    29     8     9   ar
    30    12    11   ar
    31     9    10   ar
    32    11    10   ar
