@<TRIPOS>MOLECULE
2qs4_LY5_A_1.pdb
 24 26 0 0 0
SMALL
GASTEIGER

@<TRIPOS>ATOM
      1  F2       -16.3350   27.2840  -17.5510 F     260  LY5260     -0.2028
      2  C15      -17.6500   27.0790  -17.6440 C.3   260  LY5260      0.2802
      3  F1       -17.8780   27.3490  -18.8920 F     260  LY5260     -0.2028
      4  C14      -18.4960   27.9070  -16.6670 C.3   260  LY5260      0.0955
      5  C12      -18.4920   26.9950  -15.4450 C.3   260  LY5260      0.1676
      6  C13      -19.4940   27.3020  -14.3270 C.2   260  LY5260      0.3791
      7  O4       -20.6850   26.9950  -14.4020 O.co2 260  LY5260     -0.2442
      8  O3       -19.1060   27.8060  -13.2780 O.co2 260  LY5260     -0.2442
      9  C16      -17.9890   25.6170  -17.3090 C.3   260  LY5260      0.1399
     10  N2       -18.6980   25.6460  -16.0120 N.3   260  LY5260     -0.2600
     11  C11      -18.1850   24.6860  -15.0360 C.3   260  LY5260      0.0726
     12  C7       -18.3190   23.2500  -15.5320 C.3   260  LY5260      0.0160
     13  C6       -19.7260   22.6500  -15.3360 C.3   260  LY5260      0.0015
     14  C8       -17.3300   22.4790  -14.6550 C.3   260  LY5260      0.0014
     15  C9       -17.3550   20.9930  -15.0640 C.3   260  LY5260      0.0015
     16  C4       -18.7800   20.4000  -14.9050 C.3   260  LY5260      0.0175
     17  C5       -19.7910   21.1720  -15.7590 C.3   260  LY5260      0.0034
     18  C3       -19.2140   20.2650  -13.4560 C.3   260  LY5260      0.0892
     19  N1       -20.5450   19.5720  -13.3960 N.3   260  LY5260     -0.2084
     20  C1       -21.6100   20.3030  -14.1530 C.3   260  LY5260      0.1757
     21  C2       -21.1830   20.5640  -15.6090 C.3   260  LY5260      0.0290
     22  C10      -22.8500   19.4610  -14.1030 C.2   260  LY5260      0.3803
     23  O1       -23.9140   19.9570  -14.6080 O.co2 260  LY5260     -0.2441
     24  O2       -22.8200   18.3260  -13.6090 O.co2 260  LY5260     -0.2441
@<TRIPOS>BOND
     1     3     2    1
     2     2     1    1
     3     2     9    1
     4     2     4    1
     5     9    10    1
     6     4     5    1
     7    10     5    1
     8    10    11    1
     9    17    21    1
    10    17    13    1
    11    17    16    1
    12    21    20    1
    13    12    13    1
    14    12    11    1
    15    12    14    1
    16     5     6    1
    17    15    16    1
    18    15    14    1
    19    16    18    1
    20    23    22   ar
    21     7     6   ar
    22     6     8   ar
    23    20    22    1
    24    20    19    1
    25    22    24   ar
    26    18    19    1
