@<TRIPOS>MOLECULE
2qse_1HP_A_1.pdb
 18 20 0 0 0
SMALL
GASTEIGER

@<TRIPOS>ATOM
      1  CAI        3.4250    4.0360   -6.4490 C.2     1  1HP1        0.0278
      2  CAQ        2.1430    3.7530   -6.0100 C.2     1  1HP1        0.1300
      3  NAR        1.3810    4.2840   -5.0700 N.pl3   1  1HP1       -0.2370
      4  CAA        1.7770    5.4130   -4.2000 C.3     1  1HP1        0.1218
      5  CAM        0.2250    3.6340   -5.0580 C.cat   1  1HP1        0.2919
      6  NAB       -0.7930    3.8890   -4.2550 N.pl3   1  1HP1       -0.0770
      7  NAK        0.2200    2.6780   -5.9800 N.2     1  1HP1       -0.3153
      8  CAP        1.4040    2.7230   -6.5980 C.1     1  1HP1        0.1048
      9  NAJ        1.9260    1.9850   -7.5990 N.2     1  1HP1       -0.1812
     10  CAH        3.1480    2.2270   -8.0380 C.2     1  1HP1        0.1106
     11  CAO        3.9170    3.2650   -7.4980 C.2     1  1HP1        0.0219
     12  CAN        5.2080    3.4710   -7.9500 C.ar    1  1HP1        0.0018
     13  CAF        5.5530    3.4290   -9.3000 C.ar    1  1HP1        0.0033
     14  CAD        6.8840    3.6080   -9.6710 C.ar    1  1HP1        0.0420
     15  CAL        7.8510    3.8200   -8.6870 C.ar    1  1HP1        0.1957
     16  OAC        9.1520    3.9970   -9.0010 O.3     1  1HP1       -0.2866
     17  CAE        7.4980    3.8490   -7.3440 C.ar    1  1HP1        0.0420
     18  CAG        6.1800    3.6660   -6.9730 C.ar    1  1HP1        0.0033
@<TRIPOS>BOND
     1    14    13   ar
     2    14    15   ar
     3    13    12   ar
     4    16    15    1
     5    15    17   ar
     6    10     9    1
     7    10    11    2
     8    12    11    1
     9    12    18   ar
    10     9     8    2
    11    11     1    1
    12    17    18   ar
    13     8     2    1
    14     8     7    2
    15     1     2    2
    16     2     3    1
    17     7     5    2
    18     3     5    1
    19     3     4    1
    20     5     6    1
