@<TRIPOS>MOLECULE
2qsp_HEM_A_1.pdb
 43 50 0 0 0
SMALL
GASTEIGER

@<TRIPOS>ATOM
      1  CHA       21.1950   -7.1390   32.7520 C.2   142  HEM142      0.0000
      2  CHB       23.1770   -8.6380   28.5500 C.2   142  HEM142      0.0000
      3  CHC       20.6550   -5.2570   26.1730 C.2   142  HEM142      0.0000
      4  CHD       18.9230   -3.5190   30.4030 C.2   142  HEM142      0.0000
      5  C1A       21.9620   -7.8130   31.8140 C.ar  142  HEM142      0.0000
      6  C2A       22.9170   -8.8880   32.1170 C.ar  142  HEM142      0.0000
      7  C3A       23.4690   -9.2940   30.9590 C.ar  142  HEM142      0.0000
      8  C4A       22.8900   -8.4930   29.9020 C.ar  142  HEM142      0.0000
      9  CMA       24.5140  -10.4240   30.7350 C.3   142  HEM142      0.0000
     10  CAA       23.1860   -9.3990   33.5750 C.3   142  HEM142      0.0000
     11  CBA       22.1690  -10.4990   33.8860 C.3   142  HEM142      0.0000
     12  CGA       22.3290  -11.0660   35.2910 C.2   142  HEM142      0.0000
     13  O1A       22.6370  -10.2890   36.2350 O.co2 142  HEM142      0.0000
     14  O2A       22.1290  -12.3050   35.4860 O.co2 142  HEM142      0.0000
     15  C1B       22.6490   -7.8890   27.5270 C.2   142  HEM142      0.0000
     16  C2B       22.9220   -8.0580   26.1120 C.2   142  HEM142      0.0000
     17  C3B       22.2130   -7.1250   25.4450 C.2   142  HEM142      0.0000
     18  C4B       21.4840   -6.3330   26.4230 C.2   142  HEM142      0.0000
     19  CMB       23.8600   -9.1590   25.5230 C.3   142  HEM142      0.0000
     20  CAB       22.1730   -6.8980   23.9160 C.2   142  HEM142      0.0000
     21  CBB       23.2750   -7.1320   23.1800 C.2   142  HEM142      0.0000
     22  C1C       20.0290   -4.4610   27.1280 C.ar  142  HEM142      0.0000
     23  C2C       19.3060   -3.2290   26.8480 C.ar  142  HEM142      0.0000
     24  C3C       18.8320   -2.7580   28.0190 C.ar  142  HEM142      0.0000
     25  C4C       19.2490   -3.6560   29.0710 C.ar  142  HEM142      0.0000
     26  CMC       19.1210   -2.6260   25.4220 C.3   142  HEM142      0.0000
     27  CAC       18.0220   -1.4680   28.2530 C.2   142  HEM142      0.0000
     28  CBC       18.4130   -0.3250   27.6610 C.2   142  HEM142      0.0000
     29  C1D       19.3660   -4.3260   31.4050 C.2   142  HEM142      0.0000
     30  C2D       19.1160   -4.0790   32.8030 C.2   142  HEM142      0.0000
     31  C3D       19.7940   -5.2130   33.5320 C.2   142  HEM142      0.0000
     32  C4D       20.4220   -6.0130   32.5150 C.2   142  HEM142      0.0000
     33  CMD       18.2550   -2.9340   33.3700 C.3   142  HEM142      0.0000
     34  CAD       19.8690   -5.4140   35.0620 C.3   142  HEM142      0.0000
     35  CBD       20.8400   -4.3520   35.5930 C.3   142  HEM142      0.0000
     36  CGD       20.7390   -4.4320   37.0930 C.2   142  HEM142      0.0000
     37  O1D       19.9710   -3.6540   37.7020 O.co2 142  HEM142      0.0000
     38  O2D       21.3980   -5.3240   37.6420 O.co2 142  HEM142      0.0000
     39  NA        21.9660   -7.6160   30.4590 N.ar  142  HEM142      0.0000
     40  NB        21.7780   -6.8240   27.6700 N.2   142  HEM142      0.0000
     41  NC        19.9920   -4.6740   28.5050 N.ar  142  HEM142      0.0000
     42  ND        20.1220   -5.4710   31.2680 N.2   142  HEM142      0.0000
     43 FE         20.9480   -6.1980   29.4530 Fe    142  HEM142      0.0000
@<TRIPOS>BOND
     1    21    20    2
     2    20    17    1
     3    26    23    1
     4    17    16    2
     5    17    18    1
     6    19    16    1
     7    16    15    1
     8     3    18    2
     9     3    22    1
    10    18    40    1
    11    23    22   ar
    12    23    24   ar
    13    22    41   ar
    14    15    40    2
    15    15     2    1
    16    28    27    2
    17    40    43    1
    18    24    27    1
    19    24    25   ar
    20    41    25   ar
    21    41    43    1
    22     2     8    2
    23    25     4    1
    24    43    39    1
    25    43    42    1
    26     8    39   ar
    27     8     7   ar
    28     4    29    2
    29    39     5   ar
    30     9     7    1
    31     7     6   ar
    32    42    29    1
    33    42    32    2
    34    29    30    1
    35     5     6   ar
    36     5     1    2
    37     6    10    1
    38    32     1    1
    39    32    31    1
    40    30    33    1
    41    30    31    2
    42    31    34    1
    43    10    11    1
    44    11    12    1
    45    34    35    1
    46    12    14   ar
    47    12    13   ar
    48    35    36    1
    49    36    38   ar
    50    36    37   ar
