@<TRIPOS>MOLECULE
2qss_HEM_A_1.pdb
 43 50 0 0 0
SMALL
GASTEIGER

@<TRIPOS>ATOM
      1  CHA       21.2150   -7.2500   32.6930 C.2   142  HEM142      0.0000
      2  CHB       23.1360   -8.7390   28.4930 C.2   142  HEM142      0.0000
      3  CHC       20.4910   -5.4480   26.0940 C.2   142  HEM142      0.0000
      4  CHD       19.0100   -3.6020   30.3530 C.2   142  HEM142      0.0000
      5  C1A       21.9990   -7.9310   31.7780 C.ar  142  HEM142      0.0000
      6  C2A       22.9340   -9.0100   32.0540 C.ar  142  HEM142      0.0000
      7  C3A       23.4540   -9.4290   30.8870 C.ar  142  HEM142      0.0000
      8  C4A       22.8880   -8.6050   29.8320 C.ar  142  HEM142      0.0000
      9  CMA       24.4800  -10.5390   30.6250 C.3   142  HEM142      0.0000
     10  CAA       23.2070   -9.5240   33.5050 C.3   142  HEM142      0.0000
     11  CBA       22.2700  -10.6900   33.8060 C.3   142  HEM142      0.0000
     12  CGA       22.2500  -11.0430   35.2930 C.2   142  HEM142      0.0000
     13  O1A       22.2270  -12.2570   35.6250 O.co2 142  HEM142      0.0000
     14  O2A       22.2450  -10.1280   36.1580 O.co2 142  HEM142      0.0000
     15  C1B       22.5710   -8.0270   27.4700 C.2   142  HEM142      0.0000
     16  C2B       22.8610   -8.1830   26.0520 C.2   142  HEM142      0.0000
     17  C3B       22.1410   -7.2610   25.4050 C.2   142  HEM142      0.0000
     18  C4B       21.3810   -6.4860   26.3730 C.2   142  HEM142      0.0000
     19  CMB       23.8280   -9.2320   25.4260 C.3   142  HEM142      0.0000
     20  CAB       22.0880   -7.0350   23.8680 C.2   142  HEM142      0.0000
     21  CBB       23.1890   -7.0530   23.0920 C.2   142  HEM142      0.0000
     22  C1C       19.9240   -4.6050   27.0230 C.ar  142  HEM142      0.0000
     23  C2C       19.2420   -3.3440   26.7710 C.ar  142  HEM142      0.0000
     24  C3C       18.8380   -2.8350   27.9600 C.ar  142  HEM142      0.0000
     25  C4C       19.2370   -3.7690   28.9960 C.ar  142  HEM142      0.0000
     26  CMC       19.0810   -2.7620   25.3440 C.3   142  HEM142      0.0000
     27  CAC       18.1170   -1.5330   28.2940 C.2   142  HEM142      0.0000
     28  CBC       18.2740   -0.3910   27.6090 C.2   142  HEM142      0.0000
     29  C1D       19.4480   -4.4210   31.3520 C.2   142  HEM142      0.0000
     30  C2D       19.1650   -4.1830   32.7680 C.2   142  HEM142      0.0000
     31  C3D       19.8150   -5.3410   33.4780 C.2   142  HEM142      0.0000
     32  C4D       20.4670   -6.1350   32.4680 C.2   142  HEM142      0.0000
     33  CMD       18.3280   -3.0310   33.3660 C.3   142  HEM142      0.0000
     34  CAD       19.8520   -5.5800   35.0140 C.3   142  HEM142      0.0000
     35  CBD       20.9800   -4.6690   35.4950 C.3   142  HEM142      0.0000
     36  CGD       20.8130   -4.6360   37.0060 C.2   142  HEM142      0.0000
     37  O1D       20.0430   -3.8330   37.5780 O.co2 142  HEM142      0.0000
     38  O2D       21.4370   -5.4850   37.6340 O.co2 142  HEM142      0.0000
     39  NA        22.0100   -7.7310   30.4180 N.ar  142  HEM142      0.0000
     40  NB        21.6710   -6.9880   27.6390 N.2   142  HEM142      0.0000
     41  NC        19.8790   -4.8130   28.3750 N.ar  142  HEM142      0.0000
     42  ND        20.2070   -5.5800   31.2170 N.2   142  HEM142      0.0000
     43 FE         20.9130   -6.3180   29.4030 Fe    142  HEM142      0.0000
@<TRIPOS>BOND
     1    21    20    2
     2    20    17    1
     3    26    23    1
     4    17    16    2
     5    17    18    1
     6    19    16    1
     7    16    15    1
     8     3    18    2
     9     3    22    1
    10    18    40    1
    11    23    22   ar
    12    23    24   ar
    13    22    41   ar
    14    15    40    2
    15    15     2    1
    16    28    27    2
    17    40    43    1
    18    24    27    1
    19    24    25   ar
    20    41    25   ar
    21    41    43    1
    22     2     8    2
    23    25     4    1
    24    43    39    1
    25    43    42    1
    26     8    39   ar
    27     8     7   ar
    28     4    29    2
    29    39     5   ar
    30     9     7    1
    31     7     6   ar
    32    42    29    1
    33    42    32    2
    34    29    30    1
    35     5     6   ar
    36     5     1    2
    37     6    10    1
    38    32     1    1
    39    32    31    1
    40    30    33    1
    41    30    31    2
    42    31    34    1
    43    10    11    1
    44    11    12    1
    45    34    35    1
    46    12    13   ar
    47    12    14   ar
    48    35    36    1
    49    36    37   ar
    50    36    38   ar
