@<TRIPOS>MOLECULE
2qsy_ADP_A_1.pdb
 27 29 0 0 0
SMALL
GASTEIGER

@<TRIPOS>ATOM
      1  PB        16.6080   49.7600    5.4310 P.3   1101  ADP1101     0.5373
      2  O1B       15.1550   49.5380    5.1730 O.3   1101  ADP1101    -0.1143
      3  O2B       17.5170   48.6740    4.9840 O.3   1101  ADP1101    -0.1143
      4  O3B       17.0460   51.1180    4.9710 O.2   1101  ADP1101    -0.2221
      5  PA        17.9020   49.2260    7.9720 P.3   1101  ADP1101     0.2231
      6  O1A       19.2100   49.8530    7.4910 O.2   1101  ADP1101    -0.5169
      7  O2A       17.8020   47.7660    8.3300 O.3   1101  ADP1101    -0.4370
      8  O3A       16.7320   49.7810    7.0150 O.3   1101  ADP1101    -0.2261
      9  O5'       17.4830   50.0410    9.3100 O.3   1101  ADP1101    -0.3111
     10  C5'       17.2000   51.4540    9.2760 C.3   1101  ADP1101     0.1813
     11  C4'       17.3920   52.0460   10.6650 C.3   1101  ADP1101     0.1821
     12  O4'       16.3880   51.5580   11.5460 O.3   1101  ADP1101    -0.3135
     13  C3'       18.7280   51.6480   11.3110 C.3   1101  ADP1101     0.2184
     14  O3'       19.2000   52.7140   12.1570 O.3   1101  ADP1101    -0.2174
     15  C2'       18.4070   50.4040   12.1200 C.3   1101  ADP1101     0.2570
     16  O2'       19.2680   50.1480   13.2450 O.3   1101  ADP1101    -0.2130
     17  C1'       16.9670   50.6770   12.5330 C.3   1101  ADP1101     0.3186
     18  N9        16.1090   49.4580   12.6520 N.pl3 1101  ADP1101    -0.1439
     19  C8        16.1810   48.2670   11.9880 C.3   1101  ADP1101     0.3377
     20  N7        15.1990   47.4330   12.4110 N.2   1101  ADP1101    -0.2095
     21  C5        14.4880   48.1010   13.3560 C.2   1101  ADP1101     0.2526
     22  C6        13.3190   47.8270   14.2220 C.2   1101  ADP1101     0.4393
     23  N6        12.6960   46.6480   14.1350 N.pl3 1101  ADP1101     0.2180
     24  N1        12.9010   48.7820   15.0980 N.2   1101  ADP1101     0.0021
     25  C2        13.5140   49.9760   15.1760 C.3   1101  ADP1101     0.5254
     26  N3        14.5860   50.2890   14.4180 N.2   1101  ADP1101    -0.0055
     27  C4        15.0960   49.4110   13.5130 C.2   1101  ADP1101     0.3518
@<TRIPOS>BOND
     1     4     1    2
     2     3     1    1
     3     2     1    1
     4     1     8    1
     5     8     5    1
     6     6     5    2
     7     5     7    1
     8     5     9    1
     9    10     9    1
    10    10    11    1
    11    11    13    1
    12    11    12    1
    13    13    15    1
    14    13    14    1
    15    12    17    1
    16    19    20    1
    17    19    18    1
    18    15    17    1
    19    15    16    1
    20    20    21    2
    21    17    18    1
    22    18    27    1
    23    21    27    1
    24    21    22    1
    25    27    26    2
    26    23    22    1
    27    22    24    2
    28    26    25    1
    29    24    25    1
