@<TRIPOS>MOLECULE
2qsz_NMN_A_1.pdb
 22 23 0 0 0
SMALL
GASTEIGER

@<TRIPOS>ATOM
      1  O3P        9.1850  -19.8940   -3.2540 O.3   201  NMN201     -0.1145
      2  P         10.2120  -19.0930   -2.5780 P.3   201  NMN201      0.5327
      3  O1P       10.6490  -17.7950   -3.3710 O.2   201  NMN201     -0.2224
      4  O2P       11.5450  -19.9070   -2.2790 O.3   201  NMN201     -0.1145
      5  O5R        9.6190  -18.6250   -1.1060 O.3   201  NMN201     -0.2675
      6  C5R       10.4400  -17.9340   -0.1740 C.3   201  NMN201      0.1859
      7  C4R       10.1370  -16.4350   -0.3350 C.3   201  NMN201      0.1801
      8  O4R        8.7440  -16.1800   -0.0600 O.3   201  NMN201     -0.3327
      9  C3R       10.9360  -15.6110    0.6850 C.3   201  NMN201      0.2158
     10  O3R       12.0950  -15.1070   -0.0060 O.3   201  NMN201     -0.2175
     11  C2R        9.9180  -14.5310    1.1640 C.3   201  NMN201      0.2309
     12  O2R       10.3660  -13.1870    0.9480 O.3   201  NMN201     -0.2158
     13  C1R        8.6790  -14.7770    0.2830 C.3   201  NMN201      0.2263
     14  N1         7.3580  -14.4430    0.8720 N.pl3 201  NMN201     -0.2787
     15  C2         6.4370  -15.4530    1.1200 C.3   201  NMN201      0.1244
     16  C3         5.1870  -15.1750    1.6660 C.2   201  NMN201      0.0544
     17  C7         4.1850  -16.3320    1.9420 C.2   201  NMN201      0.2818
     18  O7         3.2350  -16.1860    2.7210 O.2   201  NMN201     -0.2670
     19  N7         4.4030  -17.4640    1.2850 N.am  201  NMN201     -0.0839
     20  C4         4.8470  -13.8450    1.9710 C.2   201  NMN201      0.0033
     21  C5         5.7510  -12.8230    1.7140 C.2   201  NMN201      0.0157
     22  C6         7.0030  -13.1100    1.1690 C.2   201  NMN201      0.0633
@<TRIPOS>BOND
     1     3     2    2
     2     1     2    1
     3     2     4    1
     4     2     5    1
     5     5     6    1
     6     7     6    1
     7     7     8    1
     8     7     9    1
     9     8    13    1
    10    10     9    1
    11    13    14    1
    12    13    11    1
    13     9    11    1
    14    14    15    1
    15    14    22    1
    16    12    11    1
    17    15    16    1
    18    22    21    2
    19    19    17   am
    20    16    17    1
    21    16    20    2
    22    21    20    1
    23    17    18    2
