@<TRIPOS>MOLECULE
2qt0_NNR_A_1.pdb
 18 19 0 0 0
SMALL
GASTEIGER

@<TRIPOS>ATOM
      1  O2R      -19.3880   -2.3470  -12.0210 O.3   1103  NNR1103    -0.2158
      2  C2R      -19.2160   -1.4430  -10.8660 C.3   1103  NNR1103     0.2309
      3  C3R      -20.3710   -1.5120   -9.8560 C.3   1103  NNR1103     0.2159
      4  O3R      -21.5020   -2.1800  -10.4080 O.3   1103  NNR1103    -0.2175
      5  C4R      -20.7240   -0.0220   -9.5700 C.3   1103  NNR1103     0.1828
      6  C5R      -20.9490    0.2550   -8.0390 C.3   1103  NNR1103     0.2142
      7  O5R      -20.3460    1.4850   -7.7020 O.3   1103  NNR1103    -0.2176
      8  O4R      -19.5990    0.7590  -10.0730 O.3   1103  NNR1103    -0.3326
      9  C1R      -19.2540    0.0310  -11.2950 C.3   1103  NNR1103     0.2263
     10  N1       -17.8810    0.4070  -11.7610 N.pl3 1103  NNR1103    -0.2787
     11  C2       -17.0730    1.2500  -10.9760 C.3   1103  NNR1103     0.1244
     12  C6       -17.3710   -0.1150  -12.9730 C.2   1103  NNR1103     0.0633
     13  C5       -16.0900    0.2450  -13.3860 C.2   1103  NNR1103     0.0157
     14  C4       -15.3150    1.0910  -12.6090 C.2   1103  NNR1103     0.0033
     15  C3       -15.8010    1.5970  -11.4070 C.2   1103  NNR1103     0.0544
     16  C7       -14.9250    2.5270  -10.5500 C.2   1103  NNR1103     0.2818
     17  O7       -13.7170    2.3840  -10.5390 O.2   1103  NNR1103    -0.2670
     18  N7       -15.5640    3.4380   -9.8280 N.am  1103  NNR1103    -0.0839
@<TRIPOS>BOND
     1    13    12    2
     2    13    14    1
     3    12    10    1
     4    14    15    2
     5     1     2    1
     6    10     9    1
     7    10    11    1
     8    15    11    1
     9    15    16    1
    10     9     2    1
    11     9     8    1
    12     2     3    1
    13    16    17    2
    14    16    18   am
    15     4     3    1
    16     8     5    1
    17     3     5    1
    18     5     6    1
    19     6     7    1
