@<TRIPOS>MOLECULE
2qt0_ANP_A_1.pdb
 31 33 0 0 0
SMALL
GASTEIGER

@<TRIPOS>ATOM
      1  PG       -23.6220    3.3130   -8.5600 P.3   1102  ANP1102     0.4884
      2  O1G      -22.6900    3.7620   -7.4300 O.3   1102  ANP1102    -0.1240
      3  O2G      -22.8910    3.5960   -9.8940 O.2   1102  ANP1102    -0.2331
      4  O3G      -23.9250    1.8480   -8.4510 O.3   1102  ANP1102    -0.1240
      5  PB       -25.7740    4.6830   -7.2070 P.3   1102  ANP1102     0.4669
      6  O1B      -26.5620    3.6120   -6.6980 O.2   1102  ANP1102    -0.2351
      7  O2B      -24.8660    5.4490   -6.2730 O.3   1102  ANP1102    -0.1253
      8  N3B      -24.9430    4.3030   -8.5950 N.3   1102  ANP1102    -0.0163
      9  PA       -26.7170    7.2660   -8.0640 P.3   1102  ANP1102     0.2220
     10  O1A      -25.3880    7.4110   -8.6610 O.2   1102  ANP1102    -0.5170
     11  O2A      -27.1530    8.0430   -6.8620 O.3   1102  ANP1102    -0.4370
     12  O3A      -26.8930    5.7280   -7.8310 O.3   1102  ANP1102    -0.2360
     13  O5'      -27.8430    7.5160   -9.2030 O.3   1102  ANP1102    -0.3111
     14  C5'      -27.6380    6.7400  -10.4280 C.3   1102  ANP1102     0.1813
     15  C4'      -28.5550    7.1830  -11.5590 C.3   1102  ANP1102     0.1821
     16  O4'      -29.9470    7.0060  -11.1100 O.3   1102  ANP1102    -0.3135
     17  C3'      -28.3770    8.6490  -11.8510 C.3   1102  ANP1102     0.2184
     18  O3'      -28.8400    8.8860  -13.1830 O.3   1102  ANP1102    -0.2174
     19  C2'      -29.3490    9.2900  -10.8820 C.3   1102  ANP1102     0.2570
     20  O2'      -29.7440   10.5760  -11.3750 O.3   1102  ANP1102    -0.2130
     21  C1'      -30.5340    8.3230  -10.9620 C.3   1102  ANP1102     0.3186
     22  N9       -31.3250    8.2360   -9.7210 N.pl3 1102  ANP1102    -0.1439
     23  C8       -30.8460    8.2460   -8.4590 C.3   1102  ANP1102     0.3377
     24  N7       -31.8670    8.1390   -7.5940 N.2   1102  ANP1102    -0.2095
     25  C5       -33.0000    8.0530   -8.3280 C.2   1102  ANP1102     0.2526
     26  C6       -34.3580    7.9330   -7.9900 C.2   1102  ANP1102     0.4393
     27  N6       -34.7320    7.8670   -6.7050 N.pl3 1102  ANP1102     0.2180
     28  N1       -35.2700    7.8860   -8.9850 N.2   1102  ANP1102     0.0021
     29  C2       -34.8950    7.9470  -10.2850 C.3   1102  ANP1102     0.5254
     30  N3       -33.5980    8.0600  -10.6560 N.2   1102  ANP1102    -0.0055
     31  C4       -32.6480    8.1190   -9.6810 C.2   1102  ANP1102     0.3518
@<TRIPOS>BOND
     1    18    17    1
     2    17    15    1
     3    17    19    1
     4    15    16    1
     5    15    14    1
     6    20    19    1
     7    16    21    1
     8    21    19    1
     9    21    22    1
    10    30    29    1
    11    30    31    2
    12    14    13    1
    13    29    28    1
    14     3     1    2
    15    22    31    1
    16    22    23    1
    17    31    25    1
    18    13     9    1
    19    28    26    2
    20    10     9    2
    21     8     1    1
    22     8     5    1
    23     1     4    1
    24     1     2    1
    25    23    24    1
    26    25    26    1
    27    25    24    2
    28     9    12    1
    29     9    11    1
    30    26    27    1
    31    12     5    1
    32     5     6    2
    33     5     7    1
