@<TRIPOS>MOLECULE
2qt1_NNR_A_1.pdb
 18 19 0 0 0
SMALL
GASTEIGER

@<TRIPOS>ATOM
      1  O2R       10.1220  -13.0460    1.1180 O.3   202  NNR202     -0.2158
      2  C2R        9.6340  -14.3780    1.3560 C.3   202  NNR202      0.2309
      3  C3R       10.6800  -15.4390    0.9390 C.3   202  NNR202      0.2159
      4  O3R       11.8260  -14.8720    0.2200 O.3   202  NNR202     -0.2175
      5  C4R        9.8770  -16.3510   -0.0220 C.3   202  NNR202      0.1828
      6  C5R        9.9710  -17.8650    0.1970 C.3   202  NNR202      0.2142
      7  O5R        9.4820  -18.4950   -1.0040 O.3   202  NNR202     -0.2176
      8  O4R        8.4760  -15.9740    0.1440 O.3   202  NNR202     -0.3326
      9  C1R        8.4860  -14.5960    0.4030 C.3   202  NNR202      0.2263
     10  N1         7.2280  -14.2720    1.0860 N.pl3 202  NNR202     -0.2787
     11  C2         6.2390  -15.2370    1.3210 C.3   202  NNR202      0.1244
     12  C6         7.0440  -12.9300    1.4820 C.2   202  NNR202      0.0633
     13  C5         5.8690  -12.5500    2.1350 C.2   202  NNR202      0.0157
     14  C4         4.8870  -13.5120    2.3820 C.2   202  NNR202      0.0033
     15  C3         5.0640  -14.8510    1.9780 C.2   202  NNR202      0.0544
     16  C7         3.9420  -15.8740    2.2520 C.2   202  NNR202      0.2818
     17  O7         3.0070  -15.5880    3.0080 O.2   202  NNR202     -0.2670
     18  N7         4.0520  -17.0560    1.6150 N.am  202  NNR202     -0.0839
@<TRIPOS>BOND
     1     7     6    1
     2     5     8    1
     3     5     6    1
     4     5     3    1
     5     8     9    1
     6     4     3    1
     7     9    10    1
     8     9     2    1
     9     3     2    1
    10    10    11    1
    11    10    12    1
    12     1     2    1
    13    11    15    1
    14    12    13    2
    15    18    16   am
    16    15    16    1
    17    15    14    2
    18    13    14    1
    19    16    17    2
