@<TRIPOS>MOLECULE
2qt5_III_X_1.pdb
 28 27 0 0 0
SMALL
GASTEIGER

@<TRIPOS>ATOM
      1  N          7.7610   25.6870    0.2540 N.3   1006  GLY1006    -0.1210
      2  CA         7.6030   24.9110    1.5200 C.3   1006  GLY1006     0.1956
      3  C          8.6570   25.2400    2.5600 C.2   1006  GLY1006     0.2613
      4  O          9.6320   25.9400    2.2730 O.2   1006  GLY1006    -0.2717
      5  N          8.4710   24.7190    3.7690 N.am  1007  THR1007    -0.1938
      6  CA         9.3880   24.9910    4.8790 C.3   1007  THR1007     0.2028
      7  C          9.9550   23.6930    5.4550 C.2   1007  THR1007     0.2642
      8  O          9.2210   22.7170    5.6540 O.2   1007  THR1007    -0.2714
      9  CB         8.6800   25.7940    5.9930 C.3   1007  THR1007     0.1808
     10  OG1        7.8960   26.8450    5.4070 O.3   1007  THR1007    -0.2208
     11  CG2        9.6890   26.3720    6.9910 C.3   1007  THR1007     0.0379
     12  N         11.2600   23.6980    5.7220 N.am  1008  GLU1008    -0.1963
     13  CA        11.9490   22.5410    6.2840 C.3   1008  GLU1008     0.1733
     14  C         11.8140   22.4500    7.7980 C.2   1008  GLU1008     0.2617
     15  O         11.9580   23.4490    8.5140 O.2   1008  GLU1008    -0.2715
     16  CB        13.4370   22.5520    5.9090 C.3   1008  GLU1008     0.0429
     17  CG        14.1760   21.2640    6.2970 C.3   1008  GLU1008     0.1163
     18  CD        15.5940   21.1940    5.7530 C.2   1008  GLU1008     0.3649
     19  OE1       16.2810   22.2430    5.6890 O.co2 1008  GLU1008    -0.2457
     20  OE2       16.0280   20.0800    5.3910 O.co2 1008  GLU1008    -0.2457
     21  N         11.5420   21.2370    8.2720 N.am  1009  VAL1009    -0.1942
     22  CA        11.5150   20.9340    9.6990 C.3   1009  VAL1009     0.1977
     23  C         12.4770   19.7840   10.0020 C.2   1009  VAL1009     0.3842
     24  O         13.1510   19.2670    9.0970 O.co2 1009  VAL1009    -0.2437
     25  CB        10.0810   20.6060   10.2110 C.3   1009  VAL1009     0.0311
     26  CG1        9.1640   21.8100   10.0370 C.3   1009  VAL1009     0.0023
     27  CG2        9.5050   19.3660    9.5050 C.3   1009  VAL1009     0.0023
     28  OXT       12.6010   19.3510   11.1520 O.co2 1009  VAL1009    -0.2437
@<TRIPOS>BOND
     1     1     2    1
     2     2     3    1
     3     4     3    2
     4     3     5   am
     5     5     6    1
     6     6     7    1
     7     6     9    1
     8    20    18   ar
     9    10     9    1
    10     7     8    2
    11     7    12   am
    12    19    18   ar
    13    12    13    1
    14    18    17    1
    15    16    13    1
    16    16    17    1
    17     9    11    1
    18    13    14    1
    19    14    21   am
    20    14    15    2
    21    21    22    1
    22    24    23   ar
    23    27    25    1
    24    22    23    1
    25    22    25    1
    26    23    28   ar
    27    26    25    1
