@<TRIPOS>MOLECULE
2qt6_CBS_A_1.pdb
 28 29 0 0 0
SMALL
GASTEIGER

@<TRIPOS>ATOM
      1  C1A      -14.6470    6.0640   42.1390 C.3   603  CBS603      0.2586
      2  C2A      -13.7390    7.1880   41.6810 C.3   603  CBS603      0.1842
      3  C3A      -14.3940    8.5580   41.9700 C.3   603  CBS603      0.2094
      4  C4A      -15.8460    8.6150   41.4580 C.3   603  CBS603      0.2136
      5  C5A      -16.5820    7.4210   42.0290 C.3   603  CBS603      0.1834
      6  C6A      -18.0300    7.3860   41.5710 C.3   603  CBS603      0.2142
      7  C7A      -11.2740    7.0720   41.7640 C.2   603  CBS603      0.2420
      8  C8A      -10.1050    7.0240   42.7090 C.3   603  CBS603      0.0964
      9  N2A      -12.4790    7.0240   42.3960 N.am  603  CBS603     -0.1992
     10  O1A      -14.1670    4.8730   41.5280 O.3   603  CBS603     -0.3264
     11  O3A      -13.6200    9.6000   41.3760 O.3   603  CBS603     -0.2183
     12  O4A      -16.5260    9.8090   41.9390 O.3   603  CBS603     -0.2176
     13  O5A      -15.9650    6.1950   41.5740 O.3   603  CBS603     -0.3262
     14  O6A      -18.1000    7.2280   40.1530 O.3   603  CBS603     -0.2176
     15  O7A      -11.1420    7.2580   40.5470 O.2   603  CBS603     -0.2733
     16  C1B      -13.7270    0.8590   42.8430 C.3   603  CBS603      0.1665
     17  C2B      -14.7350    1.7360   43.6190 C.3   603  CBS603      0.1575
     18  C3B      -15.0880    2.9990   42.8380 C.3   603  CBS603      0.2037
     19  C4B      -13.8670    3.8650   42.4580 C.3   603  CBS603      0.1794
     20  C5B      -12.8580    2.9150   41.7780 C.3   603  CBS603      0.1777
     21  C6B      -11.5570    3.6450   41.4300 C.3   603  CBS603      0.2140
     22  C7B      -16.4710    0.7780   45.0900 C.2   603  CBS603      0.2420
     23  C8B      -17.7260   -0.0460   45.0990 C.3   603  CBS603      0.0964
     24  N2B      -15.9380    0.9360   43.8640 N.am  603  CBS603     -0.2019
     25  O3B      -15.9630    3.8250   43.6820 O.3   603  CBS603     -0.2185
     26  O5B      -12.6140    1.7400   42.5730 O.3   603  CBS603     -0.3491
     27  O6B      -10.8790    3.9610   42.6440 O.3   603  CBS603     -0.2176
     28  O7B      -16.0030    1.2620   46.1080 O.2   603  CBS603     -0.2733
@<TRIPOS>BOND
     1    14     6    1
     2    15     7    2
     3    11     3    1
     4    21    20    1
     5    21    27    1
     6     4    12    1
     7     4     3    1
     8     4     5    1
     9    10     1    1
    10    10    19    1
    11     6     5    1
    12    13     5    1
    13    13     1    1
    14     2     3    1
    15     2     1    1
    16     2     9    1
    17     7     9   am
    18     7     8    1
    19    20    19    1
    20    20    26    1
    21    19    18    1
    22    26    16    1
    23    18    17    1
    24    18    25    1
    25    16    17    1
    26    17    24    1
    27    24    22   am
    28    22    23    1
    29    22    28    2
