@<TRIPOS>MOLECULE
2qt6_BMA_A_1.pdb
 11 11 0 0 0
SMALL
GASTEIGER

@<TRIPOS>ATOM
      1  C1       -13.6340   17.9470   43.3330 C.3   608  BMA608      0.1777
      2  C2       -13.2530   18.1160   41.8680 C.3   608  BMA608      0.2141
      3  C3       -12.1330   17.0980   41.6580 C.3   608  BMA608      0.2173
      4  C4       -11.0670   17.1490   42.7620 C.3   608  BMA608      0.2142
      5  C5       -11.6270   17.4490   44.1580 C.3   608  BMA608      0.1810
      6  C6       -10.5660   17.7400   45.2000 C.3   608  BMA608      0.2141
      7  O2       -12.7770   19.4240   41.6070 O.3   608  BMA608     -0.2176
      8  O3       -11.5510   17.2410   40.3760 O.3   608  BMA608     -0.2175
      9  O4       -10.5010   15.8730   42.8620 O.3   608  BMA608     -0.2176
     10  O5       -12.5920   18.4810   44.1230 O.3   608  BMA608     -0.3481
     11  O6       -11.2740   17.9220   46.4070 O.3   608  BMA608     -0.2176
@<TRIPOS>BOND
     1     8     3    1
     2     7     2    1
     3     3     2    1
     4     3     4    1
     5     2     1    1
     6     4     9    1
     7     4     5    1
     8     1    10    1
     9    10     5    1
    10     5     6    1
    11     6    11    1
