@<TRIPOS>MOLECULE
2qt6_MAN_B_1.pdb
 11 11 0 0 0
SMALL
GASTEIGER

@<TRIPOS>ATOM
      1  C1        69.3350   61.5810  -11.0640 C.3   3711  MAN3711     0.1777
      2  C2        69.4430   63.0200  -10.5540 C.3   3711  MAN3711     0.2141
      3  C3        69.0110   63.1350   -9.0880 C.3   3711  MAN3711     0.2173
      4  C4        67.7830   62.2750   -8.7790 C.3   3711  MAN3711     0.2142
      5  C5        67.9750   60.8210   -9.2530 C.3   3711  MAN3711     0.1810
      6  C6        67.9660   59.8030   -8.1160 C.3   3711  MAN3711     0.2141
      7  O2        68.6370   63.8500  -11.3640 O.3   3711  MAN3711    -0.2176
      8  O3        68.7380   64.4840   -8.7750 O.3   3711  MAN3711    -0.2175
      9  O4        67.4730   62.3400   -7.4020 O.3   3711  MAN3711    -0.2176
     10  O5        69.1840   60.6760   -9.9820 O.3   3711  MAN3711    -0.3481
     11  O6        66.6670   59.7310   -7.5700 O.3   3711  MAN3711    -0.2176
@<TRIPOS>BOND
     1     7     2    1
     2     1     2    1
     3     1    10    1
     4     2     3    1
     5    10     5    1
     6     5     4    1
     7     5     6    1
     8     3     4    1
     9     3     8    1
    10     4     9    1
    11     6    11    1
