@<TRIPOS>MOLECULE
2qt9_524_A_1.pdb
 31 34 0 0 0
SMALL
GASTEIGER

@<TRIPOS>ATOM
      1  C2        47.8790   52.6120   33.5670 C.ar  1522  5241522     0.0389
      2  C4        45.4160   52.4660   33.1680 C.ar  1522  5241522     0.0149
      3  C5        45.1830   51.9390   34.4340 C.ar  1522  5241522     0.0618
      4  C1        47.6300   52.0450   34.9130 C.ar  1522  5241522     0.1652
      5  C3        46.8000   52.8040   32.7380 C.ar  1522  5241522     0.0044
      6  N6        46.3710   51.7390   35.3100 N.ar  1522  5241522    -0.2147
      7  N7        46.3820   51.2820   36.4620 N.ar  1522  5241522    -0.1413
      8  C8        47.6660   51.2870   36.8440 C.ar  1522  5241522     0.2213
      9  N9        48.4960   51.7650   35.8930 N.ar  1522  5241522    -0.2034
     10  C14       39.4910   51.7900   36.1070 C.3   1522  5241522     0.1031
     11  C15       38.3680   51.3080   35.1480 C.3   1522  5241522     0.1766
     12  C16       36.9530   51.2460   35.7540 C.2   1522  5241522     0.2474
     13  N17       36.1580   50.1610   35.7020 N.am  1522  5241522    -0.2534
     14  C18       39.6940   50.6780   37.2370 C.2   1522  5241522     0.2272
     15  N19       38.2000   52.2210   34.0330 N.3   1522  5241522    -0.1226
     16  O20       36.5350   52.2770   36.2890 O.2   1522  5241522    -0.2730
     17  O21       39.7550   49.4960   36.8020 O.2   1522  5241522    -0.2748
     18  N22       39.8250   50.9160   38.6240 N.am  1522  5241522    -0.2760
     19  C23       39.7900   52.1870   39.3540 C.3   1522  5241522     0.1149
     20  C27       40.0340   49.7090   39.4580 C.3   1522  5241522     0.1149
     21  C31       36.4860   48.8670   35.1370 C.3   1522  5241522     0.1380
     22  C32       35.2080   48.0510   35.3840 C.3   1522  5241522     0.2043
     23  C33       34.1150   48.9220   36.0450 C.2   1522  5241522     0.0264
     24  C34       34.8540   50.2980   36.2400 C.2   1522  5241522     0.0658
     25  F41       35.4950   47.2440   36.4790 F     1522  5241522    -0.2305
     26  C43       43.8540   51.5620   35.0070 C.3   1522  5241522     0.0404
     27  C44       43.3240   52.7760   35.7830 C.3   1522  5241522     0.0059
     28  C45       41.9530   52.5130   36.4380 C.3   1522  5241522     0.0009
     29  C46       40.8750   52.0130   35.4060 C.3   1522  5241522     0.0106
     30  C47       41.4640   50.7840   34.6140 C.3   1522  5241522     0.0009
     31  C48       42.7960   51.1480   33.9470 C.3   1522  5241522     0.0059
@<TRIPOS>BOND
     1     5     2   ar
     2     5     1   ar
     3     2     3   ar
     4     1     4   ar
     5    31    30    1
     6    31    26    1
     7    15    11    1
     8     3    26    1
     9     3     6   ar
    10    30    29    1
    11     4     6   ar
    12     4     9   ar
    13    26    27    1
    14    21    22    1
    15    21    13    1
    16    11    12    1
    17    11    10    1
    18     6     7   ar
    19    22    23    1
    20    22    25    1
    21    29    10    1
    22    29    28    1
    23    13    12   am
    24    13    24    1
    25    12    16    2
    26    27    28    1
    27     9     8   ar
    28    23    24    2
    29    10    14    1
    30     7     8   ar
    31    17    14    2
    32    14    18   am
    33    18    19    1
    34    18    20    1
