@<TRIPOS>MOLECULE
2qt9_NAG_A_1.pdb
 14 14 0 0 0
SMALL
GASTEIGER

@<TRIPOS>ATOM
      1  C1        47.9840   80.1780   59.0890 C.3   1092  NAG1092     0.1665
      2  C2        48.6650   80.5460   60.4360 C.3   1092  NAG1092     0.1576
      3  C3        48.2900   79.5320   61.5430 C.3   1092  NAG1092     0.2069
      4  C4        46.7780   79.3270   61.6020 C.3   1092  NAG1092     0.2134
      5  C5        46.2810   78.9020   60.2180 C.3   1092  NAG1092     0.1809
      6  C6        44.7750   78.6480   60.1760 C.3   1092  NAG1092     0.2141
      7  C7        50.9140   81.2350   61.0820 C.2   1092  NAG1092     0.2420
      8  C8        52.4050   81.1900   60.7690 C.3   1092  NAG1092     0.0964
      9  N2        50.1110   80.5710   60.2460 N.am  1092  NAG1092    -0.2019
     10  O3        48.7410   80.0030   62.8050 O.3   1092  NAG1092    -0.2184
     11  O4        46.4460   78.3480   62.5760 O.3   1092  NAG1092    -0.2176
     12  O5        46.5680   79.9510   59.2670 O.3   1092  NAG1092    -0.3489
     13  O6        44.2660   78.7870   58.8520 O.3   1092  NAG1092    -0.2176
     14  O7        50.5070   81.8620   62.0760 O.2   1092  NAG1092    -0.2733
@<TRIPOS>BOND
     1    13     6    1
     2     1    12    1
     3     1     2    1
     4    12     5    1
     5     6     5    1
     6     5     4    1
     7     9     2    1
     8     9     7   am
     9     2     3    1
    10     8     7    1
    11     7    14    2
    12     3     4    1
    13     3    10    1
    14     4    11    1
