@<TRIPOS>MOLECULE
2qta_TDP_A_1.pdb
 26 27 0 0 0
SMALL
GASTEIGER

@<TRIPOS>ATOM
      1  N1'       24.7360  -59.7730    1.1900 N.2   887  TDP887     -0.1861
      2  C2'       24.2560  -58.8600    0.2760 C.1   887  TDP887      0.0663
      3  C2A       24.4840  -57.4120    0.5690 C.3   887  TDP887      0.1291
      4  N3'       23.6220  -59.2260   -0.8480 N.2   887  TDP887     -0.3368
      5  C4'       23.4400  -60.5930   -1.1170 C.2   887  TDP887      0.2292
      6  N4'       22.8250  -60.8920   -2.2470 N.pl3 887  TDP887     -0.0925
      7  C5'       23.9470  -61.6090   -0.1650 C.2   887  TDP887      0.0654
      8  C6'       24.5730  -61.1360    0.9660 C.2   887  TDP887      0.1115
      9  C35       23.9200  -63.1170   -0.4210 C.3   887  TDP887      0.1237
     10  N3        22.5360  -63.7630   -0.4540 N.pl3 887  TDP887     -0.2970
     11  C2        21.9930  -64.2870   -1.5610 C.3   887  TDP887      0.1543
     12  S1        20.5460  -65.1160   -1.2650 S.3   887  TDP887     -0.0951
     13  C5        20.6500  -64.7410    0.4240 C.2   887  TDP887      0.0164
     14  C4        21.7780  -64.0050    0.7080 C.2   887  TDP887      0.0279
     15  C4A       22.2240  -63.5000    2.0510 C.3   887  TDP887      0.0473
     16  C5A       19.5680  -65.1260    1.3570 C.3   887  TDP887      0.0661
     17  C5B       18.3440  -64.3050    1.0940 C.3   887  TDP887      0.1544
     18  O5G       17.3780  -64.5910    2.1250 O.3   887  TDP887     -0.3134
     19  P1        16.0110  -63.7650    2.1840 P.3   887  TDP887      0.2230
     20  O11       15.2670  -64.2410    0.8340 O.3   887  TDP887     -0.2261
     21  O12       15.2920  -64.2450    3.3610 O.3   887  TDP887     -0.4370
     22  O13       16.3040  -62.3120    2.0760 O.2   887  TDP887     -0.5169
     23  P2        14.6470  -65.6390    0.3070 P.3   887  TDP887      0.5373
     24  O21       13.3430  -65.2390   -0.4600 O.3   887  TDP887     -0.1143
     25  O22       15.6230  -66.2370   -0.6190 O.2   887  TDP887     -0.2221
     26  O23       14.2980  -66.4370    1.4960 O.3   887  TDP887     -0.1143
@<TRIPOS>BOND
     1     6     5    1
     2    11    12    1
     3    11    10    1
     4    12    13    1
     5     5     4    2
     6     5     7    1
     7     4     2    2
     8    25    23    2
     9    24    23    1
    10    10     9    1
    11    10    14    1
    12     9     7    1
    13     7     8    2
    14     2     3    1
    15     2     1    2
    16    23    20    1
    17    23    26    1
    18    13    14    2
    19    13    16    1
    20    14    15    1
    21    20    19    1
    22     8     1    1
    23    17    16    1
    24    17    18    1
    25    22    19    2
    26    18    19    1
    27    19    21    1
