@<TRIPOS>MOLECULE
2qtb_474_A_1.pdb
 32 35 0 0 0
SMALL
GASTEIGER

@<TRIPOS>ATOM
      1  C1        39.4600   51.4740   36.3070 C.3   1521  4741521     0.1031
      2  C2        38.3490   51.0840   35.2830 C.3   1521  4741521     0.1763
      3  C3        36.9340   51.2220   35.8910 C.2   1521  4741521     0.2437
      4  N4        36.1340   50.1150   35.8650 N.am  1521  4741521    -0.2729
      5  C5        39.6620   50.5030   37.3120 C.2   1521  4741521     0.2272
      6  N6        38.3350   51.9220   34.0800 N.3   1521  4741521    -0.1226
      7  O7        36.5650   52.2830   36.3690 O.2   1521  4741521    -0.2733
      8  O8        39.6690   49.3410   36.8670 O.2   1521  4741521    -0.2748
      9  N9        39.8410   50.7430   38.6840 N.am  1521  4741521    -0.2760
     10  C10       39.8400   52.0530   39.3650 C.3   1521  4741521     0.1149
     11  C14       40.0490   49.5400   39.5210 C.3   1521  4741521     0.1149
     12  C18       36.4680   48.7750   35.3410 C.3   1521  4741521     0.1601
     13  C19       35.2210   47.9690   35.6210 C.3   1521  4741521     0.2835
     14  C20       34.1370   49.0000   35.6290 C.3   1521  4741521     0.0898
     15  C21       34.7750   50.1580   36.3930 C.3   1521  4741521     0.0993
     16  F28       35.3120   47.4430   36.8590 F     1521  4741521    -0.2024
     17  C29       43.9150   51.5700   35.2350 C.3   1521  4741521     0.0239
     18  C30       43.2120   52.7430   35.9650 C.3   1521  4741521     0.0044
     19  C31       41.9060   52.3700   36.6390 C.3   1521  4741521     0.0009
     20  C32       40.8650   51.8300   35.6160 C.3   1521  4741521     0.0106
     21  C33       41.5390   50.6190   34.8280 C.3   1521  4741521     0.0009
     22  C34       42.9090   50.9930   34.1840 C.3   1521  4741521     0.0044
     23  C48       47.9280   52.3380   33.7030 C.ar  1521  4741521     0.1656
     24  C49       46.8350   52.7230   32.7650 C.ar  1521  4741521     0.0386
     25  C50       45.5410   52.5440   33.1610 C.ar  1521  4741521     0.0004
     26  C51       45.2380   51.8890   34.4870 C.ar  1521  4741521    -0.0032
     27  C52       46.2370   51.5180   35.3430 C.ar  1521  4741521     0.0978
     28  N53       47.6470   51.7120   34.8780 N.ar  1521  4741521    -0.2095
     29  N54       48.7020   51.4680   35.5080 N.ar  1521  4741521    -0.1409
     30  C55       49.6960   51.8710   34.6930 C.ar  1521  4741521     0.2213
     31  N56       49.2510   52.4130   33.5330 N.ar  1521  4741521    -0.2034
     32  F62       35.0350   47.0020   34.7230 F     1521  4741521    -0.2024
@<TRIPOS>BOND
     1    24    25   ar
     2    24    23   ar
     3    25    26   ar
     4    31    23   ar
     5    31    30   ar
     6    23    28   ar
     7     6     2    1
     8    22    21    1
     9    22    17    1
    10    26    17    1
    11    26    27   ar
    12    30    29   ar
    13    32    13    1
    14    21    20    1
    15    28    27   ar
    16    28    29   ar
    17    17    18    1
    18     2     3    1
    19     2     1    1
    20    12    13    1
    21    12     4    1
    22    20     1    1
    23    20    19    1
    24    13    14    1
    25    13    16    1
    26    14    15    1
    27     4     3   am
    28     4    15    1
    29     3     7    2
    30    18    19    1
    31     1     5    1
    32     8     5    2
    33     5     9   am
    34     9    10    1
    35     9    11    1
