@<TRIPOS>MOLECULE
2qtb_NAG_A_1.pdb
 14 14 0 0 0
SMALL
GASTEIGER

@<TRIPOS>ATOM
      1  C1        47.8880   79.9430   58.6360 C.3   1092  NAG1092     0.1665
      2  C2        48.4720   80.0280   60.0700 C.3   1092  NAG1092     0.1576
      3  C3        47.8340   78.9920   61.0030 C.3   1092  NAG1092     0.2069
      4  C4        46.3080   79.1200   60.9540 C.3   1092  NAG1092     0.2134
      5  C5        45.8400   78.9670   59.4970 C.3   1092  NAG1092     0.1809
      6  C6        44.3280   79.1010   59.3400 C.3   1092  NAG1092     0.2141
      7  C7        50.6820   80.5070   60.9270 C.2   1092  NAG1092     0.2420
      8  C8        52.1810   80.2410   60.8670 C.3   1092  NAG1092     0.0964
      9  N2        49.9130   79.8380   60.0640 N.am  1092  NAG1092    -0.2019
     10  O3        48.2940   79.1960   62.3370 O.3   1092  NAG1092    -0.2184
     11  O4        45.7080   78.1220   61.7720 O.3   1092  NAG1092    -0.2176
     12  O5        46.4420   79.9890   58.6740 O.3   1092  NAG1092    -0.3489
     13  O6        43.6540   77.8970   59.7070 O.3   1092  NAG1092    -0.2176
     14  O7        50.2330   81.3230   61.7450 O.2   1092  NAG1092    -0.2733
@<TRIPOS>BOND
     1     1    12    1
     2     1     2    1
     3    12     5    1
     4     6     5    1
     5     6    13    1
     6     5     4    1
     7     9     2    1
     8     9     7   am
     9     2     3    1
    10     8     7    1
    11     7    14    2
    12     4     3    1
    13     4    11    1
    14     3    10    1
