@<TRIPOS>MOLECULE
2qtc_TDK_A_1.pdb
 34 35 0 0 0
SMALL
GASTEIGER

@<TRIPOS>ATOM
      1  O2B       14.5530  -66.5660    1.7640 O.3   887  TDK887     -0.1143
      2  PB        14.7120  -65.8500    0.3460 P.3   887  TDK887      0.5373
      3  O3B       13.3530  -65.5530   -0.2310 O.3   887  TDK887     -0.1143
      4  O1B       15.6630  -66.6060   -0.4680 O.2   887  TDK887     -0.2221
      5  O3A       15.3970  -64.4010    0.6940 O.3   887  TDK887     -0.2261
      6  PA        16.0730  -64.0020    2.1200 P.3   887  TDK887      0.2230
      7  O1A       15.2930  -64.5610    3.2290 O.3   887  TDK887     -0.4370
      8  O2A       16.2930  -62.5280    2.0740 O.2   887  TDK887     -0.5169
      9  O7        17.5130  -64.7340    2.1030 O.3   887  TDK887     -0.3134
     10  C7        18.3880  -64.5700    0.9890 C.3   887  TDK887      0.1544
     11  C6        19.7130  -65.0900    1.3470 C.3   887  TDK887      0.0661
     12  C5        20.7970  -64.6450    0.4620 C.2   887  TDK887      0.0164
     13  S1        20.6720  -64.9490   -1.2070 S.3   887  TDK887     -0.0946
     14  C4        21.9840  -64.0140    0.7390 C.2   887  TDK887      0.0279
     15  CM4       22.4770  -63.6600    2.0910 C.3   887  TDK887      0.0473
     16  N3        22.7530  -63.7900   -0.3870 N.pl3 887  TDK887     -0.2966
     17  C2        22.1870  -64.2500   -1.5360 C.3   887  TDK887      0.1650
     18  CMA       22.8300  -64.4290   -2.8950 C.3   887  TDK887      0.2468
     19  OM1       23.7940  -63.3880   -3.1260 O.3   887  TDK887     -0.2105
     20  CMB       21.7720  -64.4460   -3.9720 C.3   887  TDK887      0.0484
     21  PC        23.6880  -66.0660   -2.8110 P.3   887  TDK887      0.3985
     22  OM3       24.6480  -66.0600   -1.6640 O.3   887  TDK887     -0.1376
     23  OM2       24.4740  -66.0550   -4.1970 O.3   887  TDK887     -0.2883
     24  CMC       25.8360  -66.0260   -4.3190 C.3   887  TDK887      0.1840
     25  OM4       22.6800  -67.1700   -2.8530 O.2   887  TDK887     -0.2529
     26  C7'       24.1380  -63.2020   -0.3080 C.3   887  TDK887      0.1238
     27  C5'       24.1550  -61.6970   -0.0200 C.2   887  TDK887      0.0654
     28  C6'       24.7000  -61.2200    1.0840 C.2   887  TDK887      0.1115
     29  N1'       24.8170  -59.8990    1.3120 N.2   887  TDK887     -0.1861
     30  C2'       24.3840  -59.0190    0.4000 C.1   887  TDK887      0.0663
     31  CM2       24.5210  -57.5790    0.6780 C.3   887  TDK887      0.1291
     32  N3'       23.8200  -59.3900   -0.7230 N.2   887  TDK887     -0.3368
     33  C4'       23.6950  -60.7270   -0.9810 C.2   887  TDK887      0.2292
     34  N4'       23.1440  -61.0580   -2.1130 N.pl3 887  TDK887     -0.0925
@<TRIPOS>BOND
     1    24    23    1
     2    23    21    1
     3    20    18    1
     4    19    18    1
     5    18    21    1
     6    18    17    1
     7    25    21    2
     8    21    22    1
     9    34    33    1
    10    17    13    1
    11    17    16    1
    12    13    12    1
    13    33    32    2
    14    33    27    1
    15    32    30    2
    16     4     2    2
    17    16    26    1
    18    16    14    1
    19    26    27    1
    20     3     2    1
    21    27    28    2
    22     2     5    1
    23     2     1    1
    24    30    31    1
    25    30    29    2
    26    12    14    2
    27    12    11    1
    28     5     6    1
    29    14    15    1
    30    10    11    1
    31    10     9    1
    32    28    29    1
    33     8     6    2
    34     9     6    1
    35     6     7    1
