@<TRIPOS>MOLECULE
2qtg_MTH_A_1.pdb
 20 22 0 0 0
SMALL
GASTEIGER

@<TRIPOS>ATOM
      1  CS        14.1960   -4.3820    1.1750 C.3   268  MTH268      0.0693
      2  S5'       12.5660   -4.2730    0.4290 S.3   268  MTH268     -0.1367
      3  C5'       12.5340   -2.5080    0.2870 C.3   268  MTH268      0.0899
      4  C4'       12.1040   -1.7240    1.5360 C.3   268  MTH268      0.1630
      5  O4'       12.2240   -0.3130    1.2310 O.3   268  MTH268     -0.3153
      6  C2'        9.8930   -0.9370    1.1070 C.3   268  MTH268      0.2568
      7  O2'        8.7340   -0.3160    1.7140 O.3   268  MTH268     -0.2130
      8  C3'       10.6520   -1.9330    1.9740 C.3   268  MTH268      0.2168
      9  O3'       10.5890   -1.6670    3.3860 O.3   268  MTH268     -0.2175
     10  C1'       10.9230    0.1670    0.7700 C.3   268  MTH268      0.3167
     11  N9        10.9960    0.3970   -0.6590 N.pl3 268  MTH268     -0.1708
     12  C8        11.9570    0.9910   -1.2840 C.3   268  MTH268      0.2054
     13  C7        11.7020    1.2460   -2.4900 C.3   268  MTH268      0.0756
     14  C5        10.7810    0.4730   -2.9710 C.3   268  MTH268      0.2227
     15  C6        10.2600    0.2540   -4.2160 C.2   268  MTH268      0.4023
     16  N6        10.8260    0.7840   -5.3360 N.pl3 268  MTH268      0.2113
     17  N1         9.1710   -0.5720   -4.2260 N.2   268  MTH268     -0.0030
     18  C2         8.6330   -1.0980   -3.0730 C.3   268  MTH268      0.5247
     19  N3         9.1620   -0.8640   -1.8320 N.2   268  MTH268     -0.0114
     20  C4        10.2380   -0.0430   -1.7750 C.2   268  MTH268      0.3130
@<TRIPOS>BOND
     1    16    15    1
     2    17    15    2
     3    17    18    1
     4    15    14    1
     5    18    19    1
     6    14    13    1
     7    14    20    1
     8    13    12    1
     9    19    20    2
    10    20    11    1
    11    12    11    1
    12    11    10    1
    13     3     2    1
    14     3     4    1
    15     2     1    1
    16    10     6    1
    17    10     5    1
    18     6     7    1
    19     6     8    1
    20     5     4    1
    21     4     8    1
    22     8     9    1
