@<TRIPOS>MOLECULE
2qth_GDP_A_1.pdb
 28 30 0 0 0
SMALL
GASTEIGER

@<TRIPOS>ATOM
      1  PB        18.9910   57.2810   10.1340 P.3   500  GDP500      0.5373
      2  O1B       19.8870   57.2670   11.3730 O.3   500  GDP500     -0.1143
      3  O2B       18.6720   58.7210    9.7830 O.3   500  GDP500     -0.1143
      4  O3B       19.7530   56.6990    9.0120 O.2   500  GDP500     -0.2221
      5  O3A       17.6470   56.4740   10.2600 O.3   500  GDP500     -0.2261
      6  PA        17.4080   54.8950    9.6840 P.3   500  GDP500      0.2231
      7  O1A       16.8910   54.5920    8.3490 O.2   500  GDP500     -0.5169
      8  O2A       18.6260   54.0600   10.0360 O.3   500  GDP500     -0.4370
      9  O5'       16.0980   54.6830   10.5970 O.3   500  GDP500     -0.3111
     10  C5'       16.0840   55.0910   11.9650 C.3   500  GDP500      0.1813
     11  C4'       15.2560   54.0400   12.7000 C.3   500  GDP500      0.1799
     12  O4'       13.8900   54.3340   12.3830 O.3   500  GDP500     -0.3326
     13  C3'       15.4820   52.6130   12.2310 C.3   500  GDP500      0.2158
     14  O3'       15.0080   51.7890   13.2980 O.3   500  GDP500     -0.2175
     15  C2'       14.5250   52.4710   11.0730 C.3   500  GDP500      0.2310
     16  O2'       14.0330   51.1380   10.9550 O.3   500  GDP500     -0.2158
     17  C1'       13.3550   53.3720   11.4690 C.3   500  GDP500      0.2293
     18  N9        12.6430   53.9770   10.3090 N.pl3 500  GDP500     -0.2354
     19  C8        13.1320   54.5150    9.1560 C.3   500  GDP500      0.2246
     20  N7        12.1370   54.9710    8.3090 N.2   500  GDP500     -0.2322
     21  C5        10.9580   54.6890    8.9590 C.2   500  GDP500      0.2182
     22  C6         9.5030   54.8550    8.6990 C.1   500  GDP500      0.2372
     23  O6         9.1400   55.3730    7.6540 O.2   500  GDP500     -0.2069
     24  N1         8.5810   54.4690    9.6190 N.2   500  GDP500     -0.2485
     25  C2         8.9460   53.8910   10.7660 C.1   500  GDP500      0.2531
     26  N2         7.9470   53.5050   11.6080 N.pl3 500  GDP500     -0.0226
     27  N3        10.2760   53.6880   11.1050 N.2   500  GDP500     -0.3074
     28  C4        11.2940   54.0450   10.2600 C.2   500  GDP500      0.2300
@<TRIPOS>BOND
     1    23    22    2
     2    20    21    2
     3    20    19    1
     4     7     6    2
     5    22    21    1
     6    22    24    2
     7    21    28    1
     8     4     1    2
     9    19    18    1
    10    24    25    2
    11     6     8    1
    12     6     5    1
    13     6     9    1
    14     3     1    1
    15     1     5    1
    16     1     2    1
    17    28    18    1
    18    28    27    2
    19    18    17    1
    20     9    10    1
    21    25    27    2
    22    25    26    1
    23    16    15    1
    24    15    17    1
    25    15    13    1
    26    17    12    1
    27    10    11    1
    28    13    11    1
    29    13    14    1
    30    12    11    1
