@<TRIPOS>MOLECULE
2qtk_C8E_A_10.pdb
 12 11 0 0 0
SMALL
GASTEIGER

@<TRIPOS>ATOM
      1  C1        38.7510   19.0610   50.1410 C.3   401  C8E401      0.0000
      2  C2        39.7140   19.9350   50.8000 C.3   401  C8E401      0.0000
      3  C3        39.4460   21.3670   50.6570 C.3   401  C8E401      0.0000
      4  C4        40.3710   22.0750   51.5330 C.3   401  C8E401      0.0000
      5  C5        39.8700   23.4600   51.7310 C.3   401  C8E401      0.0001
      6  C6        40.5690   24.1070   52.8300 C.3   401  C8E401      0.0026
      7  C7        39.4870   24.9300   53.3780 C.3   401  C8E401      0.0321
      8  C8        40.0590   26.2000   53.8830 C.3   401  C8E401      0.1423
      9  O9        39.9120   26.7840   55.1740 O.3   401  C8E401     -0.3510
     10  C10       38.6260   27.1380   55.6550 C.3   401  C8E401      0.1776
     11  C11       38.8710   27.7140   57.0200 C.3   401  C8E401      0.2140
     12  O12       39.3060   29.0870   56.9530 O.3   401  C8E401     -0.2176
@<TRIPOS>BOND
     1     1     2    1
     2     3     2    1
     3     3     4    1
     4     4     5    1
     5     5     6    1
     6     6     7    1
     7     7     8    1
     8     8     9    1
     9     9    10    1
    10    10    11    1
    11    12    11    1
