@<TRIPOS>MOLECULE
2qtl_FAD_A_1.pdb
 43 46 0 0 0
SMALL
GASTEIGER

@<TRIPOS>ATOM
      1  PA        29.5140   29.7130   51.4520 P.3   700  FAD700      0.2189
      2  O1A       28.8070   29.1900   52.6640 O.3   700  FAD700     -0.4371
      3  O2A       29.8850   31.1630   51.5660 O.2   700  FAD700     -0.5170
      4  O5B       30.8280   28.8160   51.1680 O.3   700  FAD700     -0.3112
      5  C5B       31.3410   27.6990   51.8440 C.3   700  FAD700      0.1812
      6  C4B       32.8300   28.0750   51.9440 C.3   700  FAD700      0.1780
      7  O4B       33.5790   27.4200   52.9630 O.3   700  FAD700     -0.3482
      8  C3B       33.6140   27.9300   50.6470 C.3   700  FAD700      0.2140
      9  O3B       33.3470   28.9470   49.7020 O.3   700  FAD700     -0.2176
     10  C2B       34.9860   28.1180   51.2430 C.3   700  FAD700      0.2140
     11  O2B       35.1670   29.4670   51.6180 O.3   700  FAD700     -0.2176
     12  C1B       34.9070   27.2770   52.5090 C.3   700  FAD700      0.1777
     13  N1        28.2180   32.5350   42.3100 N.2   700  FAD700     -0.2887
     14  C2        27.3250   31.8820   41.4830 C.1   700  FAD700      0.3669
     15  O2        27.1740   30.6660   41.5980 O.2   700  FAD700     -0.1744
     16  N3        26.5840   32.6220   40.5520 N.2   700  FAD700     -0.2300
     17  C4        26.7220   33.9790   40.4060 C.1   700  FAD700      0.2513
     18  O4        26.0040   34.5980   39.5670 O.2   700  FAD700     -0.2057
     19  C4X       27.6420   34.6310   41.2210 C.2   700  FAD700      0.2706
     20  N5        27.8240   35.9990   41.0870 N.2   700  FAD700     -0.3841
     21  C5X       28.7520   36.6330   41.9020 C.2   700  FAD700      0.1452
     22  C6        28.9250   38.0090   41.7780 C.2   700  FAD700      0.0252
     23  C7        29.8490   38.6690   42.5850 C.2   700  FAD700     -0.0375
     24  C7M       29.9780   40.1650   42.3680 C.3   700  FAD700      0.0268
     25  C8        30.6220   37.9570   43.5220 C.3   700  FAD700      0.0417
     26  C8M       31.6330   38.6510   44.4150 C.3   700  FAD700      0.0091
     27  C9        30.4410   36.5830   43.6760 C.2   700  FAD700     -0.0049
     28  C9A       29.4870   35.9110   42.8790 C.2   700  FAD700      0.0795
     29  N10       29.2720   34.5450   43.0250 N.pl3 700  FAD700     -0.2545
     30  C10       28.3760   33.9150   42.1880 C.2   700  FAD700      0.2449
     31  C1'       29.5650   33.8240   44.3610 C.3   700  FAD700      0.1336
     32  C2'       28.4060   33.9030   45.3770 C.3   700  FAD700      0.2048
     33  O2'       28.3250   35.2500   45.8560 O.3   700  FAD700     -0.2185
     34  C3'       28.6020   32.9420   46.5670 C.3   700  FAD700      0.2165
     35  O3'       29.9120   33.0830   47.0640 O.3   700  FAD700     -0.2175
     36  C4'       28.4870   31.4700   46.1310 C.3   700  FAD700      0.2145
     37  O4'       27.1760   31.2560   45.7080 O.3   700  FAD700     -0.2176
     38  C5'       28.7110   30.5580   47.3450 C.3   700  FAD700      0.1846
     39  O5'       27.9550   31.0480   48.4870 O.3   700  FAD700     -0.3111
     40  P         27.3910   30.0610   49.6020 P.3   700  FAD700      0.2189
     41  O1P       26.7940   30.8630   50.7270 O.3   700  FAD700     -0.4371
     42  O2P       26.5180   28.9590   49.1060 O.2   700  FAD700     -0.5170
     43  O3P       28.7340   29.2930   50.0970 O.3   700  FAD700     -0.2703
@<TRIPOS>BOND
     1    18    17    2
     2    17    16    2
     3    17    19    1
     4    16    14    2
     5    20    19    2
     6    20    21    2
     7    19    30    1
     8    14    15    2
     9    14    13    2
    10    22    21    1
    11    22    23    2
    12    21    28    1
    13    30    13    2
    14    30    29    1
    15    24    23    1
    16    23    25    1
    17    28    29    1
    18    28    27    2
    19    29    31    1
    20    25    27    1
    21    25    26    1
    22    31    32    1
    23    32    33    1
    24    32    34    1
    25    37    36    1
    26    36    34    1
    27    36    38    1
    28    34    35    1
    29    38    39    1
    30    39    40    1
    31    42    40    2
    32    40    43    1
    33    40    41    1
    34     9     8    1
    35    43     1    1
    36     8    10    1
    37     8     6    1
    38     4     1    1
    39     4     5    1
    40    10    11    1
    41    10    12    1
    42     1     3    2
    43     1     2    1
    44     5     6    1
    45     6     7    1
    46    12     7    1
