@<TRIPOS>MOLECULE
2qtn_NCN_B_1.pdb
 22 23 0 0 0
SMALL
GASTEIGER

@<TRIPOS>ATOM
      1  P         16.9100  -29.6430   20.3250 P.3   191  NCN191      0.5327
      2  O1P       16.5250  -31.0700   20.6200 O.2   191  NCN191     -0.2224
      3  O2P       15.8220  -28.6510   20.9580 O.3   191  NCN191     -0.1145
      4  O3P       18.3560  -29.2880   20.9450 O.3   191  NCN191     -0.1145
      5  O5'       16.9390  -29.4400   18.7320 O.3   191  NCN191     -0.2675
      6  C5'       17.3420  -28.2310   18.0920 C.3   191  NCN191      0.1859
      7  C4'       16.1550  -27.2480   18.0250 C.3   191  NCN191      0.1801
      8  O4'       14.9120  -27.9240   18.1010 O.3   191  NCN191     -0.3327
      9  C3'       16.0840  -26.2500   19.2120 C.3   191  NCN191      0.2158
     10  O3'       16.9020  -25.1040   18.9870 O.3   191  NCN191     -0.2175
     11  C2'       14.6180  -25.8180   19.1780 C.3   191  NCN191      0.2309
     12  O2'       14.4670  -24.5920   18.4240 O.3   191  NCN191     -0.2158
     13  C1'       13.8980  -26.9610   18.4140 C.3   191  NCN191      0.2263
     14  N1        12.7920  -27.5200   19.2130 N.pl3 191  NCN191     -0.2787
     15  C6        12.8600  -28.8000   19.7410 C.3   191  NCN191      0.1195
     16  C5        11.7790  -29.3170   20.4910 C.2   191  NCN191     -0.0044
     17  C4        10.6280  -28.5080   20.6890 C.2   191  NCN191      0.0050
     18  C3        10.5760  -27.1930   20.1400 C.2   191  NCN191      0.0940
     19  C2        11.6830  -26.7370   19.4070 C.2   191  NCN191      0.0699
     20  C7         9.3650  -26.2980   20.3260 C.2   191  NCN191      0.3890
     21  O7         8.3140  -26.7370   21.0100 O.co2 191  NCN191     -0.2405
     22  O8         9.3610  -25.1900   19.8370 O.co2 191  NCN191     -0.2405
@<TRIPOS>BOND
     1     7     6    1
     2     7     8    1
     3     7     9    1
     4     6     5    1
     5     8    13    1
     6    13    11    1
     7    13    14    1
     8    12    11    1
     9     5     1    1
    10    10     9    1
    11    11     9    1
    12    14    19    1
    13    14    15    1
    14    19    18    2
    15    15    16    1
    16    22    20   ar
    17    18    20    1
    18    18    17    1
    19     1     2    2
    20     1     4    1
    21     1     3    1
    22    20    21   ar
    23    16    17    2
