@<TRIPOS>MOLECULE
2qtr_NXX_A_1.pdb
 44 48 0 0 0
SMALL
GASTEIGER

@<TRIPOS>ATOM
      1  O7N       23.4390   65.0750   15.2790 O.co2 191  NXX191     -0.2405
      2  C7N       22.6820   64.3390   15.9780 C.2   191  NXX191      0.3890
      3  O8N       22.1890   63.2650   15.5280 O.co2 191  NXX191     -0.2405
      4  C3N       22.3620   64.7600   17.3830 C.2   191  NXX191      0.0940
      5  C4N       21.5070   64.0070   18.2440 C.2   191  NXX191      0.0050
      6  C5N       21.2370   64.4450   19.5370 C.2   191  NXX191     -0.0044
      7  C6N       21.8270   65.6600   19.9910 C.3   191  NXX191      0.1195
      8  C2N       22.9270   65.9610   17.8810 C.2   191  NXX191      0.0699
      9  N1N       22.6520   66.3680   19.1350 N.pl3 191  NXX191     -0.2787
     10  C1M       23.2760   67.6320   19.5680 C.3   191  NXX191      0.2263
     11  C2M       22.3120   68.8090   19.5740 C.3   191  NXX191      0.2309
     12  O2M       22.0350   69.3700   18.2840 O.3   191  NXX191     -0.2158
     13  C3M       23.0180   69.7620   20.5430 C.3   191  NXX191      0.2158
     14  O3M       24.0250   70.4920   19.8000 O.3   191  NXX191     -0.2175
     15  O4M       23.7680   67.5320   20.9220 O.3   191  NXX191     -0.3327
     16  C4M       23.6350   68.8210   21.5720 C.3   191  NXX191      0.1799
     17  C5M       22.7830   68.6290   22.8510 C.3   191  NXX191      0.1813
     18  O5M       21.3730   68.7940   22.5850 O.3   191  NXX191     -0.3112
     19  PN        20.2630   68.8980   23.7410 P.3   191  NXX191      0.2189
     20  O1N       18.8950   69.0880   23.1530 O.2   191  NXX191     -0.5170
     21  O2N       20.5610   67.7120   24.6000 O.3   191  NXX191     -0.4371
     22  O3A       20.6390   70.2970   24.4320 O.3   191  NXX191     -0.2703
     23  PA        20.1880   70.9170   25.8490 P.3   191  NXX191      0.2189
     24  O1A       19.8530   72.3660   25.6320 O.2   191  NXX191     -0.5170
     25  O2A       19.1080   70.0280   26.4610 O.3   191  NXX191     -0.4371
     26  O5B       21.5510   70.8070   26.7110 O.3   191  NXX191     -0.3112
     27  C5B       22.7770   71.2970   26.1720 C.3   191  NXX191      0.1813
     28  C4B       23.9710   70.4590   26.6560 C.3   191  NXX191      0.1821
     29  C3B       23.8190   68.9380   26.5230 C.3   191  NXX191      0.2184
     30  O3B       25.0780   68.4080   26.0850 O.3   191  NXX191     -0.2174
     31  C2B       23.4590   68.4450   27.9100 C.3   191  NXX191      0.2570
     32  O2P       23.8620   67.0790   28.1040 O.3   191  NXX191     -0.2130
     33  C1B       24.1900   69.4560   28.7810 C.3   191  NXX191      0.3186
     34  O4B       24.1830   70.6960   28.0320 O.3   191  NXX191     -0.3135
     35  N9A       23.5820   69.7620   30.0990 N.pl3 191  NXX191     -0.1439
     36  C8A       22.4180   70.4130   30.3110 C.3   191  NXX191      0.3377
     37  N7A       22.2020   70.5100   31.6320 N.2   191  NXX191     -0.2095
     38  C5A       23.2560   69.9090   32.2500 C.2   191  NXX191      0.2526
     39  C4A       24.1210   69.4350   31.2580 C.2   191  NXX191      0.3518
     40  C6A       23.5950   69.7000   33.5920 C.2   191  NXX191      0.4393
     41  N6A       22.7700   70.1490   34.5620 N.pl3 191  NXX191      0.2180
     42  N1A       24.7810   69.0280   33.8950 N.2   191  NXX191      0.0021
     43  C2A       25.6050   68.5740   32.9150 C.3   191  NXX191      0.5254
     44  N3A       25.2970   68.7640   31.5980 N.2   191  NXX191     -0.0055
@<TRIPOS>BOND
     1     1     2   ar
     2     3     2   ar
     3     2     4    1
     4     4     8    2
     5     4     5    1
     6     8     9    1
     7     5     6    2
     8    12    11    1
     9     9    10    1
    10     9     7    1
    11     6     7    1
    12    10    11    1
    13    10    15    1
    14    11    13    1
    15    14    13    1
    16    13    16    1
    17    15    16    1
    18    16    17    1
    19    18    17    1
    20    18    19    1
    21    20    19    2
    22    19    22    1
    23    19    21    1
    24    22    23    1
    25    24    23    2
    26    23    25    1
    27    23    26    1
    28    30    29    1
    29    27    28    1
    30    27    26    1
    31    29    28    1
    32    29    31    1
    33    28    34    1
    34    31    32    1
    35    31    33    1
    36    34    33    1
    37    33    35    1
    38    35    36    1
    39    35    39    1
    40    36    37    1
    41    39    44    2
    42    39    38    1
    43    44    43    1
    44    37    38    2
    45    38    40    1
    46    43    42    1
    47    40    42    2
    48    40    41    1
