@<TRIPOS>MOLECULE
2qts_MAL_B_1.pdb
 23 24 0 0 0
SMALL
GASTEIGER

@<TRIPOS>ATOM
      1  C1       116.4760   61.1350   93.0730 C.3     1  MAL1        0.2695
      2  C2       115.3520   62.1130   92.6450 C.3     1  MAL1        0.2406
      3  C3       115.9020   63.0610   91.5590 C.3     1  MAL1        0.2198
      4  C4       117.0890   63.8330   92.1650 C.3     1  MAL1        0.2144
      5  C5       118.1630   62.8020   92.5910 C.3     1  MAL1        0.1835
      6  C6       119.3580   63.5390   93.2020 C.3     1  MAL1        0.2142
      7  O1       116.8970   60.3130   91.9580 O.3     1  MAL1       -0.3257
      8  O2       114.2460   61.3700   92.1270 O.3     1  MAL1       -0.2149
      9  O3       114.8800   63.9800   91.1550 O.3     1  MAL1       -0.2174
     10  O4       117.6310   64.7240   91.1780 O.3     1  MAL1       -0.2176
     11  O5       117.6170   61.8850   93.5940 O.3     1  MAL1       -0.3256
     12  O6       120.3460   62.5870   93.5910 O.3     1  MAL1       -0.2176
     13  C1'      117.5830   56.1280   91.9530 C.3     1  MAL1        0.3023
     14  C2'      116.1700   56.6280   92.3370 C.3     1  MAL1        0.2433
     15  C3'      115.9740   58.0570   91.8080 C.3     1  MAL1        0.2168
     16  C4'      117.0610   58.9590   92.4350 C.3     1  MAL1        0.1804
     17  C5'      118.4530   58.3930   92.0230 C.3     1  MAL1        0.1804
     18  C6'      119.5690   59.2530   92.6350 C.3     1  MAL1        0.2141
     19  O1'      117.7290   56.0400   90.5310 O.3     1  MAL1       -0.1869
     20  O2'      115.1830   55.7580   91.7720 O.3     1  MAL1       -0.2148
     21  O3'      114.6730   58.5320   92.1700 O.3     1  MAL1       -0.2175
     22  O5'      118.6050   57.0180   92.5060 O.3     1  MAL1       -0.3237
     23  O6'      120.8470   58.7340   92.2520 O.3     1  MAL1       -0.2176
@<TRIPOS>BOND
     1    19    13    1
     2     9     3    1
     3    10     4    1
     4     3     4    1
     5     3     2    1
     6    20    14    1
     7    15    21    1
     8    15    14    1
     9    15    16    1
    10    13    14    1
    11    13    22    1
    12     7    16    1
    13     7     1    1
    14    17    16    1
    15    17    22    1
    16    17    18    1
    17     8     2    1
    18     4     5    1
    19    23    18    1
    20     5     6    1
    21     5    11    1
    22     2     1    1
    23     1    11    1
    24     6    12    1
