@<TRIPOS>MOLECULE
2qtt_ADE_A_1.pdb
 10 11 0 0 0
SMALL
GASTEIGER

@<TRIPOS>ATOM
      1  N9        -1.6590    0.3500  -22.2130 N.2   268  ADE268     -0.1914
      2  C8        -0.6050    1.1010  -22.6740 C.3   268  ADE268      0.2618
      3  N7        -0.5990    1.2600  -23.9830 N.2   268  ADE268     -0.2267
      4  C5        -1.7250    0.5620  -24.4080 C.2   268  ADE268      0.2303
      5  C6        -2.3000    0.3280  -25.6800 C.2   268  ADE268      0.4393
      6  N6        -1.7900    0.7910  -26.8230 N.pl3 268  ADE268      0.2185
      7  N1        -3.4280   -0.4120  -25.7500 N.2   268  ADE268     -0.0265
      8  C2        -3.9580   -0.8870  -24.6150 C.3   268  ADE268      0.4008
      9  N3        -3.5090   -0.7370  -23.3680 N.2   268  ADE268     -0.1640
     10  C4        -2.3870    0.0030  -23.3290 C.1   268  ADE268      0.0579
@<TRIPOS>BOND
     1     6     5    1
     2     7     5    2
     3     7     8    1
     4     5     4    1
     5     8     9    1
     6     4     3    2
     7     4    10    1
     8     3     2    1
     9     9    10    2
    10    10     1    2
    11     2     1    1
