@<TRIPOS>MOLECULE
2qtt_FMC_B_1.pdb
 19 21 0 0 0
SMALL
GASTEIGER

@<TRIPOS>ATOM
      1  N1       -19.3800  -18.7120  -26.3330 N.2   269  FMC269     -0.0278
      2  C2       -19.2430  -18.0660  -25.1520 C.3   269  FMC269      0.3922
      3  N3       -20.0690  -18.2420  -24.0900 N.2   269  FMC269     -0.2155
      4  C4       -21.0860  -19.1190  -24.2080 C.2   269  FMC269      0.1251
      5  C5       -21.3080  -19.8700  -25.4580 C.2   269  FMC269      0.2111
      6  C6       -20.3650  -19.6190  -26.5660 C.2   269  FMC269      0.4334
      7  N6       -20.4780  -20.2460  -27.7680 N.pl3 269  FMC269      0.2178
      8  N7       -22.3940  -20.6460  -25.2740 N.2   269  FMC269     -0.1387
      9  N8       -22.8840  -20.4680  -23.9580 N.2   269  FMC269     -0.1480
     10  C9       -22.1580  -19.5490  -23.2670 C.2   269  FMC269      0.1291
     11  C1'      -22.3150  -19.0530  -21.8470 C.3   269  FMC269      0.1910
     12  C2'      -21.3600  -17.9890  -21.2830 C.3   269  FMC269      0.2173
     13  O2'      -20.4020  -18.5340  -20.3570 O.3   269  FMC269     -0.2173
     14  C3'      -22.2740  -16.9590  -20.6320 C.3   269  FMC269      0.2144
     15  O3'      -22.4730  -17.1990  -19.2310 O.3   269  FMC269     -0.2176
     16  C4'      -23.6020  -17.1280  -21.3450 C.3   269  FMC269      0.1814
     17  O4'      -23.6330  -18.5020  -21.6960 O.3   269  FMC269     -0.3446
     18  C5'      -23.7230  -16.2720  -22.6080 C.3   269  FMC269      0.2141
     19  O5'      -23.6660  -14.8660  -22.2770 O.3   269  FMC269     -0.2176
@<TRIPOS>BOND
     1     7     6    1
     2     6     1    2
     3     6     5    1
     4     1     2    1
     5     5     8    2
     6     5     4    1
     7     8     9    1
     8     2     3    1
     9     4     3    2
    10     4    10    1
    11     9    10    2
    12    10    11    1
    13    18    19    1
    14    18    16    1
    15    11    17    1
    16    11    12    1
    17    17    16    1
    18    16    14    1
    19    12    14    1
    20    12    13    1
    21    14    15    1
