@<TRIPOS>MOLECULE
2qtu_3AS_A_1.pdb
 26 29 0 0 0
SMALL
GASTEIGER

@<TRIPOS>ATOM
      1  C1        80.6000   42.5230   68.0700 C.ar    1  3AS1        0.1954
      2  C2        80.6450   42.5640   69.4510 C.ar    1  3AS1        0.0432
      3  C3        79.7810   41.7960   70.1760 C.ar    1  3AS1        0.0441
      4  C4        78.8430   40.9790   69.5460 C.ar    1  3AS1        0.1333
      5  O5        78.0110   40.2480   70.3720 O.3     1  3AS1       -0.4753
      6  C6        77.5250   39.0520   69.7450 C.3     1  3AS1        0.1885
      7  C8        76.6120   38.2680   70.7200 C.ar    1  3AS1        0.0174
      8  C9        76.6030   38.5840   72.0860 C.ar    1  3AS1        0.0025
      9  C10       75.7930   37.8710   72.9670 C.ar    1  3AS1        0.0418
     10  C11       74.9850   36.8410   72.5040 C.ar    1  3AS1        0.1957
     11  O12       74.2130   36.1510   73.3720 O.3     1  3AS1       -0.2866
     12  C13       74.9820   36.5220   71.1520 C.ar    1  3AS1        0.0418
     13  C14       75.7910   37.2320   70.2650 C.ar    1  3AS1        0.0025
     14  C15       76.8140   39.3880   68.4170 C.3     1  3AS1        0.0542
     15  C17       77.8040   40.0810   67.4280 C.3     1  3AS1        0.0348
     16  C19       78.7970   40.9380   68.1610 C.ar    1  3AS1        0.0147
     17  C20       79.6760   41.7130   67.4260 C.ar    1  3AS1        0.0407
     18  C21       76.9030   40.9690   66.5510 C.3     1  3AS1        0.0711
     19  C22       75.5620   41.1300   67.3020 C.3     1  3AS1        0.2644
     20  F23       75.3010   42.4760   67.4700 F       1  3AS1       -0.2043
     21  F24       74.5270   40.5530   66.5830 F       1  3AS1       -0.2043
     22  C25       75.6920   40.4070   68.6630 C.3     1  3AS1        0.0708
     23  C26       79.8260   41.8320   71.6730 C.3     1  3AS1        0.1718
     24  O27       80.6290   40.7550   72.1170 O.3     1  3AS1       -0.3462
     25  C28       80.6160   40.8770   73.5180 C.3     1  3AS1        0.1746
     26  O29       81.4450   43.2770   67.3500 O.3     1  3AS1       -0.2866
@<TRIPOS>BOND
     1    18    19    1
     2    18    15    1
     3    21    19    1
     4    19    20    1
     5    19    22    1
     6    26     1    1
     7    17     1   ar
     8    17    16   ar
     9    15    16    1
    10    15    14    1
    11     1     2   ar
    12    16     4   ar
    13    14    22    1
    14    14     6    1
    15     2     3   ar
    16     4     3   ar
    17     4     5    1
    18     6     5    1
    19     6     7    1
    20     3    23    1
    21    13     7   ar
    22    13    12   ar
    23     7     8   ar
    24    12    10   ar
    25    23    24    1
    26     8     9   ar
    27    24    25    1
    28    10     9   ar
    29    10    11    1
