@<TRIPOS>MOLECULE
2qtz_FAD_A_1.pdb
 43 46 0 0 0
SMALL
GASTEIGER

@<TRIPOS>ATOM
      1  PA        29.6430   29.7000   51.4020 P.3   700  FAD700      0.2189
      2  O1A       28.9870   29.1330   52.6480 O.3   700  FAD700     -0.4371
      3  O2A       29.9740   31.1440   51.4730 O.2   700  FAD700     -0.5170
      4  O5B       30.9930   28.8900   51.0990 O.3   700  FAD700     -0.3112
      5  C5B       31.4270   27.6640   51.6660 C.3   700  FAD700      0.1812
      6  C4B       32.9350   27.9810   51.8120 C.3   700  FAD700      0.1780
      7  O4B       33.6360   27.3460   52.8920 O.3   700  FAD700     -0.3482
      8  C3B       33.7470   27.7550   50.5490 C.3   700  FAD700      0.2140
      9  O3B       33.6340   28.8240   49.6340 O.3   700  FAD700     -0.2176
     10  C2B       35.0860   27.9300   51.2100 C.3   700  FAD700      0.2140
     11  O2B       35.1890   29.2960   51.5640 O.3   700  FAD700     -0.2176
     12  C1B       34.9540   27.0880   52.4760 C.3   700  FAD700      0.1777
     13  N1        28.2860   32.4550   42.2160 N.2   700  FAD700     -0.2890
     14  C2        27.3990   31.8190   41.3880 C.1   700  FAD700      0.3669
     15  O2        27.2550   30.6220   41.5040 O.2   700  FAD700     -0.1744
     16  N3        26.6660   32.5140   40.4420 N.2   700  FAD700     -0.2300
     17  C4        26.8190   33.8650   40.3050 C.1   700  FAD700      0.2513
     18  O4        26.1390   34.4960   39.4670 O.2   700  FAD700     -0.2057
     19  C4X       27.7200   34.5210   41.1210 C.2   700  FAD700      0.2700
     20  N5        27.9330   35.8640   40.9610 N.2   700  FAD700     -0.3878
     21  C5X       28.8170   36.5580   41.7750 C.2   700  FAD700      0.1320
     22  C6        29.0080   37.9360   41.5980 C.2   700  FAD700      0.0250
     23  C7        29.9220   38.6100   42.4150 C.2   700  FAD700     -0.0238
     24  C7M       30.0870   40.1090   42.2440 C.3   700  FAD700      0.0308
     25  C8        30.6660   37.8990   43.3600 C.2   700  FAD700     -0.0280
     26  C8M       31.6420   38.6080   44.2330 C.3   700  FAD700      0.0304
     27  C9        30.5030   36.5310   43.5180 C.2   700  FAD700     -0.0041
     28  C9A       29.5500   35.8540   42.7310 C.3   700  FAD700      0.1497
     29  N10       29.3250   34.4910   42.8830 N.pl3 700  FAD700     -0.2691
     30  C10       28.4600   33.8180   42.0580 C.2   700  FAD700      0.2416
     31  C1'       29.6450   33.7970   44.2090 C.3   700  FAD700      0.1294
     32  C2'       28.5340   33.8810   45.2660 C.3   700  FAD700      0.2044
     33  O2'       28.5070   35.2040   45.8160 O.3   700  FAD700     -0.2185
     34  C3'       28.7850   32.8960   46.4250 C.3   700  FAD700      0.2164
     35  O3'       30.1010   33.0710   46.9320 O.3   700  FAD700     -0.2175
     36  C4'       28.6280   31.4230   46.0440 C.3   700  FAD700      0.2145
     37  O4'       27.3390   31.1540   45.6250 O.3   700  FAD700     -0.2176
     38  C5'       28.8410   30.5140   47.2770 C.3   700  FAD700      0.1846
     39  O5'       28.1070   31.0080   48.4020 O.3   700  FAD700     -0.3111
     40  P         27.5610   30.0670   49.5660 P.3   700  FAD700      0.2189
     41  O1P       26.9570   30.8720   50.6830 O.3   700  FAD700     -0.4371
     42  O2P       26.6740   28.9870   49.0620 O.2   700  FAD700     -0.5170
     43  O3P       28.9070   29.3300   50.0280 O.3   700  FAD700     -0.2703
@<TRIPOS>BOND
     1    18    17    2
     2    17    16    2
     3    17    19    1
     4    16    14    2
     5    20    19    2
     6    20    21    2
     7    19    30    1
     8    14    15    2
     9    14    13    2
    10    22    21    1
    11    22    23    2
    12    21    28    1
    13    30    13    2
    14    30    29    1
    15    24    23    1
    16    23    25    1
    17    28    29    1
    18    28    27    1
    19    29    31    1
    20    25    27    2
    21    25    26    1
    22    31    32    1
    23    32    33    1
    24    32    34    1
    25    37    36    1
    26    36    34    1
    27    36    38    1
    28    34    35    1
    29    38    39    1
    30    39    40    1
    31    42    40    2
    32    40    43    1
    33    40    41    1
    34     9     8    1
    35    43     1    1
    36     8    10    1
    37     8     6    1
    38     4     1    1
    39     4     5    1
    40    10    11    1
    41    10    12    1
    42     1     3    2
    43     1     2    1
    44     5     6    1
    45     6     7    1
    46    12     7    1
