@<TRIPOS>MOLECULE
2qtz_NAP_A_1.pdb
 31 33 0 0 0
SMALL
GASTEIGER

@<TRIPOS>ATOM
      1  PA        34.2660   25.0390   37.5170 P.3   701  NAP701      0.2231
      2  O1A       32.7850   25.1570   37.4050 O.2   701  NAP701     -0.5169
      3  O2A       34.6010   23.8910   38.3770 O.3   701  NAP701     -0.4370
      4  O5B       34.9520   24.9610   36.0710 O.3   701  NAP701     -0.3111
      5  C5B       34.2010   24.9470   34.8620 C.3   701  NAP701      0.1813
      6  C4B       35.1080   24.6200   33.6770 C.3   701  NAP701      0.1820
      7  O4B       36.2960   25.4020   33.7350 O.3   701  NAP701     -0.3136
      8  C3B       35.5290   23.1620   33.7630 C.3   701  NAP701      0.2157
      9  O3B       35.7550   22.6230   32.4920 O.3   701  NAP701     -0.2175
     10  C2B       36.8920   23.2020   34.4180 C.3   701  NAP701      0.2314
     11  O2B       37.6250   22.0690   33.9910 O.3   701  NAP701     -0.2630
     12  C1B       37.4130   24.5140   33.8110 C.3   701  NAP701      0.3158
     13  N9A       38.6730   25.0400   34.4070 N.pl3 701  NAP701     -0.1439
     14  C8A       39.3160   24.6850   35.5760 C.3   701  NAP701      0.3377
     15  N7A       40.4800   25.4030   35.6640 N.2   701  NAP701     -0.2095
     16  C5A       40.5880   26.1980   34.5540 C.2   701  NAP701      0.2526
     17  C6A       41.5390   27.1340   34.1110 C.2   701  NAP701      0.4393
     18  N6A       42.6460   27.4220   34.8160 N.pl3 701  NAP701      0.2180
     19  N1A       41.3270   27.7930   32.9180 N.2   701  NAP701      0.0021
     20  C2A       40.2030   27.5370   32.1630 C.3   701  NAP701      0.5254
     21  N3A       39.2640   26.6370   32.6040 N.2   701  NAP701     -0.0055
     22  C4A       39.4530   25.9750   33.7780 C.2   701  NAP701      0.3518
     23  O3        34.8920   26.3260   38.2330 O.3   701  NAP701     -0.2261
     24  PN        35.6880   26.3320   39.6370 P.3   701  NAP701      0.5373
     25  O1N       34.7280   25.5450   40.6650 O.3   701  NAP701     -0.1143
     26  O2N       35.7640   27.7280   40.1230 O.3   701  NAP701     -0.1143
     27  O5D       36.9220   25.5100   39.4870 O.2   701  NAP701     -0.2221
     28  P2B       38.2870   21.0280   35.0550 P.3   701  NAP701      0.5328
     29  O1X       39.6770   21.5240   35.3030 O.3   701  NAP701     -0.1145
     30  O2X       38.2990   19.6890   34.3610 O.2   701  NAP701     -0.2224
     31  O3X       37.4290   21.1040   36.3080 O.3   701  NAP701     -0.1145
@<TRIPOS>BOND
     1    20    21    1
     2    20    19    1
     3     9     8    1
     4    21    22    2
     5    19    17    2
     6     6     7    1
     7     6     8    1
     8     6     5    1
     9     7    12    1
    10     8    10    1
    11    22    13    1
    12    22    16    1
    13    12    13    1
    14    12    10    1
    15    11    10    1
    16    11    28    1
    17    17    16    1
    18    17    18    1
    19    30    28    2
    20    13    14    1
    21    16    15    2
    22     5     4    1
    23    28    29    1
    24    28    31    1
    25    14    15    1
    26     4     1    1
    27     2     1    2
    28     1    23    1
    29     1     3    1
    30    23    24    1
    31    27    24    2
    32    24    26    1
    33    24    25    1
