@<TRIPOS>MOLECULE
2qu0_HEM_A_1.pdb
 43 50 0 0 0
SMALL
GASTEIGER

@<TRIPOS>ATOM
      1 FE         -3.8490   41.1630   46.3500 Fe    142  HEM142      0.0000
      2  CHA       -5.9280   43.0950   44.2430 C.2   142  HEM142      0.0000
      3  CHB       -6.5830   40.0320   47.9140 C.2   142  HEM142      0.0000
      4  CHC       -1.7920   39.3140   48.3760 C.2   142  HEM142      0.0000
      5  CHD       -1.1560   42.7010   45.0100 C.2   142  HEM142      0.0000
      6  NA        -5.8900   41.5170   46.1110 N.2   142  HEM142      0.0000
      7  C1A       -6.5420   42.3320   45.2030 C.2   142  HEM142      0.0000
      8  C2A       -7.9740   42.2550   45.3960 C.2   142  HEM142      0.0000
      9  C3A       -8.1780   41.4120   46.4300 C.2   142  HEM142      0.0000
     10  C4A       -6.8660   40.9210   46.8860 C.2   142  HEM142      0.0000
     11  CMA       -9.5310   40.9890   47.0500 C.3   142  HEM142      0.0000
     12  CAA       -8.9160   43.1180   44.5110 C.3   142  HEM142      0.0000
     13  CBA      -10.2760   42.5850   44.0630 C.3   142  HEM142      0.0000
     14  CGA      -11.1840   43.7450   43.6510 C.2   142  HEM142      0.0000
     15  O1A      -12.2400   43.4850   43.0100 O.co2 142  HEM142      0.0000
     16  O2A      -10.8850   44.9410   43.9480 O.co2 142  HEM142      0.0000
     17  NB        -4.1250   39.9660   47.8640 N.ar  142  HEM142      0.0000
     18  C1B       -5.3560   39.5430   48.3050 C.ar  142  HEM142      0.0000
     19  C2B       -5.1310   38.4880   49.2850 C.ar  142  HEM142      0.0000
     20  C3B       -3.7980   38.2900   49.3950 C.ar  142  HEM142      0.0000
     21  C4B       -3.1520   39.2130   48.5110 C.ar  142  HEM142      0.0000
     22  CMB       -6.2700   37.7590   50.0320 C.3   142  HEM142      0.0000
     23  CAB       -2.9650   37.3100   50.2560 C.2   142  HEM142      0.0000
     24  CBB       -3.4140   36.6770   51.3390 C.2   142  HEM142      0.0000
     25  NC        -1.8830   41.0290   46.6560 N.2   142  HEM142      0.0000
     26  C1C       -1.1960   40.2110   47.5320 C.2   142  HEM142      0.0000
     27  C2C        0.2180   40.4720   47.3790 C.2   142  HEM142      0.0000
     28  C3C        0.3490   41.4200   46.4450 C.2   142  HEM142      0.0000
     29  C4C       -0.9530   41.7690   45.9830 C.2   142  HEM142      0.0000
     30  CMC        1.3480   39.7930   48.1680 C.3   142  HEM142      0.0000
     31  CAC        1.6150   42.0830   45.8660 C.2   142  HEM142      0.0000
     32  CBC        2.4700   42.7510   46.6480 C.2   142  HEM142      0.0000
     33  ND        -3.6030   42.6340   44.8630 N.ar  142  HEM142      0.0000
     34  C1D       -2.3480   43.1280   44.5170 C.ar  142  HEM142      0.0000
     35  C2D       -2.4730   44.1780   43.5530 C.ar  142  HEM142      0.0000
     36  C3D       -3.9770   44.3170   43.3190 C.ar  142  HEM142      0.0000
     37  C4D       -4.5860   43.3160   44.1610 C.ar  142  HEM142      0.0000
     38  CMD       -1.3300   44.9840   42.9230 C.3   142  HEM142      0.0000
     39  CAD       -4.7080   45.2720   42.3620 C.3   142  HEM142      0.0000
     40  CBD       -4.6280   46.6940   42.8670 C.3   142  HEM142      0.0000
     41  CGD       -5.8610   47.4380   42.4260 C.2   142  HEM142      0.0000
     42  O1D       -5.6850   48.5660   41.9090 O.co2 142  HEM142      0.0000
     43  O2D       -7.0070   46.9230   42.5920 O.co2 142  HEM142      0.0000
@<TRIPOS>BOND
     1    42    41   ar
     2    39    40    1
     3    39    36    1
     4    41    43   ar
     5    41    40    1
     6    38    35    1
     7    15    14   ar
     8    36    35   ar
     9    36    37   ar
    10    35    34   ar
    11    14    16   ar
    12    14    13    1
    13    13    12    1
    14    37     2    2
    15    37    33   ar
    16     2     7    1
    17    12     8    1
    18    34    33   ar
    19    34     5    2
    20    33     1    1
    21     5    29    1
    22     7     8    1
    23     7     6    2
    24     8     9    2
    25    31    28    1
    26    31    32    2
    27    29    28    1
    28    29    25    2
    29     6     1    1
    30     6    10    1
    31     1    25    1
    32     1    17    1
    33     9    10    1
    34     9    11    1
    35    28    27    2
    36    25    26    1
    37    10     3    2
    38    27    26    1
    39    27    30    1
    40    26     4    2
    41    17    18   ar
    42    17    21   ar
    43     3    18    1
    44    18    19   ar
    45     4    21    1
    46    21    20   ar
    47    19    20   ar
    48    19    22    1
    49    20    23    1
    50    23    24    2
