@<TRIPOS>MOLECULE
2qu2_251_A_1.pdb
 24 26 0 0 0
SMALL
GASTEIGER

@<TRIPOS>ATOM
      1  C1        18.3370  -11.6980   18.9170 C.ar    1  2511        0.0000
      2  C2        17.0480  -11.0490   19.0270 C.ar    1  2511        0.0014
      3  C3        16.1190  -11.1040   17.9210 C.ar    1  2511        0.0158
      4  C4        16.4850  -11.7870   16.7150 C.ar    1  2511        0.0014
      5  C5        17.7610  -12.4340   16.5950 C.ar    1  2511        0.0000
      6  C6        18.6960  -12.3870   17.6920 C.ar    1  2511        0.0000
      7  C12       14.8110  -10.4690   17.9760 C.ar    1  2511        0.0603
      8  C13       13.8240  -10.7770   18.8570 C.ar    1  2511        0.0187
      9  C14       12.6430   -9.9420   18.5990 C.ar    1  2511        0.0187
     10  C15       12.8860   -9.1040   17.5430 C.ar    1  2511        0.0603
     11  N16       14.2800   -9.3890   17.0880 N.ar    1  2511       -0.3175
     12  C17       11.9070   -8.1160   16.9500 C.ar    1  2511        0.0158
     13  C18       12.2110   -6.6950   16.7440 C.ar    1  2511        0.0014
     14  C19       11.2440   -5.8120   16.1510 C.ar    1  2511        0.0000
     15  C20        9.9560   -6.3260   15.7640 C.ar    1  2511        0.0000
     16  C21        9.6490   -7.7050   15.9640 C.ar    1  2511        0.0000
     17  C22       10.5990   -8.5990   16.5500 C.ar    1  2511        0.0014
     18  C28       14.9770   -8.6830   15.9540 C.3     1  2511        0.2133
     19  C29       15.5320   -7.3540   16.5190 C.2     1  2511        0.3417
     20  N32       16.1700   -6.5730   15.5980 N.am    1  2511        0.0093
     21  O33       15.3750   -7.0450   17.7310 O.2     1  2511       -0.2513
     22  C34       16.7230   -5.3640   15.8330 C.2     1  2511        0.5320
     23  N35       16.6880   -4.7960   17.0640 N.pl3   1  2511        0.1335
     24  N36       17.2880   -4.7770   14.7960 N.pl3   1  2511        0.1335
@<TRIPOS>BOND
     1    24    22    1
     2    20    22    2
     3    20    19    1
     4    15    16   ar
     5    15    14   ar
     6    22    23    1
     7    18    19    1
     8    18    11    1
     9    16    17   ar
    10    14    13   ar
    11    19    21    2
    12    17    12   ar
    13     5     4   ar
    14     5     6   ar
    15     4     3   ar
    16    13    12   ar
    17    12    10    1
    18    11    10   ar
    19    11     7   ar
    20    10     9   ar
    21     6     1   ar
    22     3     7    1
    23     3     2   ar
    24     7     8   ar
    25     9     8   ar
    26     1     2   ar
