@<TRIPOS>MOLECULE
2qu3_462_A_1.pdb
 29 31 0 0 0
SMALL
GASTEIGER

@<TRIPOS>ATOM
      1  C1         8.8600   -2.0220   13.9810 C.3     1  4621        0.0040
      2  C2         8.5370   -3.2560   14.7620 C.3     1  4621        0.0473
      3  C3         9.6450   -4.2670   14.7850 C.3     1  4621        0.2054
      4  O1         9.1350   -5.4170   15.4240 O.3     1  4621       -0.4755
      5  C4         9.9380   -6.3600   15.9930 C.ar    1  4621        0.1386
      6  C5         9.5660   -7.7070   16.2220 C.ar    1  4621        0.0369
      7  C6        10.4550   -8.6200   16.8300 C.ar    1  4621        0.0031
      8  C7        11.7580   -8.2410   17.1800 C.ar    1  4621        0.0004
      9  C8        12.1190   -6.8710   16.9410 C.ar    1  4621        0.0031
     10  C9        11.2500   -5.9650   16.3420 C.ar    1  4621        0.0369
     11  C10       12.6740   -9.2070   17.8060 C.ar    1  4621        0.0035
     12  C11       12.3170  -10.0170   18.9300 C.ar    1  4621        0.0351
     13  S1        13.5460  -11.0820   19.4240 S.2     1  4621       -0.0867
     14  C12       14.5830  -10.5440   18.2130 C.ar    1  4621        0.0268
     15  C13       13.9960   -9.5600   17.3730 C.ar    1  4621       -0.0049
     16  C14       14.7640   -8.9120   16.2320 C.3     1  4621        0.1332
     17  C15       15.4510   -7.6670   16.7550 C.2     1  4621        0.3234
     18  O2        15.7470   -7.6040   17.9260 O.2     1  4621       -0.2530
     19  N1        15.7340   -6.8080   15.7290 N.am    1  4621        0.0076
     20  C16       16.2580   -5.6490   15.8760 C.2     1  4621        0.5319
     21  N2        16.7670   -5.1010   16.9950 N.pl3   1  4621        0.1335
     22  N3        16.4490   -4.8470   14.8020 N.pl3   1  4621        0.1335
     23  C17       15.8980  -11.0980   18.0410 C.ar    1  4621        0.0163
     24  C18       16.9250  -10.7100   18.9880 C.ar    1  4621        0.0013
     25  C19       18.2290  -11.2180   18.8530 C.ar    1  4621        0.0001
     26  C20       18.5600  -12.0590   17.7680 C.ar    1  4621        0.0009
     27  C21       17.5740  -12.4410   16.8330 C.ar    1  4621        0.0114
     28  C22       16.2540  -11.9470   16.9430 C.ar    1  4621        0.0581
     29 CL1        15.1300  -12.4800   15.7320 Cl      1  4621       -0.0822
@<TRIPOS>BOND
     1     1     2    1
     2     2     3    1
     3     3     4    1
     4    22    20    1
     5     4     5    1
     6    19    20    2
     7    19    17    1
     8    29    28    1
     9    20    21    1
    10     5     6   ar
    11     5    10   ar
    12     6     7   ar
    13    16    17    1
    14    16    15    1
    15    10     9   ar
    16    17    18    2
    17     7     8   ar
    18    27    28   ar
    19    27    26   ar
    20     9     8   ar
    21    28    23   ar
    22     8    11    1
    23    15    11   ar
    24    15    14   ar
    25    26    25   ar
    26    11    12   ar
    27    23    14    1
    28    23    24   ar
    29    14    13   ar
    30    25    24   ar
    31    12    13   ar
