@<TRIPOS>MOLECULE
2qu5_276_A_1.pdb
 32 35 0 0 0
SMALL
GASTEIGER

@<TRIPOS>ATOM
      1  C1        67.0220   90.6190   42.4480 C.ar  501  276501      0.0582
      2  C2        66.8250   90.0640   41.1750 C.ar  501  276501      0.1021
      3  N3        67.8350   89.9260   40.2650 N.ar  501  276501     -0.2390
      4  C4        69.0930   90.3430   40.6020 C.ar  501  276501      0.1392
      5  C5        69.3660   90.9030   41.8450 C.ar  501  276501      0.0613
      6  C6        68.3340   91.0500   42.7830 C.ar  501  276501      0.1485
      7  C10       70.2120   90.2100   39.6450 C.2   501  276501      0.2827
      8  O11       71.3040   90.7980   39.7750 O.2   501  276501     -0.2667
      9  N12       69.9370   89.3780   38.6010 N.am  501  276501     -0.1985
     10  C13       70.9310   89.1270   37.5570 C.3   501  276501      0.1389
     11  O17       68.7650   91.6190   43.9810 O.3   501  276501     -0.4533
     12  C18       67.9410   92.1250   44.9770 C.ar  501  276501      0.1481
     13  C19       67.2230   93.3370   44.8210 C.ar  501  276501      0.0732
     14  C20       66.4540   93.8150   45.8690 C.ar  501  276501      0.1784
     15  C21       66.3840   93.0840   47.1060 C.ar  501  276501      0.1756
     16  C22       67.0790   91.9000   47.2570 C.ar  501  276501      0.0389
     17  C23       67.8620   91.4110   46.1940 C.ar  501  276501      0.0403
     18  N27       65.6710   94.9350   46.0210 N.2   501  276501     -0.3240
     19  C28       65.1660   94.8930   47.2630 C.1   501  276501      0.2247
     20  N29       65.5680   93.8040   47.9380 N.2   501  276501     -0.3241
     21  N32       64.2820   95.9030   47.8620 N.pl3 501  276501     -0.1254
     22  C33       63.2770   96.6090   47.2720 C.ar  501  276501      0.0835
     23  C34       62.8180   97.7120   47.9910 C.ar  501  276501      0.0221
     24  C35       61.7760   98.5450   47.5260 C.ar  501  276501      0.0833
     25  C36       61.1880   98.2100   46.2550 C.ar  501  276501      0.0616
     26  C37       61.6440   97.0950   45.5090 C.ar  501  276501      0.0127
     27  C38       62.6890   96.2950   46.0200 C.ar  501  276501      0.0182
     28  C43       61.3450   99.7240   48.3940 C.3   501  276501      0.4194
     29 CL44       59.8900   99.1210   45.5280 Cl    501  276501     -0.0823
     30  F45       60.1520   99.4120   48.8550 F     501  276501     -0.1658
     31  F46       61.2950  100.8240   47.6670 F     501  276501     -0.1658
     32  F47       62.2040   99.9190   49.4030 F     501  276501     -0.1658
@<TRIPOS>BOND
     1    10     9    1
     2     9     7   am
     3     7     8    2
     4     7     4    1
     5     3     4   ar
     6     3     2   ar
     7     4     5   ar
     8     2     1   ar
     9     5     6   ar
    10     1     6   ar
    11     6    11    1
    12    11    12    1
    13    13    12   ar
    14    13    14   ar
    15    12    17   ar
    16    26    27   ar
    17    26    25   ar
    18    29    25    1
    19    14    18    2
    20    14    15   ar
    21    27    22   ar
    22    18    19    2
    23    17    16   ar
    24    25    24   ar
    25    15    16   ar
    26    15    20    2
    27    19    21    1
    28    19    20    2
    29    22    21    1
    30    22    23   ar
    31    24    23   ar
    32    24    28    1
    33    31    28    1
    34    28    30    1
    35    28    32    1
