@<TRIPOS>MOLECULE
2qu6_857_A_1.pdb
 36 40 0 0 0
SMALL
GASTEIGER

@<TRIPOS>ATOM
      1  C21       39.6450   38.4890   10.4420 C.ar  501  857501      0.0158
      2  C24       38.7970   37.4690   10.9550 C.ar  501  857501      0.0178
      3  C25       37.6380   37.8100   11.7690 C.ar  501  857501      0.0792
      4  C6        37.2520   39.1400   12.0840 C.ar  501  857501      0.0544
      5  C7        38.0880   40.1830   11.5640 C.ar  501  857501      0.1503
      6  C10       39.2510   39.8260   10.7710 C.ar  501  857501      0.0916
      7  C11       40.9570   27.6530   13.2560 C.ar  501  857501      0.1392
      8  N3        40.9480   27.7800   11.8820 N.ar  501  857501     -0.2390
      9  C12       40.1950   28.5270   14.0560 C.ar  501  857501      0.0613
     10  C13       39.4410   29.4710   13.3130 C.ar  501  857501      0.1481
     11  C8        39.4360   29.5680   11.8620 C.ar  501  857501      0.0581
     12  C9        40.2500   28.6630   11.1300 C.ar  501  857501      0.1021
     13  C14       38.6950   32.6260   13.5220 C.3   501  857501      0.1267
     14  C15       37.8610   33.6870   13.0770 C.2   501  857501      0.1558
     15  C16       36.4470   33.4940   12.8460 C.2   501  857501      0.1753
     16  C17       35.7930   32.2230   13.1150 C.2   501  857501      0.0428
     17  C1        36.5820   31.1190   13.6090 C.2   501  857501      0.0366
     18  C18       38.0140   31.3540   13.7710 C.2   501  857501      0.1301
     19  C19       36.9340   35.5190   12.5550 C.2   501  857501      0.3687
     20  N2        36.7430   36.9140   12.2430 N.pl3 501  857501     -0.1501
     21  N4        38.1380   34.9840   12.9020 N.2   501  857501     -0.3541
     22 CL         40.2450   41.0850   10.1650 Cl    501  857501     -0.0791
     23  O1        38.7070   30.2420   14.1750 O.3   501  857501     -0.4572
     24  O4        35.8870   34.6340   12.5110 O.2   501  857501     -0.4129
     25  C20       41.6870   26.5810   13.9270 C.2   501  857501      0.2827
     26  O2        41.6550   26.4290   15.1430 O.2   501  857501     -0.2667
     27  N5        42.4110   25.7570   13.1440 N.am  501  857501     -0.1985
     28  C22       43.1400   24.7140   13.8860 C.3   501  857501      0.1389
     29  O3        37.7660   41.5070   11.8390 O.3   501  857501     -0.4731
     30  C23       36.9760   41.7190   13.0240 C.3   501  857501      0.2212
     31  N1        37.5600   43.9470   13.9550 N.3   501  857501     -0.2696
     32  C2        38.4760   44.8730   13.2250 C.3   501  857501      0.0722
     33  C3        38.0680   44.7030   11.7730 C.3   501  857501      0.0188
     34  C4        36.8280   43.8450   11.7420 C.3   501  857501      0.0212
     35  C5        36.5800   43.1900   13.0970 C.3   501  857501      0.1016
     36  C26       37.1500   44.3340   15.3240 C.3   501  857501      0.0897
@<TRIPOS>BOND
     1    22     6    1
     2     1     6   ar
     3     1     2   ar
     4     6     5   ar
     5     2     3   ar
     6    12    11   ar
     7    12     8   ar
     8     5    29    1
     9     5     4   ar
    10    34    33    1
    11    34    35    1
    12     3     4   ar
    13     3    20    1
    14    33    32    1
    15    29    30    1
    16    11    10   ar
    17     8     7   ar
    18    20    19    1
    19    24    19    1
    20    24    15    1
    21    19    21    2
    22    15    14    1
    23    15    16    2
    24    21    14    2
    25    30    35    1
    26    14    13    1
    27    35    31    1
    28    16    17    1
    29    27    28    1
    30    27    25   am
    31    32    31    1
    32     7    25    1
    33     7     9   ar
    34    10     9   ar
    35    10    23    1
    36    13    18    1
    37    17    18    2
    38    18    23    1
    39    25    26    2
    40    31    36    1
