@<TRIPOS>MOLECULE
2qu8_GDP_A_1.pdb
 28 30 0 0 0
SMALL
GASTEIGER

@<TRIPOS>ATOM
      1  PB        34.4500   12.4310   -0.1610 P.3   229  GDP229      0.5373
      2  O1B       34.4130   11.8800   -1.5770 O.2   229  GDP229     -0.2221
      3  O2B       35.7730   12.0730    0.4580 O.3   229  GDP229     -0.1143
      4  O3B       34.3370   13.9180   -0.2810 O.3   229  GDP229     -0.1143
      5  O3A       33.2630   11.8000    0.7120 O.3   229  GDP229     -0.2261
      6  PA        31.7410   12.3550    0.7410 P.3   229  GDP229      0.2231
      7  O1A       31.2850   12.7080   -0.6630 O.2   229  GDP229     -0.5169
      8  O2A       31.6190   13.5330    1.6580 O.3   229  GDP229     -0.4370
      9  O5'       30.9820   11.0630    1.2970 O.3   229  GDP229     -0.3111
     10  C5'       30.8750    9.8880    0.4790 C.3   229  GDP229      0.1813
     11  C4'       29.6380    9.0870    0.8620 C.3   229  GDP229      0.1799
     12  O4'       29.6970    8.7690    2.2590 O.3   229  GDP229     -0.3326
     13  C3'       28.3580    9.8900    0.6740 C.3   229  GDP229      0.2158
     14  O3'       27.3170    9.0120    0.2470 O.3   229  GDP229     -0.2175
     15  C2'       28.0620   10.4070    2.0640 C.3   229  GDP229      0.2310
     16  O2'       26.6820   10.7270    2.2390 O.3   229  GDP229     -0.2158
     17  C1'       28.5280    9.2490    2.9270 C.3   229  GDP229      0.2293
     18  N9        28.9480    9.6180    4.2920 N.pl3 229  GDP229     -0.2354
     19  C8        29.6220   10.7340    4.6380 C.3   229  GDP229      0.2246
     20  N7        29.8720   10.7450    5.9700 N.2   229  GDP229     -0.2322
     21  C5        29.3530    9.6150    6.4900 C.2   229  GDP229      0.2182
     22  C6        29.2760    9.0000    7.8360 C.1   229  GDP229      0.2372
     23  O6        29.7750    9.5880    8.8230 O.2   229  GDP229     -0.2069
     24  N1        28.6480    7.8160    7.9590 N.2   229  GDP229     -0.2485
     25  C2        28.1040    7.1710    6.9050 C.1   229  GDP229      0.2531
     26  N2        27.4940    5.9750    7.1100 N.pl3 229  GDP229     -0.0226
     27  N3        28.1510    7.6780    5.6420 N.2   229  GDP229     -0.3074
     28  C4        28.7530    8.8700    5.3770 C.2   229  GDP229      0.2300
@<TRIPOS>BOND
     1     2     1    2
     2     7     6    2
     3     4     1    1
     4     1     3    1
     5     1     5    1
     6    14    13    1
     7    10    11    1
     8    10     9    1
     9    13    11    1
    10    13    15    1
    11     5     6    1
    12     6     9    1
    13     6     8    1
    14    11    12    1
    15    15    16    1
    16    15    17    1
    17    12    17    1
    18    17    18    1
    19    18    19    1
    20    18    28    1
    21    19    20    1
    22    28    27    2
    23    28    21    1
    24    27    25    2
    25    20    21    2
    26    21    22    1
    27    25    26    1
    28    25    24    2
    29    22    24    2
    30    22    23    2
