@<TRIPOS>MOLECULE
2qu9_EUG_A_1.pdb
 11 11 0 0 0
SMALL
GASTEIGER

@<TRIPOS>ATOM
      1  C1         5.8840   24.1340   -3.6740 C.ar  302  EUG302      0.0032
      2  C2         6.5970   24.6010   -4.7830 C.ar  302  EUG302      0.0402
      3  C3         7.5660   25.6020   -4.6620 C.ar  302  EUG302      0.1774
      4  C4         7.8320   26.1550   -3.2990 C.ar  302  EUG302      0.2293
      5  C5         7.1030   25.6490   -2.2180 C.ar  302  EUG302      0.0452
      6  C6         6.1340   24.6550   -2.4030 C.ar  302  EUG302      0.0035
      7  C7         4.8770   23.0630   -3.8770 C.2   302  EUG302      0.0001
      8  C8         5.2710   21.8250   -4.1500 C.2   302  EUG302      0.0000
      9  C9         9.0740   25.1740   -6.5710 C.3   302  EUG302      0.2526
     10  O3         8.2540   26.0540   -5.7840 O.3   302  EUG302     -0.4682
     11  O4         8.7760   27.1250   -3.1100 O.3   302  EUG302     -0.2833
@<TRIPOS>BOND
     1     9    10    1
     2    10     3    1
     3     2     3   ar
     4     2     1   ar
     5     3     4   ar
     6     8     7    2
     7     7     1    1
     8     1     6   ar
     9     4    11    1
    10     4     5   ar
    11     6     5   ar
