@<TRIPOS>MOLECULE
2que_AJM_A_1.pdb
 22 27 0 0 0
SMALL
GASTEIGER

@<TRIPOS>ATOM
      1  O1         0.8610    9.7250    8.7520 O.3   201  AJM201     -0.2227
      2  C15       -0.3300    9.8170    8.4140 C.3   201  AJM201      0.1588
      3  C5        -1.3360    9.3640    9.4920 C.3   201  AJM201      0.0680
      4  C4        -1.0510   10.4920   10.5080 C.3   201  AJM201      0.0281
      5  C6        -1.4600    8.0380   10.1790 C.ar  201  AJM201     -0.0054
      6  C7        -0.4690    7.0940   10.5080 C.ar  201  AJM201     -0.0029
      7  C8        -0.9110    5.9030   11.1790 C.ar  201  AJM201     -0.0002
      8  C9        -2.2850    5.6170   11.5290 C.ar  201  AJM201      0.0012
      9  C11       -2.8980    7.8160   10.5060 C.ar  201  AJM201      0.0440
     10  C10       -3.3040    6.6020   11.1850 C.ar  201  AJM201      0.0142
     11  C14       -0.7010   11.1210    8.1820 C.3   201  AJM201      0.0495
     12  C13       -1.5200   11.4830    7.1340 C.3   201  AJM201      0.0148
     13  C16       -1.8180   12.9950    7.0780 C.3   201  AJM201      0.0855
     14  C3        -1.3000   11.5130    9.3610 C.3   201  AJM201      0.0782
     15  N2        -2.6990   11.8760    9.0710 N.am  201  AJM201     -0.2811
     16  C17       -2.8110   13.0410    8.2290 C.2   201  AJM201      0.2256
     17  O2        -3.6380   13.9500    8.4300 O.2   201  AJM201     -0.2749
     18  C2        -3.1820   10.6130    8.4130 C.3   201  AJM201      0.0937
     19  C12       -2.8130   10.5900    6.9490 C.3   201  AJM201      0.0221
     20  C1        -2.8560    9.4450    9.0720 C.3   201  AJM201      0.0970
     21  N1        -3.6340    8.9230   10.0700 N.pl3 201  AJM201     -0.3056
     22  C18       -5.0810    8.7240    9.7240 C.3   201  AJM201      0.1122
@<TRIPOS>BOND
     1    19    12    1
     2    19    18    1
     3    13    12    1
     4    13    16    1
     5    12    11    1
     6    11     2    1
     7    11    14    1
     8    16    17    2
     9    16    15   am
    10    18    15    1
    11    18    20    1
    12     2     1    1
    13     2     3    1
    14    15    14    1
    15    20     3    1
    16    20    21    1
    17    14     4    1
    18     3     5    1
    19     3     4    1
    20    22    21    1
    21    21     9    1
    22     5     9   ar
    23     5     6   ar
    24     9    10   ar
    25     6     7   ar
    26     7     8   ar
    27    10     8   ar
