@<TRIPOS>MOLECULE
2que_ANN_A_1.pdb
 11 11 0 0 0
SMALL
GASTEIGER

@<TRIPOS>ATOM
      1  C8         5.6030   21.8310    6.2490 C.3   347  ANN347      0.2525
      2  O3         6.3600   21.6370    7.4680 O.3   347  ANN347     -0.4714
      3  C5         5.9150   20.8230    8.5710 C.ar  347  ANN347      0.1387
      4  C6         6.6770   20.6420    9.7830 C.ar  347  ANN347      0.0371
      5  C7         6.1870   19.8340   10.8450 C.ar  347  ANN347      0.0097
      6  C2         4.9050   19.1850   10.7030 C.ar  347  ANN347      0.0800
      7  C3         4.1420   19.3530    9.5050 C.ar  347  ANN347      0.0097
      8  C4         4.6440   20.1610    8.4530 C.ar  347  ANN347      0.0371
      9  C1         4.3520   18.3080   11.8570 C.2   347  ANN347      0.3878
     10  O1         3.2210   17.7340   11.8980 O.co2 347  ANN347     -0.2406
     11  O2         5.0980   18.2190   12.8500 O.co2 347  ANN347     -0.2406
@<TRIPOS>BOND
     1     1     2    1
     2     2     3    1
     3     8     3   ar
     4     8     7   ar
     5     3     4   ar
     6     7     6   ar
     7     4     5   ar
     8     6     5   ar
     9     6     9    1
    10     9    10   ar
    11     9    11   ar
