@<TRIPOS>MOLECULE
2quh_TRP_B_1.pdb
 15 16 0 0 0
SMALL
GASTEIGER

@<TRIPOS>ATOM
      1  N        -22.8210   95.2130 -192.2710 N.3   817  TRP817     -0.1205
      2  CA       -22.3330   94.5440 -191.0550 C.3   817  TRP817      0.1987
      3  C        -21.2070   93.5600 -191.4320 C.2   817  TRP817      0.3822
      4  O        -20.8340   93.4130 -192.6080 O.co2 817  TRP817     -0.2440
      5  CB       -23.4970   93.7340 -190.4430 C.3   817  TRP817      0.0585
      6  CG       -24.6890   94.5890 -189.9530 C.2   817  TRP817      0.0001
      7  CD1      -25.8450   94.8530 -190.5800 C.2   817  TRP817      0.0946
      8  CD2      -24.7330   95.2390 -188.7220 C.2   817  TRP817      0.0113
      9  NE1      -26.6240   95.6390 -189.8010 N.2   817  TRP817     -0.2442
     10  CE2      -25.9950   95.9020 -188.6640 C.2   817  TRP817      0.0804
     11  CE3      -23.8090   95.3310 -187.6180 C.2   817  TRP817     -0.0202
     12  CZ2      -26.3450   96.6670 -187.5050 C.2   817  TRP817      0.0148
     13  CZ3      -24.1610   96.1020 -186.4500 C.3   817  TRP817      0.0521
     14  CH2      -25.4320   96.7740 -186.3900 C.2   817  TRP817     -0.0199
     15  OXT      -20.6490   92.8930 -190.5240 O.co2 817  TRP817     -0.2440
@<TRIPOS>BOND
     1     4     3   ar
     2     1     2    1
     3     3     2    1
     4     3    15   ar
     5     2     5    1
     6     7     6    2
     7     7     9    1
     8     5     6    1
     9     6     8    1
    10     9    10    2
    11     8    10    1
    12     8    11    2
    13    10    12    1
    14    11    13    1
    15    12    14    2
    16    13    14    1
