@<TRIPOS>MOLECULE
2qui_ATP_A_1.pdb
 31 33 0 0 0
SMALL
GASTEIGER

@<TRIPOS>ATOM
      1  PG      -111.7630  -47.5460 -504.1240 P.3   502  ATP502      0.5373
      2  O1G     -110.4170  -46.9450 -504.2620 O.3   502  ATP502     -0.1143
      3  O2G     -111.7720  -49.1360 -504.3810 O.2   502  ATP502     -0.2221
      4  O3G     -112.3930  -47.3470 -502.6560 O.3   502  ATP502     -0.1143
      5  PB      -113.1460  -45.3330 -505.1400 P.3   502  ATP502      0.2277
      6  O1B     -113.0220  -44.8210 -503.7570 O.3   502  ATP502     -0.4368
      7  O2B     -114.4300  -45.1350 -505.8520 O.2   502  ATP502     -0.5168
      8  O3B     -112.8310  -46.9130 -505.1500 O.3   502  ATP502     -0.2258
      9  PA      -112.0300  -43.1960 -506.5370 P.3   502  ATP502      0.2189
     10  O1A     -113.1420  -43.1050 -507.5120 O.2   502  ATP502     -0.5170
     11  O2A     -112.0580  -42.3080 -505.3530 O.3   502  ATP502     -0.4371
     12  O3A     -111.9530  -44.7240 -506.0340 O.3   502  ATP502     -0.2700
     13  O5'     -110.6300  -43.0290 -507.3170 O.3   502  ATP502     -0.3112
     14  C5'     -109.3970  -42.9510 -506.5960 C.3   502  ATP502      0.1813
     15  C4'     -108.1990  -43.1660 -507.5250 C.3   502  ATP502      0.1821
     16  O4'     -108.4400  -44.3770 -508.2670 O.3   502  ATP502     -0.3135
     17  C3'     -108.1380  -42.0420 -508.5630 C.3   502  ATP502      0.2184
     18  O3'     -106.8300  -41.9780 -509.1380 O.3   502  ATP502     -0.2174
     19  C2'     -109.1160  -42.5910 -509.5990 C.3   502  ATP502      0.2570
     20  O2'     -108.9040  -41.9450 -510.8570 O.3   502  ATP502     -0.2130
     21  C1'     -108.5440  -44.0070 -509.6530 C.3   502  ATP502      0.3186
     22  N9      -109.4540  -44.8960 -510.4120 N.pl3 502  ATP502     -0.1439
     23  C8      -110.4790  -45.5850 -509.9100 C.3   502  ATP502      0.3377
     24  N7      -111.1000  -46.2370 -510.8910 N.2   502  ATP502     -0.2095
     25  C5      -110.4650  -45.9660 -512.0280 C.2   502  ATP502      0.2526
     26  C6      -110.6470  -46.3390 -513.3560 C.2   502  ATP502      0.4393
     27  N6      -111.6560  -47.1380 -513.6960 N.pl3 502  ATP502      0.2180
     28  N1      -109.8040  -45.8700 -514.2850 N.2   502  ATP502      0.0021
     29  C2      -108.8100  -45.0620 -513.9570 C.3   502  ATP502      0.5254
     30  N3      -108.6070  -44.6820 -512.7080 N.2   502  ATP502     -0.0055
     31  C4      -109.4110  -45.1130 -511.7250 C.2   502  ATP502      0.3518
@<TRIPOS>BOND
     1    28    29    1
     2    28    26    2
     3    29    30    1
     4    27    26    1
     5    26    25    1
     6    30    31    2
     7    25    31    1
     8    25    24    2
     9    31    22    1
    10    24    23    1
    11    20    19    1
    12    22    23    1
    13    22    21    1
    14    21    19    1
    15    21    16    1
    16    19    17    1
    17    18    17    1
    18    17    15    1
    19    16    15    1
    20    15    14    1
    21    10     9    2
    22    13    14    1
    23    13     9    1
    24     9    12    1
    25     9    11    1
    26    12     5    1
    27     7     5    2
    28     8     5    1
    29     8     1    1
    30     5     6    1
    31     3     1    2
    32     2     1    1
    33     1     4    1
