@<TRIPOS>MOLECULE
2qui_LTN_A_1.pdb
 15 16 0 0 0
SMALL
GASTEIGER

@<TRIPOS>ATOM
      1  NH3     -103.8630  -40.3170 -503.7530 N.3   501  LTN501     -0.1226
      2  CA      -104.1630  -41.4060 -504.7260 C.3   501  LTN501      0.1753
      3  CB      -103.1920  -42.5830 -504.4630 C.3   501  LTN501      0.0564
      4  CG      -101.7310  -42.2340 -504.6890 C.2   501  LTN501      0.0000
      5  CD2     -101.1010  -42.3650 -505.8920 C.2   501  LTN501      0.0115
      6  CE2      -99.7700  -41.9220 -505.5760 C.2   501  LTN501      0.0631
      7  CE3     -101.4480  -42.7980 -507.2210 C.2   501  LTN501      0.0006
      8  CD1     -100.8920  -41.7590 -503.7240 C.2   501  LTN501      0.0942
      9  NE1      -99.7200  -41.5850 -504.3070 N.2   501  LTN501     -0.2482
     10  CZ2      -98.7500  -41.9080 -506.6090 C.3   501  LTN501      0.0717
     11  CZ3     -100.4420  -42.7840 -508.2400 C.2   501  LTN501     -0.0042
     12  CH2      -99.0960  -42.3430 -507.9450 C.2   501  LTN501     -0.0198
     13  C       -105.5720  -41.9080 -504.5180 C.2   501  LTN501      0.2785
     14  O       -106.3710  -41.3740 -503.5270 O.2   501  LTN501     -0.2701
     15  N       -106.0450  -42.7910 -505.2100 N.am  501  LTN501     -0.0865
@<TRIPOS>BOND
     1    11    12    2
     2    11     7    1
     3    12    10    1
     4     7     5    2
     5    10     6    1
     6     5     6    1
     7     5     4    1
     8     6     9    2
     9    15    13   am
    10     2    13    1
    11     2     3    1
    12     2     1    1
    13     4     3    1
    14     4     8    2
    15    13    14    2
    16     9     8    1
