@<TRIPOS>MOLECULE
2quj_TRP_B_1.pdb
 15 16 0 0 0
SMALL
GASTEIGER

@<TRIPOS>ATOM
      1  N        -40.6590  104.3880 -216.5570 N.3   817  TRP817     -0.1205
      2  CA       -41.8990  104.5560 -217.3300 C.3   817  TRP817      0.1987
      3  C        -42.4070  105.9910 -217.1970 C.2   817  TRP817      0.3822
      4  O        -41.8100  106.8080 -216.5000 O.co2 817  TRP817     -0.2440
      5  CB       -42.9630  103.5740 -216.8320 C.3   817  TRP817      0.0585
      6  CG       -42.5810  102.1280 -217.1580 C.2   817  TRP817      0.0001
      7  CD1      -42.0800  101.2310 -216.3120 C.2   817  TRP817      0.0946
      8  CD2      -42.6850  101.5110 -218.4000 C.2   817  TRP817      0.0113
      9  NE1      -41.8620  100.0830 -216.9510 N.2   817  TRP817     -0.2442
     10  CE2      -42.2160  100.2120 -218.2280 C.2   817  TRP817      0.0804
     11  CE3      -43.1390  101.9370 -219.6430 C.2   817  TRP817     -0.0202
     12  CZ2      -42.2010   99.3330 -219.3050 C.2   817  TRP817      0.0148
     13  CZ3      -43.1210  101.0550 -220.7220 C.3   817  TRP817      0.0521
     14  CH2      -42.6540   99.7560 -220.5530 C.2   817  TRP817     -0.0199
     15  OXT      -43.4280  106.3430 -217.7930 O.co2 817  TRP817     -0.2440
@<TRIPOS>BOND
     1    13    14    1
     2    13    11    1
     3    14    12    2
     4    11     8    2
     5    12    10    1
     6     8    10    1
     7     8     6    1
     8    10     9    2
     9    15     3   ar
    10     2     3    1
    11     2     5    1
    12     2     1    1
    13     3     4   ar
    14     6     5    1
    15     6     7    2
    16     9     7    1
