@<TRIPOS>MOLECULE
2quj_TYM_A_1.pdb
 37 41 0 0 0
SMALL
GASTEIGER

@<TRIPOS>ATOM
      1  P        -19.6710   92.0970 -190.4080 P.3   810  TYM810      0.2723
      2  O1P      -19.4010   90.6060 -190.5270 O.3   810  TYM810     -0.4273
      3  O2P      -18.7610   93.1870 -190.9080 O.2   810  TYM810     -0.5082
      4  O5'      -20.0330   92.4660 -188.7860 O.3   810  TYM810     -0.3024
      5  C5'      -20.8770   91.5700 -188.1000 C.3   810  TYM810      0.1823
      6  C4'      -20.9820   91.9270 -186.6240 C.3   810  TYM810      0.1822
      7  O4'      -19.7080   91.6130 -186.0240 O.3   810  TYM810     -0.3135
      8  C1'      -19.0850   92.7180 -185.3960 C.3   810  TYM810      0.3186
      9  N9       -17.6010   92.6730 -185.6300 N.pl3 810  TYM810     -0.1439
     10  C4       -16.6130   92.7500 -184.6500 C.2   810  TYM810      0.3518
     11  N3       -16.7960   92.8870 -183.2970 N.2   810  TYM810     -0.0055
     12  C2       -15.6150   92.9250 -182.6360 C.3   810  TYM810      0.5254
     13  N1       -14.3620   92.8430 -183.1840 N.2   810  TYM810      0.0021
     14  C6       -14.2090   92.7070 -184.5310 C.2   810  TYM810      0.4393
     15  N6       -12.9860   92.6250 -185.0570 N.pl3 810  TYM810      0.2180
     16  C5       -15.3980   92.6560 -185.3330 C.2   810  TYM810      0.2526
     17  N7       -15.6050   92.5270 -186.6880 N.2   810  TYM810     -0.2095
     18  C8       -16.9040   92.5420 -186.8150 C.3   810  TYM810      0.3377
     19  C2'      -19.8540   93.9700 -186.0250 C.3   810  TYM810      0.2570
     20  O2'      -19.8780   95.0950 -185.1300 O.3   810  TYM810     -0.2130
     21  C3'      -21.2590   93.4500 -186.3560 C.3   810  TYM810      0.2184
     22  O3'      -22.1530   93.5460 -185.2390 O.3   810  TYM810     -0.2174
     23  NH3      -22.5880   95.7210 -192.1500 N.3   810  TYM810     -0.1206
     24  CA       -22.4250   94.6060 -191.1960 C.3   810  TYM810      0.1943
     25  CB       -23.7570   93.9340 -190.9340 C.3   810  TYM810      0.0547
     26  CG       -24.8150   94.8290 -190.2810 C.2   810  TYM810     -0.0138
     27  CD2      -24.7380   95.4420 -189.0210 C.3   810  TYM810      0.0819
     28  CE2      -25.9820   96.1270 -188.9350 C.2   810  TYM810      0.0665
     29  CE3      -23.8000   95.5110 -187.9460 C.2   810  TYM810     -0.0164
     30  CD1      -26.0170   95.1180 -190.9170 C.2   810  TYM810      0.0907
     31  NE1      -26.7000   95.9110 -190.0660 N.2   810  TYM810     -0.2482
     32  CZ2      -26.2820   96.9020 -187.7310 C.2   810  TYM810      0.0153
     33  CZ3      -24.0980   96.2540 -186.7960 C.2   810  TYM810     -0.0038
     34  CH2      -25.3330   96.9540 -186.6740 C.2   810  TYM810      0.0009
     35  C        -21.4970   93.5710 -191.7820 C.2   810  TYM810      0.3389
     36  O        -20.9720   93.6700 -192.8770 O.2   810  TYM810     -0.2482
     37  OPP      -21.2620   92.4360 -190.9910 O.3   810  TYM810     -0.4091
@<TRIPOS>BOND
     1    36    35    2
     2    23    24    1
     3    35    24    1
     4    35    37    1
     5    24    25    1
     6    37     1    1
     7    25    26    1
     8    30    26    2
     9    30    31    1
    10     3     1    2
    11     2     1    1
    12     1     4    1
    13    26    27    1
    14    31    28    2
    15    27    28    1
    16    27    29    1
    17    28    32    1
    18     4     5    1
    19     5     6    1
    20    29    33    2
    21    32    34    2
    22    18    17    1
    23    18     9    1
    24    33    34    1
    25    17    16    2
    26     6    21    1
    27     6     7    1
    28    21    19    1
    29    21    22    1
    30    19     8    1
    31    19    20    1
    32     7     8    1
    33     9     8    1
    34     9    10    1
    35    16    10    1
    36    16    14    1
    37    15    14    1
    38    10    11    2
    39    14    13    2
    40    11    12    1
    41    13    12    1
