@<TRIPOS>MOLECULE
2qur_ADP_B_1.pdb
 27 29 0 0 0
SMALL
GASTEIGER

@<TRIPOS>ATOM
      1  PB        25.2090    8.3530   34.4700 P.3     1  ADP1        0.5373
      2  O1B       25.3300    7.9140   33.0460 O.2     1  ADP1       -0.2221
      3  O2B       24.1510    9.4060   34.5570 O.3     1  ADP1       -0.1143
      4  O3B       26.6290    8.9540   34.9590 O.3     1  ADP1       -0.1143
      5  PA        25.7990    6.7010   36.6270 P.3     1  ADP1        0.2231
      6  O1A       27.1580    6.3740   36.0930 O.2     1  ADP1       -0.5169
      7  O2A       25.8880    7.8290   37.5900 O.3     1  ADP1       -0.4370
      8  O3A       24.7740    7.0710   35.3950 O.3     1  ADP1       -0.2261
      9  O5'       25.2230    5.4370   37.4010 O.3     1  ADP1       -0.3111
     10  C5'       23.9340    5.4980   38.0050 C.3     1  ADP1        0.1813
     11  C4'       23.0070    4.4700   37.3820 C.3     1  ADP1        0.1821
     12  O4'       21.7670    4.4620   38.1360 O.3     1  ADP1       -0.3135
     13  C3'       22.5790    4.7390   35.9460 C.3     1  ADP1        0.2184
     14  O3'       23.5140    4.1880   35.0300 O.3     1  ADP1       -0.2174
     15  C2'       21.2220    4.0460   35.8600 C.3     1  ADP1        0.2570
     16  O2'       21.3100    2.6490   35.6530 O.3     1  ADP1       -0.2130
     17  C1'       20.6690    4.2820   37.2640 C.3     1  ADP1        0.3186
     18  N9        19.7630    5.4230   37.4220 N.pl3   1  ADP1       -0.1439
     19  C8        20.0640    6.7630   37.4830 C.3     1  ADP1        0.3377
     20  N7        19.0210    7.5300   37.6770 N.2     1  ADP1       -0.2095
     21  C5        17.9580    6.6400   37.7370 C.2     1  ADP1        0.2526
     22  C6        16.5810    6.8260   37.9340 C.2     1  ADP1        0.4393
     23  N6        16.0140    8.0160   38.1170 N.pl3   1  ADP1        0.2180
     24  N1        15.7960    5.7320   37.9380 N.2     1  ADP1        0.0021
     25  C2        16.3630    4.5360   37.7610 C.3     1  ADP1        0.5254
     26  N3        17.6410    4.2300   37.5740 N.2     1  ADP1       -0.0055
     27  C4        18.3980    5.3410   37.5710 C.2     1  ADP1        0.3518
@<TRIPOS>BOND
     1     2     1    2
     2     1     3    1
     3     1     4    1
     4     1     8    1
     5    14    13    1
     6     8     5    1
     7    16    15    1
     8    15    13    1
     9    15    17    1
    10    13    11    1
    11     6     5    2
    12     5     9    1
    13     5     7    1
    14    17    18    1
    15    17    12    1
    16    11    10    1
    17    11    12    1
    18     9    10    1
    19    18    19    1
    20    18    27    1
    21    19    20    1
    22    27    26    2
    23    27    21    1
    24    26    25    1
    25    20    21    2
    26    21    22    1
    27    25    24    1
    28    22    24    2
    29    22    23    1
