@<TRIPOS>MOLECULE
2quz_GDP_A_1.pdb
 28 30 0 0 0
SMALL
GASTEIGER

@<TRIPOS>ATOM
      1  PB        -7.3820   14.1060   20.2280 P.3   180  GDP180      0.5373
      2  O1B       -6.2650   14.2130   21.2510 O.3   180  GDP180     -0.1143
      3  O2B       -7.0350   13.0990   19.1450 O.2   180  GDP180     -0.2221
      4  O3B       -7.7530   15.4650   19.6460 O.3   180  GDP180     -0.1143
      5  O3A       -8.6340   13.5580   21.0480 O.3   180  GDP180     -0.2261
      6  PA       -10.1880   13.9090   20.8900 P.3   180  GDP180      0.2231
      7  O1A      -10.5580   13.6770   19.4390 O.2   180  GDP180     -0.5169
      8  O2A      -10.5280   15.2700   21.4360 O.3   180  GDP180     -0.4370
      9  O5'      -10.8670   12.8130   21.8590 O.3   180  GDP180     -0.3111
     10  C5'      -10.6330   11.4120   21.6480 C.3   180  GDP180      0.1813
     11  C4'      -11.8350   10.6610   22.1960 C.3   180  GDP180      0.1799
     12  O4'      -11.8610   10.8030   23.6130 O.3   180  GDP180     -0.3326
     13  C3'      -13.1610   11.2260   21.7230 C.3   180  GDP180      0.2158
     14  O3'      -14.0760   10.1350   21.5240 O.3   180  GDP180     -0.2175
     15  C2'      -13.6430   12.1130   22.8470 C.3   180  GDP180      0.2310
     16  O2'      -15.0610   12.1210   22.9760 O.3   180  GDP180     -0.2158
     17  C1'      -13.0980   11.3740   24.0300 C.3   180  GDP180      0.2293
     18  N9       -12.7650   12.2740   25.1440 N.pl3 180  GDP180     -0.2354
     19  C8       -11.9170   13.3140   25.0930 C.3   180  GDP180      0.2246
     20  N7       -11.8080   13.8960   26.3000 N.2   180  GDP180     -0.2322
     21  C5       -12.5950   13.1840   27.1380 C.2   180  GDP180      0.2182
     22  C6       -12.9470   13.2170   28.5700 C.1   180  GDP180      0.2372
     23  O6       -12.4590   14.0770   29.3450 O.2   180  GDP180     -0.2069
     24  N1       -13.8080   12.2950   29.0330 N.2   180  GDP180     -0.2485
     25  C2       -14.3540   11.3250   28.2600 C.1   180  GDP180      0.2531
     26  N2       -15.2140   10.4500   28.8220 N.pl3 180  GDP180     -0.0226
     27  N3       -14.0860   11.2320   26.9420 N.2   180  GDP180     -0.3074
     28  C4       -13.2200   12.1050   26.3800 C.2   180  GDP180      0.2300
@<TRIPOS>BOND
     1     3     1    2
     2     7     6    2
     3     4     1    1
     4     1     5    1
     5     1     2    1
     6     6     5    1
     7     6     8    1
     8     6     9    1
     9    14    13    1
    10    10     9    1
    11    10    11    1
    12    13    11    1
    13    13    15    1
    14    11    12    1
    15    15    16    1
    16    15    17    1
    17    12    17    1
    18    17    18    1
    19    19    18    1
    20    19    20    1
    21    18    28    1
    22    20    21    2
    23    28    27    2
    24    28    21    1
    25    27    25    2
    26    21    22    1
    27    25    26    1
    28    25    24    2
    29    22    24    2
    30    22    23    2
