@<TRIPOS>MOLECULE
2qv6_GTP_A_1.pdb
 32 34 0 0 0
SMALL
GASTEIGER

@<TRIPOS>ATOM
      1  PG         0.4430   36.0790   -7.3910 P.3   300  GTP300      0.5373
      2  O1G       -0.8230   36.8910   -7.5100 O.3   300  GTP300     -0.1143
      3  O2G        1.2380   36.0550   -8.6490 O.2   300  GTP300     -0.2221
      4  O3G        1.4140   36.4770   -6.3420 O.3   300  GTP300     -0.1143
      5  O3B       -0.0500   34.5490   -7.0940 O.3   300  GTP300     -0.2258
      6  PB         0.8040   33.5840   -6.1730 P.3   300  GTP300      0.2277
      7  O1B        2.2310   33.9850   -5.9490 O.3   300  GTP300     -0.4368
      8  O2B        0.6690   32.0850   -6.5260 O.2   300  GTP300     -0.5168
      9  O3A        0.0900   33.4220   -4.7210 O.3   300  GTP300     -0.2700
     10  PA         0.0760   34.4210   -3.4760 P.3   300  GTP300      0.2189
     11  O1A       -1.2060   35.2280   -3.5250 O.2   300  GTP300     -0.5170
     12  O2A        1.2810   35.3340   -3.4260 O.3   300  GTP300     -0.4371
     13  O5'        0.0450   33.4930   -2.1980 O.3   300  GTP300     -0.3112
     14  C5'        1.0720   32.5960   -1.8870 C.3   300  GTP300      0.1813
     15  C4'        1.3710   32.7940   -0.4020 C.3   300  GTP300      0.1799
     16  O4'        1.6550   34.1580   -0.1040 O.3   300  GTP300     -0.3326
     17  C3'        0.2370   32.4350    0.5330 C.3   300  GTP300      0.2158
     18  O3'        0.1820   31.0390    0.7810 O.3   300  GTP300     -0.2175
     19  C2'        0.6200   33.2090    1.7620 C.3   300  GTP300      0.2310
     20  O2'        1.4910   32.4000    2.5140 O.3   300  GTP300     -0.2158
     21  C1'        1.4310   34.3870    1.2790 C.3   300  GTP300      0.2293
     22  N9         0.8420   35.7390    1.4460 N.pl3 300  GTP300     -0.2354
     23  C8        -0.0270   36.3860    0.6020 C.3   300  GTP300      0.2246
     24  N7        -0.2500   37.6350    1.0840 N.2   300  GTP300     -0.2322
     25  C5         0.4730   37.7810    2.2130 C.2   300  GTP300      0.2182
     26  C6         0.5900   38.8360    3.0730 C.1   300  GTP300      0.2372
     27  O6        -0.0250   39.9360    2.9440 O.2   300  GTP300     -0.2069
     28  N1         1.4260   38.6950    4.1380 N.2   300  GTP300     -0.2485
     29  C2         2.1240   37.5600    4.4000 C.1   300  GTP300      0.2531
     30  N2         2.8690   37.6300    5.4960 N.pl3 300  GTP300     -0.0226
     31  N3         2.0290   36.4620    3.5580 N.2   300  GTP300     -0.3074
     32  C4         1.1960   36.6060    2.4540 C.2   300  GTP300      0.2300
@<TRIPOS>BOND
     1     3     1    2
     2     2     1    1
     3     1     5    1
     4     1     4    1
     5     5     6    1
     6     8     6    2
     7     6     7    1
     8     6     9    1
     9     9    10    1
    10    11    10    2
    11    10    12    1
    12    10    13    1
    13    13    14    1
    14    14    15    1
    15    15    16    1
    16    15    17    1
    17    16    21    1
    18    17    18    1
    19    17    19    1
    20    23    24    1
    21    23    22    1
    22    24    25    2
    23    21    22    1
    24    21    19    1
    25    22    32    1
    26    19    20    1
    27    25    32    1
    28    25    26    1
    29    32    31    2
    30    27    26    2
    31    26    28    2
    32    31    29    2
    33    28    29    2
    34    29    30    1
