@<TRIPOS>MOLECULE
2qv7_ADP_A_1.pdb
 27 29 0 0 0
SMALL
GASTEIGER

@<TRIPOS>ATOM
      1  PB        70.4880   42.0690   27.0210 P.3   500  ADP500      0.5373
      2  O1B       70.8080   43.5390   27.1680 O.3   500  ADP500     -0.1143
      3  O2B       70.6270   41.5660   25.6060 O.2   500  ADP500     -0.2221
      4  O3B       71.1460   41.1530   28.0250 O.3   500  ADP500     -0.1143
      5  PA        67.9850   40.7810   27.7640 P.3   500  ADP500      0.2231
      6  O1A       68.7400   39.5050   27.5200 O.3   500  ADP500     -0.4370
      7  O2A       66.6410   40.9810   27.1110 O.2   500  ADP500     -0.5169
      8  O3A       68.9060   42.0640   27.3840 O.3   500  ADP500     -0.2261
      9  O5'       67.7130   40.9590   29.3380 O.3   500  ADP500     -0.3111
     10  C5'       68.7080   40.7000   30.3260 C.3   500  ADP500      0.1813
     11  C4'       68.0500   40.2100   31.6140 C.3   500  ADP500      0.1821
     12  O4'       67.5430   41.3110   32.3770 O.3   500  ADP500     -0.3135
     13  C3'       66.8570   39.2950   31.3610 C.3   500  ADP500      0.2184
     14  O3'       67.2400   37.9170   31.4470 O.3   500  ADP500     -0.2174
     15  C2'       65.8590   39.6420   32.4460 C.3   500  ADP500      0.2570
     16  O2'       65.7960   38.5660   33.3790 O.3   500  ADP500     -0.2130
     17  C1'       66.4010   40.8880   33.1350 C.3   500  ADP500      0.3186
     18  N9        65.4110   41.9940   33.2010 N.pl3 500  ADP500     -0.1439
     19  C8        64.1820   42.0220   32.6460 C.3   500  ADP500      0.3377
     20  N7        63.5550   43.1980   32.8950 N.2   500  ADP500     -0.2095
     21  C5        64.3920   43.9540   33.6230 C.2   500  ADP500      0.2526
     22  C6        64.3600   45.3070   34.2210 C.2   500  ADP500      0.4393
     23  N6        63.2700   46.0990   34.0770 N.pl3 500  ADP500      0.2180
     24  N1        65.4530   45.7240   34.9120 N.2   500  ADP500      0.0021
     25  C2        66.5440   44.9430   35.0540 C.3   500  ADP500      0.5254
     26  N3        66.6380   43.7030   34.5330 N.2   500  ADP500     -0.0055
     27  C4        65.6150   43.1590   33.8240 C.2   500  ADP500      0.3518
@<TRIPOS>BOND
     1     3     1    2
     2     1     2    1
     3     1     8    1
     4     1     4    1
     5     7     5    2
     6     8     5    1
     7     6     5    1
     8     5     9    1
     9     9    10    1
    10    10    11    1
    11    13    14    1
    12    13    11    1
    13    13    15    1
    14    11    12    1
    15    12    17    1
    16    15    17    1
    17    15    16    1
    18    19    20    1
    19    19    18    1
    20    20    21    2
    21    17    18    1
    22    18    27    1
    23    21    27    1
    24    21    22    1
    25    27    26    2
    26    23    22    1
    27    22    24    2
    28    26    25    1
    29    24    25    1
