@<TRIPOS>MOLECULE
2qvc_BGC_A_1.pdb
 12 12 0 0 0
SMALL
GASTEIGER

@<TRIPOS>ATOM
      1  C2        24.4700   48.3930   69.5240 C.3   400  BGC400      0.2434
      2  C3        23.8150   47.8130   68.2600 C.3   400  BGC400      0.2199
      3  C4        22.8840   46.6690   68.6160 C.3   400  BGC400      0.2144
      4  C5        21.8620   47.1640   69.6390 C.3   400  BGC400      0.1836
      5  C6        20.8180   46.1330   70.0260 C.3   400  BGC400      0.2142
      6  C1        23.4190   48.7210   70.5990 C.3   400  BGC400      0.3024
      7  O1        24.0520   49.0420   71.7880 O.3   400  BGC400     -0.1869
      8  O2        25.1790   49.5710   69.1760 O.3   400  BGC400     -0.2148
      9  O3        24.8190   47.3420   67.3910 O.3   400  BGC400     -0.2174
     10  O4        22.2270   46.2010   67.4590 O.3   400  BGC400     -0.2176
     11  O5        22.5540   47.5850   70.8400 O.3   400  BGC400     -0.3236
     12  O6        21.4020   45.0160   70.6850 O.3   400  BGC400     -0.2176
@<TRIPOS>BOND
     1     9     2    1
     2    10     3    1
     3     2     3    1
     4     2     1    1
     5     3     4    1
     6     8     1    1
     7     1     6    1
     8     4     5    1
     9     4    11    1
    10     5    12    1
    11     6    11    1
    12     6     7    1
