@<TRIPOS>MOLECULE
2qvd_BER_A_1.pdb
 25 29 0 0 0
SMALL
GASTEIGER

@<TRIPOS>ATOM
      1  C1        21.7450   47.4060   -7.4540 C.2   1811  BER1811     0.0521
      2  C2        22.4250   47.4480   -6.1280 C.2   1811  BER1811    -0.0004
      3  N1        20.5490   48.0230   -7.6100 N.pl3 1811  BER1811    -0.2635
      4  C3        22.4120   46.6720   -8.5620 C.2   1811  BER1811     0.0150
      5  C4        21.7440   48.1840   -5.0220 C.2   1811  BER1811     0.0021
      6  C5        23.6570   46.8150   -5.9390 C.3   1811  BER1811     0.0948
      7  C6        19.8800   48.0080   -8.8100 C.2   1811  BER1811     0.0726
      8  C7        19.9650   48.6710   -6.5870 C.2   1811  BER1811     0.0695
      9  C8        21.7430   46.6240   -9.8720 C.ar  1811  BER1811     0.0056
     10  C9        22.3110   48.2810   -3.7550 C.2   1811  BER1811     0.0396
     11  C10       20.5220   48.7710   -5.3080 C.2   1811  BER1811     0.0163
     12  C11       24.2020   46.9260   -4.6700 C.2   1811  BER1811     0.1583
     13  C12       20.4380   47.3130   -9.9930 C.ar  1811  BER1811     0.0522
     14  C13       22.3090   45.9540  -10.9540 C.ar  1811  BER1811     0.0034
     15  C14       23.5370   47.6480   -3.5970 C.2   1811  BER1811     0.1726
     16  O1        25.4200   46.4170   -4.1220 O.2   1811  BER1811    -0.4387
     17  C15       19.7530   47.2750  -11.3080 C.ar  1811  BER1811     0.1735
     18  C16       21.6710   45.9030  -12.1940 C.ar  1811  BER1811     0.0400
     19  O2        24.3970   47.5370   -2.4660 O.2   1811  BER1811    -0.4350
     20  C17       25.5310   46.7930   -2.7840 C.3   1811  BER1811     0.4291
     21  C18       20.4390   46.5300  -12.4010 C.ar  1811  BER1811     0.1724
     22  O3        18.5280   47.8700  -11.5250 O.3   1811  BER1811    -0.4683
     23  O4        19.8540   46.4640  -13.6370 O.3   1811  BER1811    -0.4684
     24  C19       18.3640   49.2920  -11.6360 C.3   1811  BER1811     0.2526
     25  C20       19.6360   45.1930  -14.2530 C.3   1811  BER1811     0.2526
@<TRIPOS>BOND
     1    25    23    1
     2    23    21    1
     3    21    18   ar
     4    21    17   ar
     5    18    14   ar
     6    24    22    1
     7    22    17    1
     8    17    13   ar
     9    14     9   ar
    10    13     9   ar
    11    13     7    2
    12     9     4    2
    13     7     3    1
    14     4     1    1
    15     3     1    1
    16     3     8    1
    17     1     2    2
    18     8    11    2
    19     2     6    1
    20     2     5    1
    21     6    12    1
    22    11     5    1
    23     5    10    2
    24    12    16    1
    25    12    15    2
    26    16    20    1
    27    10    15    1
    28    15    19    1
    29    20    19    1
