@<TRIPOS>MOLECULE
2qve_247_A_1.pdb
 15 15 0 0 0
SMALL
GASTEIGER

@<TRIPOS>ATOM
      1  CAB      -25.2590    9.2650   30.3930 C.ar  991  247991      0.0006
      2  CAD      -25.4720    7.9670   30.8480 C.ar  991  247991      0.0418
      3  CAE      -25.4800    7.7010   32.2120 C.ar  991  247991      0.1957
      4  OAK      -25.7420    6.4440   32.6590 O.3   991  247991     -0.2866
      5  CAF      -25.2650    8.7320   33.1190 C.ar  991  247991      0.0418
      6  CAC      -25.0520   10.0290   32.6660 C.ar  991  247991      0.0006
      7  CAA      -25.0550   10.2980   31.3010 C.ar  991  247991      0.0012
      8  CAG      -24.9050   11.7420   30.8130 C.3   991  247991      0.1859
      9  NAJ      -23.4830   12.1130   30.8180 N.3   991  247991     -0.1216
     10  CAH      -25.4670   11.8740   29.3950 C.3   991  247991      0.3740
     11  CAI      -25.7040   13.3360   29.0150 C.2   991  247991      0.4264
     12  OAM      -25.4550   14.2020   29.8800 O.co2 991  247991     -0.2395
     13  OAL      -26.1410   13.5580   27.8640 O.co2 991  247991     -0.2395
     14  F1       -26.4140   11.3360   29.3390 F     991  247991     -0.1903
     15  F2       -24.7620   11.4340   28.6910 F     991  247991     -0.1903
@<TRIPOS>BOND
     1    13    11   ar
     2    15    10    1
     3    11    10    1
     4    11    12   ar
     5    14    10    1
     6    10     8    1
     7     1     2   ar
     8     1     7   ar
     9     8     9    1
    10     8     7    1
    11     2     3   ar
    12     7     6   ar
    13     3     4    1
    14     3     5   ar
    15     6     5   ar
