@<TRIPOS>MOLECULE
2qvh_OSB_A_1.pdb
 16 16 0 0 0
SMALL
GASTEIGER

@<TRIPOS>ATOM
      1  O1        -2.1340    6.2720    2.3030 O.co2 5550  OSB5550    -0.2406
      2  O2        -1.4790    5.0220    0.5970 O.co2 5550  OSB5550    -0.2406
      3  C7        -1.4760    5.2160    1.8040 C.2   5550  OSB5550     0.3878
      4  C6         1.1280    2.7930    3.3280 C.ar  5550  OSB5550     0.0031
      5  C5         0.4960    2.5050    4.5540 C.ar  5550  OSB5550     0.0001
      6  C4        -0.7440    3.0900    4.8750 C.ar  5550  OSB5550     0.0002
      7  C3        -1.3770    3.9700    3.9760 C.ar  5550  OSB5550     0.0067
      8  C2        -0.7690    4.2830    2.7270 C.ar  5550  OSB5550     0.0825
      9  C1         0.5230    3.6760    2.3950 C.ar  5550  OSB5550     0.0411
     10  C8         1.2120    3.9660    1.1110 C.2   5550  OSB5550     0.1738
     11  C9         1.5790    2.8340    0.1630 C.3   5550  OSB5550     0.0810
     12  O3         1.4580    5.1280    0.8220 O.2   5550  OSB5550    -0.2913
     13  C10        2.8450    3.1830   -0.6530 C.3   5550  OSB5550     0.1222
     14  C11        2.5070    4.0150   -1.8790 C.2   5550  OSB5550     0.3653
     15  O4         1.3650    4.1030   -2.2780 O.co2 5550  OSB5550    -0.2456
     16  O5         3.4860    4.6720   -2.5240 O.co2 5550  OSB5550    -0.2456
@<TRIPOS>BOND
     1    16    14   ar
     2    15    14   ar
     3    14    13    1
     4    13    11    1
     5    11    10    1
     6     2     3   ar
     7    12    10    2
     8    10     9    1
     9     3     1   ar
    10     3     8    1
    11     9     8   ar
    12     9     4   ar
    13     8     7   ar
    14     4     5   ar
    15     7     6   ar
    16     5     6   ar
