@<TRIPOS>MOLECULE
2qvn_GMP_A_1.pdb
 20 22 0 0 0
SMALL
GASTEIGER

@<TRIPOS>ATOM
      1  O5'       32.4280   21.1190   35.3430 O.3   500  GMP500     -0.2176
      2  C5'       32.9600   21.3380   36.6370 C.3   500  GMP500      0.2142
      3  C4'       32.8480   22.8170   36.9610 C.3   500  GMP500      0.1828
      4  O4'       31.5160   23.2380   36.7200 O.3   500  GMP500     -0.3325
      5  C3'       33.1490   23.1390   38.4160 C.3   500  GMP500      0.2159
      6  O3'       33.7070   24.4350   38.5100 O.3   500  GMP500     -0.2175
      7  C2'       31.7850   23.1110   39.0550 C.3   500  GMP500      0.2310
      8  O2'       31.7070   23.8210   40.2810 O.3   500  GMP500     -0.2158
      9  C1'       30.9780   23.7390   37.9250 C.3   500  GMP500      0.2293
     10  N9        29.5440   23.4620   38.0560 N.pl3 500  GMP500     -0.2354
     11  C8        28.8870   22.2600   37.9730 C.3   500  GMP500      0.2246
     12  N7        27.5640   22.4910   38.1640 N.2   500  GMP500     -0.2322
     13  C5        27.3800   23.8190   38.3620 C.2   500  GMP500      0.2182
     14  C6        26.2650   24.6150   38.6090 C.1   500  GMP500      0.2372
     15  O6        25.1410   24.1230   38.6850 O.2   500  GMP500     -0.2069
     16  N1        26.4320   25.9820   38.7750 N.2   500  GMP500     -0.2485
     17  C2        27.6790   26.5670   38.6990 C.1   500  GMP500      0.2531
     18  N2        27.8370   27.8790   38.8510 N.pl3 500  GMP500     -0.0226
     19  N3        28.7670   25.7680   38.4560 N.2   500  GMP500     -0.3074
     20  C4        28.6220   24.4330   38.2960 C.2   500  GMP500      0.2300
@<TRIPOS>BOND
     1     1     2    1
     2     2     3    1
     3     4     3    1
     4     4     9    1
     5     3     5    1
     6     9    10    1
     7     9     7    1
     8    11    10    1
     9    11    12    1
    10    10    20    1
    11    12    13    2
    12    20    13    1
    13    20    19    2
    14    13    14    1
    15     5     6    1
    16     5     7    1
    17    19    17    2
    18    14    15    2
    19    14    16    2
    20    17    16    2
    21    17    18    1
    22     7     8    1
