@<TRIPOS>MOLECULE
2qvr_CIT_A_1.pdb
 13 12 0 0 0
SMALL
GASTEIGER

@<TRIPOS>ATOM
      1  C1        -3.7010   15.3550    2.5430 C.2   335  CIT335      0.3680
      2  O1        -4.1480   16.3760    3.1200 O.co2 335  CIT335     -0.2455
      3  O2        -3.1710   14.4370    3.2220 O.co2 335  CIT335     -0.2455
      4  C2        -3.8080   15.2150    1.0270 C.3   335  CIT335      0.1560
      5  C3        -3.2180   16.4400    0.2550 C.3   335  CIT335      0.2402
      6  O7        -1.9230   16.7840    0.7750 O.3   335  CIT335     -0.2129
      7  C4        -3.0930   16.1150   -1.2440 C.3   335  CIT335      0.1560
      8  C5        -2.1010   15.0080   -1.4810 C.2   335  CIT335      0.3680
      9  O3        -2.4670   13.9700   -2.0550 O.co2 335  CIT335     -0.2455
     10  O4        -0.9160   15.1300   -1.0920 O.co2 335  CIT335     -0.2455
     11  C6        -4.1440   17.6270    0.3810 C.2   335  CIT335      0.3927
     12  O5        -5.3820   17.4460    0.4440 O.co2 335  CIT335     -0.2429
     13  O6        -3.6740   18.7930    0.4210 O.co2 335  CIT335     -0.2429
@<TRIPOS>BOND
     1     9     8   ar
     2     8     7    1
     3     8    10   ar
     4     7     5    1
     5     5    11    1
     6     5     6    1
     7     5     4    1
     8    11    13   ar
     9    11    12   ar
    10     4     1    1
    11     1     2   ar
    12     1     3   ar
