@<TRIPOS>MOLECULE
2qvr_FDP_A_1.pdb
 20 20 0 0 0
SMALL
GASTEIGER

@<TRIPOS>ATOM
      1  P1        10.3860    7.3420   26.1510 P.3   333  FDP333      0.5345
      2  O1P       11.2430    7.8860   27.2860 O.3   333  FDP333     -0.1145
      3  O2P       10.6280    8.0770   24.8340 O.2   333  FDP333     -0.2223
      4  O3P       10.5190    5.8280   26.0080 O.3   333  FDP333     -0.1145
      5  O1         9.1960   10.4710   25.7600 O.3   333  FDP333     -0.2149
      6  C1         9.4170    9.9320   27.0520 C.3   333  FDP333      0.2410
      7  C2         8.5020    8.7480   27.3360 C.3   333  FDP333      0.2588
      8  O2         8.8120    7.5900   26.5220 O.3   333  FDP333     -0.2440
      9  C3         7.0160    9.0430   27.1480 C.3   333  FDP333      0.2385
     10  O3         6.6640    8.8900   25.7850 O.3   333  FDP333     -0.2150
     11  C4         6.3850    7.9900   28.0480 C.3   333  FDP333      0.2166
     12  O4         5.0850    8.3840   28.4690 O.3   333  FDP333     -0.2175
     13  C5         7.3580    7.9420   29.2220 C.3   333  FDP333      0.1807
     14  O5         8.6350    8.4130   28.7050 O.3   333  FDP333     -0.3271
     15  C6         7.5600    6.5590   29.7750 C.3   333  FDP333      0.1859
     16  O6         8.6660    6.6090   30.6960 O.3   333  FDP333     -0.2675
     17  P2         8.9170    5.3710   31.7230 P.3   333  FDP333      0.5327
     18  O4P        9.7070    4.3280   30.9440 O.2   333  FDP333     -0.2224
     19  O5P        9.7100    5.9430   32.8840 O.3   333  FDP333     -0.1145
     20  O6P        7.5320    4.8910   32.1210 O.3   333  FDP333     -0.1145
@<TRIPOS>BOND
     1     3     1    2
     2     5     6    1
     3    10     9    1
     4     4     1    1
     5     1     8    1
     6     1     2    1
     7     8     7    1
     8     6     7    1
     9     9     7    1
    10     9    11    1
    11     7    14    1
    12    11    12    1
    13    11    13    1
    14    14    13    1
    15    13    15    1
    16    15    16    1
    17    16    17    1
    18    18    17    2
    19    17    20    1
    20    17    19    1
