@<TRIPOS>MOLECULE
2qvu_FDP_A_1.pdb
 20 20 0 0 0
SMALL
GASTEIGER

@<TRIPOS>ATOM
      1  P1        43.2660  -24.8050   26.2050 P.3   338  FDP338      0.5345
      2  O1P       44.3930  -25.7220   26.6530 O.3   338  FDP338     -0.1145
      3  O2P       43.3290  -23.4340   26.8590 O.3   338  FDP338     -0.1145
      4  O3P       43.1490  -24.7370   24.6920 O.2   338  FDP338     -0.2223
      5  O1        42.4820  -24.0640   29.1570 O.3   338  FDP338     -0.2149
      6  C1        42.6650  -25.4630   28.9990 C.3   338  FDP338      0.2410
      7  C2        41.6980  -26.0460   27.9760 C.3   338  FDP338      0.2588
      8  O2        41.8380  -25.4610   26.6590 O.3   338  FDP338     -0.2440
      9  C3        40.2270  -25.9380   28.3810 C.3   338  FDP338      0.2385
     10  O3        39.6830  -24.6880   28.0120 O.3   338  FDP338     -0.2150
     11  C4        39.5810  -27.0790   27.5990 C.3   338  FDP338      0.2166
     12  O4        38.4990  -27.6390   28.3340 O.3   338  FDP338     -0.2175
     13  C5        40.7120  -28.0920   27.4350 C.3   338  FDP338      0.1807
     14  O5        41.9260  -27.4360   27.8980 O.3   338  FDP338     -0.3271
     15  C6        40.8930  -28.5180   26.0000 C.3   338  FDP338      0.1859
     16  O6        41.9020  -29.5390   25.9670 O.3   338  FDP338     -0.2675
     17  P2        41.9480  -30.5970   24.7330 P.3   338  FDP338      0.5327
     18  O4P       42.4530  -29.8410   23.5160 O.2   338  FDP338     -0.2224
     19  O5P       42.9120  -31.6740   25.1990 O.3   338  FDP338     -0.1145
     20  O6P       40.5310  -31.1180   24.5620 O.3   338  FDP338     -0.1145
@<TRIPOS>BOND
     1    18    17    2
     2    20    17    1
     3     4     1    2
     4    17    19    1
     5    17    16    1
     6    16    15    1
     7    15    13    1
     8     1     2    1
     9     1     8    1
    10     1     3    1
    11     8     7    1
    12    13    11    1
    13    13    14    1
    14    11    12    1
    15    11     9    1
    16    14     7    1
    17     7     9    1
    18     7     6    1
    19    10     9    1
    20     6     5    1
