@<TRIPOS>MOLECULE
2qvv_FDP_A_1.pdb
 20 20 0 0 0
SMALL
GASTEIGER

@<TRIPOS>ATOM
      1  P1        15.6350   24.9280   26.0040 P.3   402  FDP402      0.5345
      2  O1P       14.6330   25.9940   26.4200 O.3   402  FDP402     -0.1145
      3  O2P       15.3690   23.5820   26.6580 O.3   402  FDP402     -0.1145
      4  O3P       15.7800   24.8290   24.4980 O.2   402  FDP402     -0.2223
      5  O1        16.4240   24.1290   28.9760 O.3   402  FDP402     -0.2149
      6  C1        16.2520   25.5270   28.7880 C.3   402  FDP402      0.2410
      7  C2        17.2370   26.0660   27.7650 C.3   402  FDP402      0.2588
      8  O2        17.1250   25.3850   26.4960 O.3   402  FDP402     -0.2440
      9  C3        18.6920   25.9870   28.2310 C.3   402  FDP402      0.2385
     10  O3        19.2370   24.7150   27.9290 O.3   402  FDP402     -0.2150
     11  C4        19.3580   27.1160   27.4460 C.3   402  FDP402      0.2166
     12  O4        20.4020   27.7100   28.2170 O.3   402  FDP402     -0.2175
     13  C5        18.2250   28.1150   27.2210 C.3   402  FDP402      0.1807
     14  O5        16.9860   27.4410   27.5830 O.3   402  FDP402     -0.3271
     15  C6        18.1330   28.5950   25.7900 C.3   402  FDP402      0.1859
     16  O6        17.0600   29.5520   25.7100 O.3   402  FDP402     -0.2675
     17  P2        17.0250   30.6530   24.5070 P.3   402  FDP402      0.5327
     18  O4P       16.4920   29.9410   23.2810 O.2   402  FDP402     -0.2224
     19  O5P       16.1000   31.7450   25.0180 O.3   402  FDP402     -0.1145
     20  O6P       18.4620   31.1210   24.3320 O.3   402  FDP402     -0.1145
@<TRIPOS>BOND
     1    18    17    2
     2    20    17    1
     3     4     1    2
     4    17    19    1
     5    17    16    1
     6    16    15    1
     7    15    13    1
     8     1     2    1
     9     1     8    1
    10     1     3    1
    11     8     7    1
    12    13    11    1
    13    13    14    1
    14    11    12    1
    15    11     9    1
    16    14     7    1
    17     7     9    1
    18     7     6    1
    19    10     9    1
    20     6     5    1
