@<TRIPOS>MOLECULE
2qvx_3BZ_X_1.pdb
 10 10 0 0 0
SMALL
GASTEIGER

@<TRIPOS>ATOM
      1 CL3       -13.9660   48.3130   -3.3440 Cl    505  3BZ505     -0.0822
      2  C3       -12.2600   47.7050   -3.4720 C.ar  505  3BZ505      0.0579
      3  C4       -11.9760   46.5310   -4.1650 C.ar  505  3BZ505      0.0114
      4  C5       -10.6520   46.0670   -4.2520 C.ar  505  3BZ505      0.0011
      5  C6        -9.5950   46.7580   -3.6390 C.ar  505  3BZ505      0.0066
      6  C2       -11.2070   48.4110   -2.8600 C.ar  505  3BZ505      0.0180
      7  C1        -9.8960   47.9320   -2.9440 C.ar  505  3BZ505      0.0806
      8  C         -8.7860   48.6680   -2.2760 C.2   505  3BZ505      0.3878
      9  O2        -7.6310   48.2290   -2.4830 O.co2 505  3BZ505     -0.2406
     10  O1        -9.0380   49.6620   -1.5420 O.co2 505  3BZ505     -0.2406
@<TRIPOS>BOND
     1     4     3   ar
     2     4     5   ar
     3     3     2   ar
     4     5     7   ar
     5     2     1    1
     6     2     6   ar
     7     7     6   ar
     8     7     8    1
     9     9     8   ar
    10     8    10   ar
