@<TRIPOS>MOLECULE
2qvy_34Z_X_1.pdb
 11 11 0 0 0
SMALL
GASTEIGER

@<TRIPOS>ATOM
      1 CL4        12.6610  -46.0500   -4.6990 Cl    505  34Z505     -0.0814
      2  C4        11.3270  -46.8080   -3.8300 C.ar  505  34Z505      0.0682
      3  C5        10.0320  -46.3010   -3.9520 C.ar  505  34Z505      0.0125
      4  C6         9.0170  -46.8980   -3.2550 C.ar  505  34Z505      0.0075
      5  C3        11.7190  -47.8800   -3.0640 C.ar  505  34Z505      0.0684
      6 CL3        13.5110  -48.3890   -3.0000 Cl    505  34Z505     -0.0814
      7  C2        10.6850  -48.4840   -2.3810 C.ar  505  34Z505      0.0188
      8  C1         9.3810  -47.9800   -2.4760 C.ar  505  34Z505      0.0807
      9  C          8.2920  -48.6690   -1.7290 C.2   505  34Z505      0.3878
     10  O2         7.1340  -48.2840   -1.9650 O.co2 505  34Z505     -0.2406
     11  O1         8.5620  -49.6020   -0.9320 O.co2 505  34Z505     -0.2406
@<TRIPOS>BOND
     1     1     2    1
     2     3     2   ar
     3     3     4   ar
     4     2     5   ar
     5     4     8   ar
     6     5     6    1
     7     5     7   ar
     8     8     7   ar
     9     8     9    1
    10    10     9   ar
    11     9    11   ar
