@<TRIPOS>MOLECULE
2qvz_3BZ_X_1.pdb
 10 10 0 0 0
SMALL
GASTEIGER

@<TRIPOS>ATOM
      1 CL3       -13.6720   47.8030   -3.5940 Cl    505  3BZ505     -0.0822
      2  C3       -11.9250   47.4380   -3.5100 C.ar  505  3BZ505      0.0579
      3  C4       -11.4410   46.3020   -4.1330 C.ar  505  3BZ505      0.0114
      4  C5       -10.0810   46.0180   -4.0940 C.ar  505  3BZ505      0.0011
      5  C6        -9.2070   46.8800   -3.4270 C.ar  505  3BZ505      0.0066
      6  C2       -11.0690   48.3260   -2.8370 C.ar  505  3BZ505      0.0180
      7  C1        -9.7060   48.0340   -2.7960 C.ar  505  3BZ505      0.0806
      8  C         -8.7560   48.9410   -2.0740 C.2   505  3BZ505      0.3878
      9  O2        -7.5320   48.7530   -2.2950 O.co2 505  3BZ505     -0.2406
     10  O1        -9.1850   49.8240   -1.2830 O.co2 505  3BZ505     -0.2406
@<TRIPOS>BOND
     1     3     4   ar
     2     3     2   ar
     3     4     5   ar
     4     1     2    1
     5     2     6   ar
     6     5     7   ar
     7     6     7   ar
     8     7     8    1
     9     9     8   ar
    10     8    10   ar
