@<TRIPOS>MOLECULE
2qw0_34Z_X_1.pdb
 11 11 0 0 0
SMALL
GASTEIGER

@<TRIPOS>ATOM
      1 CL4       -12.8070  -46.4220   -7.4090 Cl    505  34Z505     -0.0814
      2  C4       -11.3340  -47.0830   -8.1590 C.ar  505  34Z505      0.0682
      3  C5       -10.0870  -46.4860   -8.0280 C.ar  505  34Z505      0.0125
      4  C6        -9.0120  -47.1060   -8.6660 C.ar  505  34Z505      0.0075
      5  C3       -11.5370  -48.2450   -8.8750 C.ar  505  34Z505      0.0684
      6 CL3       -13.2090  -48.9030   -8.9640 Cl    505  34Z505     -0.0814
      7  C2       -10.4820  -48.8630   -9.5040 C.ar  505  34Z505      0.0188
      8  C1        -9.2330  -48.2790   -9.3950 C.ar  505  34Z505      0.0807
      9  C         -8.1180  -48.9700  -10.0830 C.2   505  34Z505      0.3878
     10  O2        -6.9450  -48.6460   -9.7530 O.co2 505  34Z505     -0.2406
     11  O1        -8.4200  -49.8390  -10.9490 O.co2 505  34Z505     -0.2406
@<TRIPOS>BOND
     1    11     9   ar
     2     9    10   ar
     3     9     8    1
     4     7     8   ar
     5     7     5   ar
     6     8     4   ar
     7     6     5    1
     8     5     2   ar
     9     4     3   ar
    10     2     3   ar
    11     2     1    1
