@<TRIPOS>MOLECULE
2qw1_3MG_A_1.pdb
 13 13 0 0 0
SMALL
GASTEIGER

@<TRIPOS>ATOM
      1  O6        -4.7020   22.2200  -14.8360 O.3   310  3MG310     -0.2176
      2  C6        -6.0340   21.7430  -14.7590 C.3   310  3MG310      0.2142
      3  C5        -6.2570   20.7100  -15.8450 C.3   310  3MG310      0.1834
      4  O5        -6.2450   19.4170  -15.2250 O.3   310  3MG310     -0.3236
      5  C4        -7.5900   20.9910  -16.5400 C.3   310  3MG310      0.2112
      6  O4        -7.5290   22.2590  -17.2120 O.3   310  3MG310     -0.2177
      7  C3        -7.9170   19.8490  -17.5040 C.3   310  3MG310      0.1834
      8  O3        -9.1780   20.0610  -18.1430 O.3   310  3MG310     -0.3481
      9  C7        -9.0430   20.2560  -19.5590 C.3   310  3MG310      0.1742
     10  C2        -7.8950   18.5150  -16.7590 C.3   310  3MG310      0.2402
     11  O2        -8.1790   17.4510  -17.6720 O.3   310  3MG310     -0.2149
     12  C1        -6.5170   18.3240  -16.1120 C.3   310  3MG310      0.3022
     13  O1        -6.4270   17.1000  -15.3680 O.3   310  3MG310     -0.1869
@<TRIPOS>BOND
     1     9     8    1
     2     8     7    1
     3    11    10    1
     4     7    10    1
     5     7     5    1
     6     6     5    1
     7    10    12    1
     8     5     3    1
     9    12    13    1
    10    12     4    1
    11     3     4    1
    12     3     2    1
    13     1     2    1
