@<TRIPOS>MOLECULE
2qw8_NAP_A_1.pdb
 48 52 0 0 0
SMALL
GASTEIGER

@<TRIPOS>ATOM
      1  PA         5.6260   -6.2130   22.1770 P.3   401  NAP401      0.2189
      2  O1A        6.0650   -7.0550   21.0470 O.2   401  NAP401     -0.5170
      3  O2A        5.4320   -6.7930   23.5210 O.3   401  NAP401     -0.4371
      4  O5B        4.3150   -5.4750   21.6390 O.3   401  NAP401     -0.3112
      5  C5B        3.7160   -4.4460   22.4330 C.3   401  NAP401      0.1813
      6  C4B        2.2570   -4.4650   22.0980 C.3   401  NAP401      0.1820
      7  O4B        1.8520   -4.1290   20.6690 O.3   401  NAP401     -0.3136
      8  C3B        1.5160   -5.7900   22.1490 C.3   401  NAP401      0.2157
      9  O3B        1.3470   -6.2080   23.4960 O.3   401  NAP401     -0.2175
     10  C2B        0.1820   -5.5660   21.4250 C.3   401  NAP401      0.2314
     11  O2B       -0.8250   -5.1660   22.3380 O.3   401  NAP401     -0.2630
     12  C1B        0.4940   -4.4620   20.4200 C.3   401  NAP401      0.3158
     13  N9A        0.3970   -4.8960   19.0170 N.pl3 401  NAP401     -0.1439
     14  C8A        0.9610   -6.0500   18.4660 C.3   401  NAP401      0.3377
     15  N7A        0.7120   -6.1930   17.1830 N.2   401  NAP401     -0.2095
     16  C5A       -0.0440   -5.0990   16.8750 C.2   401  NAP401      0.2526
     17  C6A       -0.6320   -4.6660   15.6580 C.2   401  NAP401      0.4393
     18  N6A       -0.5020   -5.3750   14.5280 N.pl3 401  NAP401      0.2180
     19  N1A       -1.3460   -3.4930   15.6810 N.2   401  NAP401      0.0021
     20  C2A       -1.4760   -2.7810   16.8320 C.3   401  NAP401      0.5254
     21  N3A       -0.9560   -3.1040   18.0470 N.2   401  NAP401     -0.0055
     22  C4A       -0.2490   -4.2810   17.9940 C.2   401  NAP401      0.3518
     23  O3         6.6290   -4.9280   22.2280 O.3   401  NAP401     -0.2703
     24  PN         7.9920   -4.8490   23.0660 P.3   401  NAP401      0.2189
     25  O1N        8.8370   -6.0660   22.8580 O.2   401  NAP401     -0.5170
     26  O2N        7.5930   -4.5430   24.4680 O.3   401  NAP401     -0.4371
     27  O5D        8.7140   -3.5540   22.4750 O.3   401  NAP401     -0.3112
     28  C5D        8.2630   -2.2200   22.8010 C.3   401  NAP401      0.1813
     29  C4D        9.4060   -1.2370   22.6520 C.3   401  NAP401      0.1799
     30  O4D       10.5160   -1.6930   23.4720 O.3   401  NAP401     -0.3327
     31  C3D        9.8950   -1.0530   21.1900 C.3   401  NAP401      0.2158
     32  O3D       10.1660    0.3010   20.8990 O.3   401  NAP401     -0.2175
     33  C2D       11.0990   -1.9490   21.1880 C.3   401  NAP401      0.2309
     34  O2D       11.9990   -1.5350   20.1720 O.3   401  NAP401     -0.2158
     35  C1D       11.6460   -1.8260   22.5820 C.3   401  NAP401      0.2263
     36  N1N       12.5240   -2.9630   22.9470 N.pl3 401  NAP401     -0.2787
     37  C2N       13.7360   -2.6330   23.5230 C.3   401  NAP401      0.1244
     38  C3N       14.5320   -3.6260   24.0970 C.2   401  NAP401      0.0544
     39  C7N       15.8070   -3.2910   24.8190 C.2   401  NAP401      0.2818
     40  O7N       16.5260   -4.1970   25.2160 O.2   401  NAP401     -0.2670
     41  N7N       16.0820   -1.9970   25.0260 N.am  401  NAP401     -0.0839
     42  C4N       14.1150   -4.9970   24.0090 C.2   401  NAP401      0.0033
     43  C5N       12.8730   -5.3120   23.4250 C.2   401  NAP401      0.0157
     44  C6N       12.0630   -4.2930   22.9200 C.2   401  NAP401      0.0633
     45  P2B       -2.3540   -5.7110   22.2940 P.3   401  NAP401      0.5328
     46  O1X       -2.3010   -7.2030   22.0600 O.3   401  NAP401     -0.1145
     47  O2X       -2.8630   -5.2670   23.6380 O.3   401  NAP401     -0.1145
     48  O3X       -3.0260   -4.9720   21.1460 O.2   401  NAP401     -0.2224
@<TRIPOS>BOND
     1    18    17    1
     2    17    19    2
     3    17    16    1
     4    19    20    1
     5    20    21    1
     6    16    15    2
     7    16    22    1
     8    15    14    1
     9    22    21    2
    10    22    13    1
    11    14    13    1
    12    13    12    1
    13    34    33    1
    14    12     7    1
    15    12    10    1
    16     7     6    1
    17    32    31    1
    18     2     1    2
    19    48    45    2
    20    33    31    1
    21    33    35    1
    22    31    29    1
    23    10     8    1
    24    10    11    1
    25     4     1    1
    26     4     5    1
    27    46    45    1
    28     6     8    1
    29     6     5    1
    30     8     9    1
    31     1    23    1
    32     1     3    1
    33    23    24    1
    34    45    11    1
    35    45    47    1
    36    27    28    1
    37    27    24    1
    38    35    36    1
    39    35    30    1
    40    29    28    1
    41    29    30    1
    42    25    24    2
    43    44    36    1
    44    44    43    2
    45    36    37    1
    46    24    26    1
    47    43    42    1
    48    37    38    1
    49    42    38    2
    50    38    39    1
    51    39    41   am
    52    39    40    2
