@<TRIPOS>MOLECULE
2qwa_NAG_A_1.pdb
 14 14 0 0 0
SMALL
GASTEIGER

@<TRIPOS>ATOM
      1  C1        16.6020   17.7520   28.8980 C.3   476  NAG476      0.1665
      2  C2        15.4270   17.1650   28.1730 C.3   476  NAG476      0.1576
      3  C3        15.8070   15.8750   27.4360 C.3   476  NAG476      0.2069
      4  C4        16.8970   16.2180   26.4760 C.3   476  NAG476      0.2134
      5  C5        18.0750   17.0030   27.0990 C.3   476  NAG476      0.1809
      6  C6        18.8920   17.6260   25.9290 C.3   476  NAG476      0.2141
      7  C7        13.1440   17.1200   28.9610 C.2   476  NAG476      0.2420
      8  C8        12.1810   16.7410   30.0640 C.3   476  NAG476      0.0964
      9  N2        14.4240   16.8350   29.1520 N.am  476  NAG476     -0.2019
     10  O3        14.7240   15.2810   26.7710 O.3   476  NAG476     -0.2184
     11  O4        17.4760   15.0090   25.9740 O.3   476  NAG476     -0.2176
     12  O5        17.6080   18.1050   27.9790 O.3   476  NAG476     -0.3489
     13  O6        20.0770   17.9660   26.5720 O.3   476  NAG476     -0.2176
     14  O7        12.7410   17.6590   27.9410 O.2   476  NAG476     -0.2733
@<TRIPOS>BOND
     1     6    13    1
     2     6     5    1
     3    11     4    1
     4     4     5    1
     5     4     3    1
     6    10     3    1
     7     5    12    1
     8     3     2    1
     9    14     7    2
    10    12     1    1
    11     2     1    1
    12     2     9    1
    13     7     9   am
    14     7     8    1
