@<TRIPOS>MOLECULE
2qwb_SIA_A_1.pdb
 21 21 0 0 0
SMALL
GASTEIGER

@<TRIPOS>ATOM
      1  C1        23.7280   19.8370   64.9840 C.2   800  SIA800      0.4179
      2  C2        24.5860   18.6640   64.5290 C.3   800  SIA800      0.3155
      3  C3        23.6070   17.6050   63.9200 C.3   800  SIA800      0.1056
      4  C4        24.2190   16.8050   62.7910 C.3   800  SIA800      0.1798
      5  C5        25.7570   16.8310   62.8300 C.3   800  SIA800      0.1554
      6  C6        26.2740   18.2280   62.6740 C.3   800  SIA800      0.1734
      7  C7        27.7770   18.3750   62.9660 C.3   800  SIA800      0.2135
      8  C8        28.2180   19.8470   62.7670 C.3   800  SIA800      0.2173
      9  C9        29.7330   19.9880   63.0740 C.3   800  SIA800      0.2175
     10  C10       26.9900   15.0050   61.7830 C.2   800  SIA800      0.2420
     11  C11       27.4530   14.2730   60.5880 C.3   800  SIA800      0.0964
     12  N5        26.2350   16.0890   61.6450 N.am  800  SIA800     -0.2020
     13  O1A       22.5170   19.7150   65.2880 O.co2 800  SIA800     -0.2401
     14  O1B       24.3390   20.9240   64.9930 O.co2 800  SIA800     -0.2401
     15  O2        25.2890   18.1400   65.6500 O.3   800  SIA800     -0.1830
     16  O4        23.7990   15.4950   62.8360 O.3   800  SIA800     -0.2210
     17  O6        25.5780   19.1040   63.5680 O.3   800  SIA800     -0.3220
     18  O7        28.0060   17.9880   64.2750 O.3   800  SIA800     -0.2176
     19  O8        27.9290   20.0430   61.4080 O.3   800  SIA800     -0.2175
     20  O9        30.4070   19.4510   62.0060 O.3   800  SIA800     -0.2175
     21  O10       27.3030   14.5510   62.8850 O.2   800  SIA800     -0.2733
@<TRIPOS>BOND
     1    11    10    1
     2    19     8    1
     3    12    10   am
     4    12     5    1
     5    10    21    2
     6    20     9    1
     7     6     5    1
     8     6     7    1
     9     6    17    1
    10     8     7    1
    11     8     9    1
    12     4     5    1
    13     4    16    1
    14     4     3    1
    15     7    18    1
    16    17     2    1
    17     3     2    1
    18     2     1    1
    19     2    15    1
    20     1    14   ar
    21     1    13   ar
