@<TRIPOS>MOLECULE
2qwb_NAG_A_1.pdb
 14 14 0 0 0
SMALL
GASTEIGER

@<TRIPOS>ATOM
      1  C1        16.5840   17.6820   28.8770 C.3   476  NAG476      0.1665
      2  C2        15.4220   17.0820   28.1600 C.3   476  NAG476      0.1576
      3  C3        15.8790   15.8410   27.4130 C.3   476  NAG476      0.2069
      4  C4        16.9470   16.2450   26.4560 C.3   476  NAG476      0.2134
      5  C5        18.0930   16.9730   27.0880 C.3   476  NAG476      0.1809
      6  C6        18.8990   17.5630   25.9460 C.3   476  NAG476      0.2141
      7  C7        13.1330   16.9920   28.9440 C.2   476  NAG476      0.2420
      8  C8        12.1470   16.5900   30.0130 C.3   476  NAG476      0.0964
      9  N2        14.4200   16.7410   29.1320 N.am  476  NAG476     -0.2019
     10  O3        14.8590   15.2250   26.7260 O.3   476  NAG476     -0.2184
     11  O4        17.5510   15.1330   25.8780 O.3   476  NAG476     -0.2176
     12  O5        17.5830   18.0400   27.9280 O.3   476  NAG476     -0.3489
     13  O6        19.9800   18.0490   26.5900 O.3   476  NAG476     -0.2176
     14  O7        12.7080   17.5650   27.9420 O.2   476  NAG476     -0.2733
@<TRIPOS>BOND
     1    11     4    1
     2     6    13    1
     3     6     5    1
     4     4     5    1
     5     4     3    1
     6    10     3    1
     7     5    12    1
     8     3     2    1
     9    12     1    1
    10    14     7    2
    11     2     1    1
    12     2     9    1
    13     7     9   am
    14     7     8    1
