@<TRIPOS>MOLECULE
2qwc_NAG_A_1.pdb
 14 14 0 0 0
SMALL
GASTEIGER

@<TRIPOS>ATOM
      1  C1        16.6150   17.7260   28.8640 C.3   476  NAG476      0.1665
      2  C2        15.4450   17.1050   28.1730 C.3   476  NAG476      0.1576
      3  C3        15.8680   15.8250   27.4320 C.3   476  NAG476      0.2069
      4  C4        16.9760   16.2430   26.4970 C.3   476  NAG476      0.2134
      5  C5        18.1190   17.0300   27.1190 C.3   476  NAG476      0.1809
      6  C6        18.9360   17.6330   25.9550 C.3   476  NAG476      0.2141
      7  C7        13.1330   17.0210   28.9170 C.2   476  NAG476      0.2420
      8  C8        12.1920   16.6180   30.0440 C.3   476  NAG476      0.0964
      9  N2        14.4190   16.7840   29.1380 N.am  476  NAG476     -0.2019
     10  O3        14.7910   15.2640   26.7490 O.3   476  NAG476     -0.2184
     11  O4        17.6440   15.1380   25.9420 O.3   476  NAG476     -0.2176
     12  O5        17.5960   18.1080   27.9190 O.3   476  NAG476     -0.3489
     13  O6        20.1180   17.9440   26.5760 O.3   476  NAG476     -0.2176
     14  O7        12.7280   17.5420   27.8860 O.2   476  NAG476     -0.2733
@<TRIPOS>BOND
     1    11     4    1
     2     6    13    1
     3     6     5    1
     4     4     5    1
     5     4     3    1
     6    10     3    1
     7     5    12    1
     8     3     2    1
     9    14     7    2
    10    12     1    1
    11     2     1    1
    12     2     9    1
    13     7     9   am
    14     7     8    1
