@<TRIPOS>MOLECULE
2qwc_DAN_A_1.pdb
 20 20 0 0 0
SMALL
GASTEIGER

@<TRIPOS>ATOM
      1  C1        23.5770   19.7040   64.8560 C.2   800  DAN800      0.4208
      2  C2        24.2480   18.7040   64.1040 C.2   800  DAN800      0.2163
      3  C3        23.5930   17.5840   63.6500 C.2   800  DAN800      0.0518
      4  C4        24.2690   16.6160   62.6750 C.3   800  DAN800      0.2007
      5  C5        25.8490   16.7350   62.7850 C.3   800  DAN800      0.1722
      6  C6        26.2320   18.2040   62.7210 C.3   800  DAN800      0.2215
      7  C7        27.7600   18.4130   62.8160 C.3   800  DAN800      0.2261
      8  C8        28.1600   19.8920   62.7310 C.3   800  DAN800      0.2185
      9  C9        29.6910   20.1650   62.9680 C.3   800  DAN800      0.2175
     10  C10       27.1160   14.9180   61.6870 C.2   800  DAN800      0.2420
     11  C11       27.5650   14.2040   60.4000 C.3   800  DAN800      0.0964
     12  N5        26.3710   16.0140   61.5960 N.am  800  DAN800     -0.2004
     13  O1A       24.2610   20.6920   65.1850 O.co2 800  DAN800     -0.2371
     14  O1B       22.3780   19.5990   65.2090 O.co2 800  DAN800     -0.2371
     15  O4        23.8210   15.3410   63.0240 O.3   800  DAN800     -0.2162
     16  O6        25.6370   18.8680   63.8120 O.2   800  DAN800     -0.4684
     17  O7        28.1690   17.9140   64.0970 O.3   800  DAN800     -0.2164
     18  O8        27.8350   20.2490   61.4530 O.3   800  DAN800     -0.2174
     19  O9        30.3910   19.4290   61.9940 O.3   800  DAN800     -0.2175
     20  O10       27.5250   14.4910   62.7700 O.2   800  DAN800     -0.2733
@<TRIPOS>BOND
     1    11    10    1
     2    18     8    1
     3    12    10   am
     4    12     5    1
     5    10    20    2
     6    19     9    1
     7     4     5    1
     8     4    15    1
     9     4     3    1
    10     6     5    1
    11     6     7    1
    12     6    16    1
    13     8     7    1
    14     8     9    1
    15     7    17    1
    16     3     2    2
    17    16     2    1
    18     2     1    1
    19     1    13   ar
    20     1    14   ar
