@<TRIPOS>MOLECULE
2qwd_NAG_A_1.pdb
 14 14 0 0 0
SMALL
GASTEIGER

@<TRIPOS>ATOM
      1  C1        16.6080   17.6740   28.9120 C.3   476  NAG476      0.1665
      2  C2        15.4390   17.0880   28.1760 C.3   476  NAG476      0.1576
      3  C3        15.8600   15.8330   27.4210 C.3   476  NAG476      0.2069
      4  C4        16.9760   16.2200   26.4910 C.3   476  NAG476      0.2134
      5  C5        18.1320   16.9380   27.1580 C.3   476  NAG476      0.1809
      6  C6        18.9530   17.5640   26.0230 C.3   476  NAG476      0.2141
      7  C7        13.1360   16.9710   28.9740 C.2   476  NAG476      0.2420
      8  C8        12.1830   16.5800   30.0730 C.3   476  NAG476      0.0964
      9  N2        14.4280   16.7460   29.1560 N.am  476  NAG476     -0.2019
     10  O3        14.8020   15.2900   26.7020 O.3   476  NAG476     -0.2184
     11  O4        17.5740   15.0790   25.9350 O.3   476  NAG476     -0.2176
     12  O5        17.6320   18.0100   27.9850 O.3   476  NAG476     -0.3489
     13  O6        20.0870   17.9560   26.6890 O.3   476  NAG476     -0.2176
     14  O7        12.7000   17.5230   27.9770 O.2   476  NAG476     -0.2733
@<TRIPOS>BOND
     1    11     4    1
     2     6    13    1
     3     6     5    1
     4     4     5    1
     5     4     3    1
     6    10     3    1
     7     5    12    1
     8     3     2    1
     9    14     7    2
    10    12     1    1
    11     2     1    1
    12     2     9    1
    13     7     9   am
    14     7     8    1
