@<TRIPOS>MOLECULE
2qwd_4AM_A_1.pdb
 20 20 0 0 0
SMALL
GASTEIGER

@<TRIPOS>ATOM
      1  C1        23.5470   19.8230   64.7940 C.2   800  4AM800      0.4208
      2  O1A       24.2390   20.8000   65.1250 O.co2 800  4AM800     -0.2371
      3  O1B       22.3200   19.7880   65.0250 O.co2 800  4AM800     -0.2371
      4  C2        24.1870   18.8070   64.0730 C.2   800  4AM800      0.2152
      5  C3        23.4970   17.7800   63.4710 C.2   800  4AM800      0.0381
      6  C4        24.1870   16.6940   62.6390 C.3   800  4AM800      0.1405
      7  N4        23.6370   15.4220   63.0820 N.3   800  4AM800     -0.1261
      8  C5        25.7000   16.7500   62.8310 C.3   800  4AM800      0.1594
      9  N5        26.3270   16.0380   61.6930 N.am  800  4AM800     -0.2015
     10  C10       26.9210   14.8610   61.8820 C.2   800  4AM800      0.2420
     11  O10       27.0190   14.3290   62.9950 O.2   800  4AM800     -0.2733
     12  C11       27.5300   14.1630   60.6590 C.3   800  4AM800      0.0964
     13  C6        26.1490   18.2140   62.8170 C.3   800  4AM800      0.2204
     14  O6        25.5780   18.8420   63.9410 O.2   800  4AM800     -0.4685
     15  C7        27.6690   18.3560   62.9040 C.3   800  4AM800      0.2261
     16  O7        28.1410   17.7310   64.0780 O.3   800  4AM800     -0.2164
     17  C8        28.0520   19.8270   62.9040 C.3   800  4AM800      0.2185
     18  O8        27.7350   20.2000   61.6320 O.3   800  4AM800     -0.2174
     19  C9        29.5230   20.1060   63.1000 C.3   800  4AM800      0.2175
     20  O9        30.2940   19.3680   62.2300 O.3   800  4AM800     -0.2175
@<TRIPOS>BOND
     1    12    10    1
     2    18    17    1
     3     9    10   am
     4     9     8    1
     5    10    11    2
     6    20    19    1
     7     6     8    1
     8     6     7    1
     9     6     5    1
    10    13     8    1
    11    13    15    1
    12    13    14    1
    13    17    15    1
    14    17    19    1
    15    15    16    1
    16     5     4    2
    17    14     4    1
    18     4     1    1
    19     1     3   ar
    20     1     2   ar
