@<TRIPOS>MOLECULE
2qwe_GNA_A_1.pdb
 23 23 0 0 0
SMALL
GASTEIGER

@<TRIPOS>ATOM
      1  C1        23.5900   19.7430   64.7850 C.2   800  GNA800      0.4208
      2  C2        24.3030   18.7620   64.0840 C.2   800  GNA800      0.2172
      3  C3        23.6740   17.6240   63.5690 C.2   800  GNA800      0.0619
      4  C4        24.3480   16.6530   62.6020 C.3   800  GNA800      0.2297
      5  C5        25.8650   16.7360   62.8420 C.3   800  GNA800      0.1816
      6  C6        26.3000   18.2030   62.7870 C.3   800  GNA800      0.2224
      7  C7        27.8160   18.3480   62.9150 C.3   800  GNA800      0.2262
      8  C8        28.2250   19.8380   63.0090 C.3   800  GNA800      0.2185
      9  C9        29.7320   20.1250   63.1090 C.3   800  GNA800      0.2175
     10  C10       27.0310   14.7840   61.9000 C.2   800  GNA800      0.2420
     11  C11       27.6800   14.2030   60.6390 C.3   800  GNA800      0.0964
     12  N5        26.5400   16.0100   61.7400 N.am  800  GNA800     -0.1994
     13  N4        23.8240   15.2990   62.7340 N.pl3 800  GNA800     -0.0835
     14  C12       23.7700   14.3740   61.7680 C.cat 800  GNA800      0.5348
     15  N6        23.8750   14.7120   60.4780 N.pl3 800  GNA800      0.1354
     16  N7        23.6430   13.0920   62.1020 N.pl3 800  GNA800      0.1354
     17  O1A       24.1940   20.7960   65.0460 O.co2 800  GNA800     -0.2371
     18  O1B       22.3740   19.6110   65.0730 O.co2 800  GNA800     -0.2371
     19  O6        25.6830   18.9100   63.8820 O.2   800  GNA800     -0.4683
     20  O7        28.2320   17.6940   64.0550 O.3   800  GNA800     -0.2164
     21  O8        27.8180   20.3710   61.8230 O.3   800  GNA800     -0.2174
     22  O9        30.4290   19.4520   62.1410 O.3   800  GNA800     -0.2175
     23  O10       26.9920   14.1770   62.9710 O.2   800  GNA800     -0.2733
@<TRIPOS>BOND
     1    15    14    1
     2    11    10    1
     3    12    10   am
     4    12     5    1
     5    14    16    1
     6    14    13    2
     7    21     8    1
     8    10    23    2
     9    22     9    1
    10     4    13    1
    11     4     5    1
    12     4     3    1
    13     6     5    1
    14     6     7    1
    15     6    19    1
    16     7     8    1
    17     7    20    1
    18     8     9    1
    19     3     2    2
    20    19     2    1
    21     2     1    1
    22     1    17   ar
    23     1    18   ar
