@<TRIPOS>MOLECULE
2qwe_NAG_A_1.pdb
 14 14 0 0 0
SMALL
GASTEIGER

@<TRIPOS>ATOM
      1  C1        16.5930   17.6920   28.9110 C.3   476  NAG476      0.1665
      2  C2        15.4500   17.0540   28.1770 C.3   476  NAG476      0.1576
      3  C3        15.8600   15.8000   27.4410 C.3   476  NAG476      0.2069
      4  C4        16.9640   16.1880   26.5100 C.3   476  NAG476      0.2134
      5  C5        18.1310   16.9420   27.1500 C.3   476  NAG476      0.1809
      6  C6        18.9160   17.5520   25.9830 C.3   476  NAG476      0.2141
      7  C7        13.1470   16.9750   28.9480 C.2   476  NAG476      0.2420
      8  C8        12.1680   16.5160   30.0070 C.3   476  NAG476      0.0964
      9  N2        14.4280   16.6730   29.1170 N.am  476  NAG476     -0.2019
     10  O3        14.7610   15.2180   26.7450 O.3   476  NAG476     -0.2184
     11  O4        17.5660   15.0420   25.9510 O.3   476  NAG476     -0.2176
     12  O5        17.6140   18.0360   27.9820 O.3   476  NAG476     -0.3489
     13  O6        20.0870   17.8830   26.5750 O.3   476  NAG476     -0.2176
     14  O7        12.7490   17.6510   28.0070 O.2   476  NAG476     -0.2733
@<TRIPOS>BOND
     1    11     4    1
     2     6    13    1
     3     6     5    1
     4     4     5    1
     5     4     3    1
     6    10     3    1
     7     5    12    1
     8     3     2    1
     9    12     1    1
    10    14     7    2
    11     2     1    1
    12     2     9    1
    13     7     9   am
    14     7     8    1
