@<TRIPOS>MOLECULE
2qwf_G20_A_1.pdb
 24 24 0 0 0
SMALL
GASTEIGER

@<TRIPOS>ATOM
      1  C1        23.6310   19.8290   64.8900 C.2   800  G20800      0.3915
      2  O1A       24.2200   20.8930   65.1410 O.co2 800  G20800     -0.2430
      3  O1B       22.4040   19.6700   65.1150 O.co2 800  G20800     -0.2430
      4  C2        24.4300   18.8790   64.2200 C.3   800  G20800      0.2217
      5  C3        23.9670   17.6970   63.9260 C.3   800  G20800      0.0864
      6  C4        24.5920   16.7300   62.8210 C.3   800  G20800      0.2067
      7  C5        25.9830   16.8760   62.7860 C.3   800  G20800      0.1709
      8  N5        26.5920   16.1770   61.6790 N.am  800  G20800     -0.2005
      9  C10       27.0770   14.9490   61.8370 C.2   800  G20800      0.2420
     10  O10       27.0570   14.3540   62.9160 O.2   800  G20800     -0.2733
     11  C11       27.5700   14.2900   60.5590 C.3   800  G20800      0.0964
     12  C6        26.2770   18.3670   62.8270 C.3   800  G20800      0.2147
     13  O6        25.7390   18.9350   63.9840 O.3   800  G20800     -0.3362
     14  C7        27.7810   18.4030   62.9220 C.2   800  G20800      0.2548
     15  O7        28.3290   18.0560   63.9760 O.2   800  G20800     -0.2722
     16  N8        28.4790   18.7320   61.8210 N.am  800  G20800     -0.2758
     17  C81       27.9820   19.0860   60.4800 C.3   800  G20800      0.1149
     18  C9        29.9520   18.6900   62.0060 C.3   800  G20800      0.0935
     19  C91       30.4490   17.2880   62.4430 C.3   800  G20800      0.0215
     20  C92       31.9450   17.1210   62.3240 C.3   800  G20800      0.0018
     21  NE        24.2360   15.2910   62.9360 N.pl3 800  G20800     -0.0882
     22  CZ        23.8620   14.3350   61.9870 C.cat 800  G20800      0.5345
     23  NH1       23.8420   14.6590   60.6990 N.pl3 800  G20800      0.1354
     24  NH2       23.6180   13.0700   62.3570 N.pl3 800  G20800      0.1354
@<TRIPOS>BOND
     1    17    16    1
     2    11     9    1
     3    23    22    1
     4     8     9   am
     5     8     7    1
     6    16    18    1
     7    16    14   am
     8     9    10    2
     9    22    24    1
    10    22    21    2
    11    18    19    1
    12    20    19    1
    13     7     6    1
    14     7    12    1
    15     6    21    1
    16     6     5    1
    17    12    14    1
    18    12    13    1
    19    14    15    2
    20     5     4    1
    21    13     4    1
    22     4     1    1
    23     1     3   ar
    24     1     2   ar
