@<TRIPOS>MOLECULE
2qwf_NAG_A_1.pdb
 14 14 0 0 0
SMALL
GASTEIGER

@<TRIPOS>ATOM
      1  C1        16.5680   17.7080   28.9060 C.3   476  NAG476      0.1665
      2  C2        15.4200   17.1050   28.1570 C.3   476  NAG476      0.1576
      3  C3        15.8300   15.8280   27.4300 C.3   476  NAG476      0.2069
      4  C4        16.9300   16.1710   26.4630 C.3   476  NAG476      0.2134
      5  C5        18.0810   16.9460   27.1230 C.3   476  NAG476      0.1809
      6  C6        18.9190   17.5790   25.9570 C.3   476  NAG476      0.2141
      7  C7        13.1530   17.0970   28.9600 C.2   476  NAG476      0.2420
      8  C8        12.1690   16.7090   30.0510 C.3   476  NAG476      0.0964
      9  N2        14.4310   16.7720   29.1370 N.am  476  NAG476     -0.2019
     10  O3        14.8020   15.1630   26.7490 O.3   476  NAG476     -0.2184
     11  O4        17.5060   14.9570   25.9400 O.3   476  NAG476     -0.2176
     12  O5        17.5660   18.0350   27.9760 O.3   476  NAG476     -0.3489
     13  O6        20.0890   17.9340   26.6270 O.3   476  NAG476     -0.2176
     14  O7        12.7620   17.7200   27.9760 O.2   476  NAG476     -0.2733
@<TRIPOS>BOND
     1    11     4    1
     2     6    13    1
     3     6     5    1
     4     4     5    1
     5     4     3    1
     6    10     3    1
     7     5    12    1
     8     3     2    1
     9    12     1    1
    10    14     7    2
    11     2     1    1
    12     2     9    1
    13     7     9   am
    14     7     8    1
