@<TRIPOS>MOLECULE
2qwg_NAG_A_1.pdb
 14 14 0 0 0
SMALL
GASTEIGER

@<TRIPOS>ATOM
      1  C1        39.7730    1.6470   58.3880 C.3   469  NAG469      0.1665
      2  C2        40.6570    1.0260   59.4860 C.3   469  NAG469      0.1576
      3  C3        41.6620    0.1020   58.9190 C.3   469  NAG469      0.2069
      4  C4        40.9380   -0.9360   58.1080 C.3   469  NAG469      0.2134
      5  C5        40.1260   -0.2700   56.9600 C.3   469  NAG469      0.1809
      6  C6        39.3540   -1.1730   56.0800 C.3   469  NAG469      0.2141
      7  C7        41.3320    2.4740   61.3820 C.2   469  NAG469      0.2420
      8  C8        42.1130    3.7200   61.7080 C.3   469  NAG469      0.0964
      9  N2        41.3400    2.1860   60.0790 N.am  469  NAG469     -0.2019
     10  O3        42.3710   -0.4930   60.0010 O.3   469  NAG469     -0.2184
     11  O4        41.9520   -1.8400   57.5010 O.3   469  NAG469     -0.2176
     12  O5        39.2230    0.6290   57.5470 O.3   469  NAG469     -0.3489
     13  O6        38.7310   -2.2050   56.7860 O.3   469  NAG469     -0.2176
     14  O7        40.8290    1.7450   62.2480 O.2   469  NAG469     -0.2733
@<TRIPOS>BOND
     1     6    13    1
     2     6     5    1
     3     5    12    1
     4     5     4    1
     5    11     4    1
     6    12     1    1
     7     4     3    1
     8     1     2    1
     9     3     2    1
    10     3    10    1
    11     2     9    1
    12     9     7   am
    13     7     8    1
    14     7    14    2
