@<TRIPOS>MOLECULE
2qwg_G28_A_1.pdb
 21 21 0 0 0
SMALL
GASTEIGER

@<TRIPOS>ATOM
      1  C1        23.4500   19.6580   64.7580 C.2   800  G28800      0.4208
      2  O1A       24.1630   20.6230   65.0690 O.co2 800  G28800     -0.2371
      3  O1B       22.2240   19.6710   64.9850 O.co2 800  G28800     -0.2371
      4  C2        24.0880   18.5950   64.0810 C.2   800  G28800      0.2157
      5  C3        23.3800   17.5400   63.5650 C.2   800  G28800      0.0381
      6  C4        24.0390   16.4860   62.6690 C.3   800  G28800      0.1409
      7  C5        25.5350   16.4960   62.8190 C.3   800  G28800      0.1658
      8  N5        26.1550   15.7860   61.6720 N.am  800  G28800     -0.2011
      9  C10       26.8950   14.7050   61.8820 C.2   800  G28800      0.2420
     10  O10       27.0700   14.2590   63.0090 O.2   800  G28800     -0.2733
     11  C11       27.4990   14.0410   60.6580 C.3   800  G28800      0.0964
     12  C6        26.0570   17.9380   62.8380 C.3   800  G28800      0.2629
     13  O6        25.4940   18.6490   63.8950 O.2   800  G28800     -0.4618
     14  C7        27.5590   17.9210   63.0960 C.2   800  G28800      0.2677
     15  O7        27.9090   17.5890   64.2260 O.2   800  G28800     -0.2709
     16  N8        28.4510   18.2570   62.1550 N.am  800  G28800     -0.2766
     17  C81       29.8330   18.1900   62.6340 C.3   800  G28800      0.0936
     18  C82       30.3980   16.8090   62.3030 C.3   800  G28800      0.0233
     19  C9        28.0510   18.6840   60.8200 C.3   800  G28800      0.0936
     20  C91       28.1350   20.1720   60.7760 C.3   800  G28800      0.0233
     21  N4        23.5780   15.2040   63.0750 N.3   800  G28800     -0.1260
@<TRIPOS>BOND
     1    11     9    1
     2    20    19    1
     3    19    16    1
     4     8     9   am
     5     8     7    1
     6     9    10    2
     7    16    17    1
     8    16    14   am
     9    18    17    1
    10     6     7    1
    11     6    21    1
    12     6     5    1
    13     7    12    1
    14    12    14    1
    15    12    13    1
    16    14    15    2
    17     5     4    2
    18    13     4    1
    19     4     1    1
    20     1     3   ar
    21     1     2   ar
