@<TRIPOS>MOLECULE
2qwh_G39_A_1.pdb
 20 20 0 0 0
SMALL
GASTEIGER

@<TRIPOS>ATOM
      1  C1        23.6440   19.9330   64.7710 C.2   800  G39800      0.3837
      2  O1A       24.2040   21.0380   64.9080 O.co2 800  G39800     -0.2409
      3  O1B       22.4850   19.7540   65.2060 O.co2 800  G39800     -0.2409
      4  C2        24.3420   18.8880   64.0870 C.2   800  G39800      0.0571
      5  C3        23.5950   17.5830   63.6370 C.3   800  G39800      0.0537
      6  C4        24.2460   16.6750   62.5650 C.3   800  G39800      0.1190
      7  C5        25.7350   16.5630   62.8060 C.3   800  G39800      0.1443
      8  N5        26.3580   15.8290   61.6520 N.am  800  G39800     -0.2028
      9  C10       26.9170   14.6490   61.9160 C.2   800  G39800      0.2419
     10  O10       26.9760   14.1630   63.0660 O.2   800  G39800     -0.2733
     11  C11       27.5400   13.8940   60.8010 C.3   800  G39800      0.0964
     12  C6        26.3890   17.9740   62.9670 C.3   800  G39800      0.1582
     13  C7        25.6850   19.0200   63.7740 C.2   800  G39800      0.0069
     14  O7        27.8400   17.8320   63.2350 O.3   800  G39800     -0.3525
     15  C8        28.9050   18.5680   62.5260 C.3   800  G39800      0.1156
     16  C9        29.0040   20.0530   62.8920 C.3   800  G39800      0.0296
     17  C81       30.1580   17.8740   63.0260 C.3   800  G39800      0.0296
     18  C82       30.3140   16.5090   62.4540 C.3   800  G39800      0.0026
     19  C91       29.2300   20.2930   64.3810 C.3   800  G39800      0.0026
     20  N4        23.6000   15.3890   62.6740 N.3   800  G39800     -0.1306
@<TRIPOS>BOND
     1    11     9    1
     2     8     9   am
     3     8     7    1
     4     9    10    2
     5    18    17    1
     6    15    16    1
     7    15    17    1
     8    15    14    1
     9     6    20    1
    10     6     7    1
    11     6     5    1
    12     7    12    1
    13    16    19    1
    14    12    14    1
    15    12    13    1
    16     5     4    1
    17    13     4    2
    18     4     1    1
    19     1     2   ar
    20     1     3   ar
