@<TRIPOS>MOLECULE
2qwh_NAG_A_1.pdb
 14 14 0 0 0
SMALL
GASTEIGER

@<TRIPOS>ATOM
      1  C1        16.6180   17.6830   28.8900 C.3   476  NAG476      0.1665
      2  C2        15.4480   17.0830   28.1390 C.3   476  NAG476      0.1576
      3  C3        15.8610   15.8250   27.4110 C.3   476  NAG476      0.2069
      4  C4        16.9570   16.2110   26.4990 C.3   476  NAG476      0.2134
      5  C5        18.0960   16.9500   27.1480 C.3   476  NAG476      0.1809
      6  C6        18.8800   17.5690   25.9860 C.3   476  NAG476      0.2141
      7  C7        13.1410   17.0300   28.9200 C.2   476  NAG476      0.2420
      8  C8        12.1660   16.5740   29.9880 C.3   476  NAG476      0.0964
      9  N2        14.4180   16.7100   29.0900 N.am  476  NAG476     -0.2019
     10  O3        14.8070   15.2000   26.7050 O.3   476  NAG476     -0.2184
     11  O4        17.5790   15.0520   25.9530 O.3   476  NAG476     -0.2176
     12  O5        17.6270   18.0270   27.9920 O.3   476  NAG476     -0.3489
     13  O6        20.0510   17.9000   26.6360 O.3   476  NAG476     -0.2176
     14  O7        12.7520   17.7180   27.9800 O.2   476  NAG476     -0.2733
@<TRIPOS>BOND
     1    11     4    1
     2     6    13    1
     3     6     5    1
     4     4     5    1
     5     4     3    1
     6    10     3    1
     7     5    12    1
     8     3     2    1
     9    14     7    2
    10    12     1    1
    11     2     1    1
    12     2     9    1
    13     7     9   am
    14     7     8    1
