@<TRIPOS>MOLECULE
2qwi_NAG_A_1.pdb
 14 14 0 0 0
SMALL
GASTEIGER

@<TRIPOS>ATOM
      1  C1        39.8140    1.6450   58.7100 C.3   469  NAG469      0.1665
      2  C2        40.6180    1.1840   59.9210 C.3   469  NAG469      0.1576
      3  C3        41.6850    0.1240   59.6520 C.3   469  NAG469      0.2069
      4  C4        41.0680   -0.9710   58.6180 C.3   469  NAG469      0.2134
      5  C5        40.3080   -0.2960   57.4140 C.3   469  NAG469      0.1809
      6  C6        39.6400   -1.2900   56.5200 C.3   469  NAG469      0.2141
      7  C7        41.4670    2.6530   61.5450 C.2   469  NAG469      0.2420
      8  C8        42.1260    3.9340   61.9760 C.3   469  NAG469      0.0964
      9  N2        41.2840    2.4250   60.2520 N.am  469  NAG469     -0.2019
     10  O3        41.9950   -0.4000   60.9720 O.3   469  NAG469     -0.2184
     11  O4        42.0450   -1.9000   57.9760 O.3   469  NAG469     -0.2176
     12  O5        39.3170    0.5270   57.9650 O.3   469  NAG469     -0.3489
     13  O6        38.8150   -2.1410   57.3130 O.3   469  NAG469     -0.2176
     14  O7        41.1520    1.8390   62.4300 O.2   469  NAG469     -0.2733
@<TRIPOS>BOND
     1     6    13    1
     2     6     5    1
     3     5    12    1
     4     5     4    1
     5    12     1    1
     6    11     4    1
     7     4     3    1
     8     1     2    1
     9     3     2    1
    10     3    10    1
    11     2     9    1
    12     9     7   am
    13     7     8    1
    14     7    14    2
