@<TRIPOS>MOLECULE
2qwi_G20_A_1.pdb
 24 24 0 0 0
SMALL
GASTEIGER

@<TRIPOS>ATOM
      1  C1        23.5970   19.8390   64.9490 C.2   800  G20800      0.3915
      2  O1A       24.1520   20.9590   65.0510 O.co2 800  G20800     -0.2430
      3  O1B       22.4070   19.6820   65.3050 O.co2 800  G20800     -0.2430
      4  C2        24.3140   18.7500   64.3580 C.3   800  G20800      0.2217
      5  C3        23.7920   17.5850   63.9320 C.3   800  G20800      0.0864
      6  C4        24.4490   16.7630   62.8270 C.3   800  G20800      0.2067
      7  C5        25.9390   16.9520   62.8590 C.3   800  G20800      0.1709
      8  N5        26.6290   16.3440   61.7340 N.am  800  G20800     -0.2005
      9  C10       27.2260   15.1590   61.8300 C.2   800  G20800      0.2420
     10  O10       27.2380   14.5030   62.8600 O.2   800  G20800     -0.2733
     11  C11       27.9170   14.5740   60.6420 C.3   800  G20800      0.0964
     12  C6        26.2470   18.4210   62.9400 C.3   800  G20800      0.2147
     13  O6        25.6430   18.8270   64.1650 O.3   800  G20800     -0.3362
     14  C7        27.8060   18.5450   62.9310 C.2   800  G20800      0.2548
     15  O7        28.4250   18.1990   63.9150 O.2   800  G20800     -0.2722
     16  N8        28.4230   19.0360   61.8150 N.am  800  G20800     -0.2758
     17  C81       28.0430   19.2080   60.4220 C.3   800  G20800      0.1149
     18  C9        29.7210   19.6680   62.0250 C.3   800  G20800      0.0935
     19  C91       30.7210   18.6700   62.6270 C.3   800  G20800      0.0215
     20  C92       30.5840   17.1610   62.3170 C.3   800  G20800      0.0018
     21  NE        24.1550   15.3450   63.0550 N.pl3 800  G20800     -0.0882
     22  CZ        23.9280   14.3990   62.1440 C.cat 800  G20800      0.5345
     23  NH1       23.9280   14.6880   60.8430 N.pl3 800  G20800      0.1354
     24  NH2       23.6810   13.1600   62.5410 N.pl3 800  G20800      0.1354
@<TRIPOS>BOND
     1    17    16    1
     2    11     9    1
     3    23    22    1
     4     8     9   am
     5     8     7    1
     6    16    18    1
     7    16    14   am
     8     9    10    2
     9    18    19    1
    10    22    24    1
    11    22    21    2
    12    20    19    1
    13     6     7    1
    14     6    21    1
    15     6     5    1
    16     7    12    1
    17    14    12    1
    18    14    15    2
    19    12    13    1
    20     5     4    1
    21    13     4    1
    22     4     1    1
    23     1     2   ar
    24     1     3   ar
