@<TRIPOS>MOLECULE
2qwj_NAG_A_1.pdb
 14 14 0 0 0
SMALL
GASTEIGER

@<TRIPOS>ATOM
      1  C1        39.7440    1.7060   58.3170 C.3   469  NAG469      0.1665
      2  C2        40.6020    1.1050   59.4610 C.3   469  NAG469      0.1576
      3  C3        41.6050    0.1780   58.9610 C.3   469  NAG469      0.2069
      4  C4        40.8720   -0.8810   58.1480 C.3   469  NAG469      0.2134
      5  C5        40.1040   -0.2640   56.9840 C.3   469  NAG469      0.1809
      6  C6        39.3400   -1.1800   56.1040 C.3   469  NAG469      0.2141
      7  C7        41.3300    2.4840   61.3840 C.2   469  NAG469      0.2420
      8  C8        42.1180    3.6950   61.7800 C.3   469  NAG469      0.0964
      9  N2        41.3070    2.2340   60.0790 N.am  469  NAG469     -0.2019
     10  O3        42.3150   -0.3910   60.0950 O.3   469  NAG469     -0.2184
     11  O4        41.9370   -1.7570   57.5700 O.3   469  NAG469     -0.2176
     12  O5        39.2120    0.6620   57.4920 O.3   469  NAG469     -0.3489
     13  O6        38.7070   -2.1620   56.8330 O.3   469  NAG469     -0.2176
     14  O7        40.7340    1.7880   62.2220 O.2   469  NAG469     -0.2733
@<TRIPOS>BOND
     1     6    13    1
     2     6     5    1
     3     5    12    1
     4     5     4    1
     5    12     1    1
     6    11     4    1
     7     4     3    1
     8     1     2    1
     9     3     2    1
    10     3    10    1
    11     2     9    1
    12     9     7   am
    13     7     8    1
    14     7    14    2
