@<TRIPOS>MOLECULE
2qwj_G28_A_1.pdb
 21 21 0 0 0
SMALL
GASTEIGER

@<TRIPOS>ATOM
      1  C1        23.5580   19.7250   64.6860 C.2   800  G28800      0.3914
      2  O1A       24.1710   20.8270   64.6770 O.co2 800  G28800     -0.2430
      3  O1B       22.3760   19.6270   65.0910 O.co2 800  G28800     -0.2430
      4  C2        24.1350   18.6040   64.0870 C.3   800  G28800      0.2196
      5  C3        23.4390   17.4760   63.6910 C.3   800  G28800      0.0622
      6  C4        24.0100   16.5060   62.6700 C.3   800  G28800      0.1176
      7  C5        25.5330   16.5210   62.7160 C.3   800  G28800      0.1488
      8  N5        26.1390   15.7880   61.5700 N.am  800  G28800     -0.2027
      9  C10       26.9150   14.7370   61.8150 C.2   800  G28800      0.2419
     10  O10       27.0550   14.2820   62.9540 O.2   800  G28800     -0.2733
     11  C11       27.5200   14.0320   60.6360 C.3   800  G28800      0.0964
     12  C6        26.0330   17.9840   62.7020 C.3   800  G28800      0.2127
     13  O6        25.4840   18.7490   63.7240 O.3   800  G28800     -0.3364
     14  C7        27.5440   18.0070   63.0430 C.2   800  G28800      0.2546
     15  O7        27.9270   17.5500   64.1470 O.2   800  G28800     -0.2722
     16  N8        28.4230   18.4470   62.1330 N.am  800  G28800     -0.2775
     17  C81       29.8240   18.2540   62.5120 C.3   800  G28800      0.0935
     18  C82       30.0390   16.7310   62.3770 C.3   800  G28800      0.0233
     19  C9        28.0640   18.8980   60.8240 C.3   800  G28800      0.0935
     20  C91       28.0210   20.3700   60.8500 C.3   800  G28800      0.0233
     21  N4        23.5710   15.1920   62.9930 N.3   800  G28800     -0.1309
@<TRIPOS>BOND
     1    11     9    1
     2    19    20    1
     3    19    16    1
     4     8     9   am
     5     8     7    1
     6     9    10    2
     7    16    17    1
     8    16    14   am
     9    18    17    1
    10     6     7    1
    11     6    21    1
    12     6     5    1
    13    12     7    1
    14    12    14    1
    15    12    13    1
    16    14    15    2
    17     5     4    1
    18    13     4    1
    19     4     1    1
    20     2     1   ar
    21     1     3   ar
