@<TRIPOS>MOLECULE
2qwk_G39_A_1.pdb
 20 20 0 0 0
SMALL
GASTEIGER

@<TRIPOS>ATOM
      1  C1        23.7220   19.9580   64.7480 C.2   800  G39800      0.3837
      2  O1A       24.2480   21.0890   64.8130 O.co2 800  G39800     -0.2409
      3  O1B       22.5970   19.7690   65.2250 O.co2 800  G39800     -0.2409
      4  C2        24.3810   18.9200   64.0590 C.2   800  G39800      0.0571
      5  C3        23.6460   17.6310   63.7290 C.3   800  G39800      0.0537
      6  C4        24.2400   16.6560   62.6670 C.3   800  G39800      0.1190
      7  C5        25.7480   16.6120   62.6960 C.3   800  G39800      0.1443
      8  N5        26.2670   15.8000   61.5950 N.am  800  G39800     -0.2028
      9  C10       26.8460   14.6280   61.8300 C.2   800  G39800      0.2419
     10  O10       27.0010   14.1910   62.9800 O.2   800  G39800     -0.2733
     11  C11       27.3420   13.8830   60.6120 C.3   800  G39800      0.0964
     12  C6        26.2750   18.0900   62.6230 C.3   800  G39800      0.1582
     13  C7        25.6760   19.0980   63.5400 C.2   800  G39800      0.0069
     14  O7        27.7110   18.2280   62.5760 O.3   800  G39800     -0.3525
     15  C8        28.5450   18.2910   61.4810 C.3   800  G39800      0.1156
     16  C9        28.4510   19.7140   60.9080 C.3   800  G39800      0.0296
     17  C81       29.8720   17.7770   62.0550 C.3   800  G39800      0.0296
     18  C82       29.7830   16.4030   62.5100 C.3   800  G39800      0.0026
     19  C91       28.8390   20.7540   61.8970 C.3   800  G39800      0.0026
     20  N4        23.7310   15.4020   62.9880 N.3   800  G39800     -0.1306
@<TRIPOS>BOND
     1    11     9    1
     2    16    15    1
     3    16    19    1
     4    15    17    1
     5    15    14    1
     6     8     9   am
     7     8     7    1
     8     9    10    2
     9    17    18    1
    10    14    12    1
    11    12     7    1
    12    12    13    1
    13     6     7    1
    14     6    20    1
    15     6     5    1
    16    13     4    2
    17     5     4    1
    18     4     1    1
    19     1     2   ar
    20     1     3   ar
