@<TRIPOS>MOLECULE
2qwk_NAG_A_1.pdb
 14 14 0 0 0
SMALL
GASTEIGER

@<TRIPOS>ATOM
      1  C1        39.7020    1.6660   58.3490 C.3   469  NAG469      0.1665
      2  C2        40.6120    1.1280   59.4500 C.3   469  NAG469      0.1576
      3  C3        41.6490    0.1830   58.8740 C.3   469  NAG469      0.2069
      4  C4        40.9470   -0.9000   58.1000 C.3   469  NAG469      0.2134
      5  C5        40.0930   -0.2610   56.9310 C.3   469  NAG469      0.1809
      6  C6        39.3240   -1.1940   56.0630 C.3   469  NAG469      0.2141
      7  C7        41.3450    2.5060   61.3710 C.2   469  NAG469      0.2420
      8  C8        42.1250    3.7330   61.7550 C.3   469  NAG469      0.0964
      9  N2        41.3110    2.2770   60.0610 N.am  469  NAG469     -0.2019
     10  O3        42.3420   -0.3780   59.9760 O.3   469  NAG469     -0.2184
     11  O4        41.9920   -1.7990   57.5450 O.3   469  NAG469     -0.2176
     12  O5        39.1660    0.6410   57.4940 O.3   469  NAG469     -0.3489
     13  O6        38.7280   -2.1980   56.8230 O.3   469  NAG469     -0.2176
     14  O7        40.7720    1.7950   62.2160 O.2   469  NAG469     -0.2733
@<TRIPOS>BOND
     1     6    13    1
     2     6     5    1
     3     5    12    1
     4     5     4    1
     5    12     1    1
     6    11     4    1
     7     4     3    1
     8     1     2    1
     9     3     2    1
    10     3    10    1
    11     2     9    1
    12     9     7   am
    13     7     8    1
    14     7    14    2
