@<TRIPOS>MOLECULE
2qwl_ADP_A_1.pdb
 27 29 0 0 0
SMALL
GASTEIGER

@<TRIPOS>ATOM
      1  PB       -36.3060    5.5930    1.5330 P.3   486  ADP486      0.5373
      2  O1B      -37.7910    5.5670    1.8050 O.3   486  ADP486     -0.1143
      3  O2B      -35.4560    4.8450    2.5090 O.3   486  ADP486     -0.1143
      4  O3B      -35.9100    5.3300    0.1020 O.2   486  ADP486     -0.2221
      5  PA       -34.7240    8.0820    1.4780 P.3   486  ADP486      0.2231
      6  O1A      -33.6080    7.2010    0.9270 O.3   486  ADP486     -0.4370
      7  O2A      -35.1270    9.3830    0.8410 O.2   486  ADP486     -0.5169
      8  O3A      -36.0510    7.1980    1.6780 O.3   486  ADP486     -0.2261
      9  O5'      -34.3090    8.3850    3.0030 O.3   486  ADP486     -0.3111
     10  C5'      -35.1760    9.1660    3.8460 C.3   486  ADP486      0.1813
     11  C4'      -34.4200    9.4630    5.1430 C.3   486  ADP486      0.1821
     12  O4'      -33.2940   10.2660    4.8110 O.3   486  ADP486     -0.3135
     13  C3'      -35.2540   10.2710    6.1380 C.3   486  ADP486      0.2184
     14  O3'      -35.0160    9.6930    7.4410 O.3   486  ADP486     -0.2174
     15  C2'      -34.6620   11.6530    6.0620 C.3   486  ADP486      0.2570
     16  O2'      -34.8210   12.3880    7.2840 O.3   486  ADP486     -0.2130
     17  C1'      -33.2100   11.3380    5.7440 C.3   486  ADP486      0.3186
     18  N9       -32.4570   12.4610    5.1610 N.pl3 486  ADP486     -0.1439
     19  C8       -32.7630   13.1430    4.0300 C.3   486  ADP486      0.3377
     20  N7       -31.8360   14.1090    3.8180 N.2   486  ADP486     -0.2095
     21  C5       -30.9330   14.0240    4.8320 C.2   486  ADP486      0.2526
     22  C6       -29.6990   14.7190    5.2350 C.2   486  ADP486      0.4393
     23  N6       -29.2480   15.7570    4.5040 N.pl3 486  ADP486      0.2180
     24  N1       -29.0590   14.3150    6.3610 N.2   486  ADP486      0.0021
     25  C2       -29.4990   13.2840    7.1120 C.3   486  ADP486      0.5254
     26  N3       -30.6270   12.6080    6.8240 N.2   486  ADP486     -0.0055
     27  C4       -31.3480   12.9280    5.7030 C.2   486  ADP486      0.3518
@<TRIPOS>BOND
     1     4     1    2
     2     7     5    2
     3     6     5    1
     4     5     8    1
     5     5     9    1
     6     1     8    1
     7     1     2    1
     8     1     3    1
     9     9    10    1
    10    20    19    1
    11    20    21    2
    12    10    11    1
    13    19    18    1
    14    23    22    1
    15    12    11    1
    16    12    17    1
    17    21    22    1
    18    21    27    1
    19    11    13    1
    20    18    27    1
    21    18    17    1
    22    22    24    2
    23    27    26    2
    24    17    15    1
    25    15    13    1
    26    15    16    1
    27    13    14    1
    28    24    25    1
    29    26    25    1
