@<TRIPOS>MOLECULE
2qwm_ADP_A_1.pdb
 27 29 0 0 0
SMALL
GASTEIGER

@<TRIPOS>ATOM
      1  PB         0.2380    5.7530    1.6480 P.3   486  ADP486      0.5373
      2  O1B       -1.2610    5.6500    1.4960 O.3   486  ADP486     -0.1143
      3  O2B        0.7450    5.3750    3.0020 O.3   486  ADP486     -0.1143
      4  O3B        0.9500    5.0770    0.5140 O.2   486  ADP486     -0.2221
      5  PA         1.8660    8.1860    1.4380 P.3   486  ADP486      0.2231
      6  O1A        2.9510    7.3650    0.7860 O.2   486  ADP486     -0.5169
      7  O2A        1.4950    9.5160    0.8320 O.3   486  ADP486     -0.4370
      8  O3A        0.4800    7.3470    1.4460 O.3   486  ADP486     -0.2261
      9  O5'        2.2570    8.3700    2.9920 O.3   486  ADP486     -0.3111
     10  C5'        1.3930    9.0920    3.8780 C.3   486  ADP486      0.1813
     11  C4'        2.1740    9.3900    5.1510 C.3   486  ADP486      0.1821
     12  O4'        3.3100   10.2010    4.8310 O.3   486  ADP486     -0.3135
     13  C3'        1.3390   10.1820    6.1490 C.3   486  ADP486      0.2184
     14  O3'        1.5650    9.6070    7.4420 O.3   486  ADP486     -0.2174
     15  C2'        1.9000   11.5860    6.0800 C.3   486  ADP486      0.2570
     16  O2'        1.7440   12.3400    7.2960 O.3   486  ADP486     -0.2130
     17  C1'        3.3520   11.2700    5.7670 C.3   486  ADP486      0.3186
     18  N9         4.1010   12.3970    5.1950 N.pl3 486  ADP486     -0.1439
     19  C8         3.8160   13.1030    4.0710 C.3   486  ADP486      0.3377
     20  N7         4.7590   14.0710    3.8930 N.2   486  ADP486     -0.2095
     21  C5         5.6430   13.9680    4.9110 C.2   486  ADP486      0.2526
     22  C6         6.8690   14.6650    5.3440 C.2   486  ADP486      0.4393
     23  N6         7.3490   15.7210    4.6390 N.pl3 486  ADP486      0.2180
     24  N1         7.4880   14.2300    6.4740 N.2   486  ADP486      0.0021
     25  C2         7.0310   13.1970    7.2090 C.3   486  ADP486      0.5254
     26  N3         5.9050   12.5250    6.8900 N.2   486  ADP486     -0.0055
     27  C4         5.2010   12.8600    5.7680 C.2   486  ADP486      0.3518
@<TRIPOS>BOND
     1     4     1    2
     2     6     5    2
     3     7     5    1
     4     5     8    1
     5     5     9    1
     6     8     1    1
     7     2     1    1
     8     1     3    1
     9     9    10    1
    10    10    11    1
    11    20    19    1
    12    20    21    2
    13    19    18    1
    14    23    22    1
    15    12    11    1
    16    12    17    1
    17    21    22    1
    18    21    27    1
    19    11    13    1
    20    18    17    1
    21    18    27    1
    22    22    24    2
    23    17    15    1
    24    27    26    2
    25    15    13    1
    26    15    16    1
    27    13    14    1
    28    24    25    1
    29    26    25    1
