@<TRIPOS>MOLECULE
2qwn_ADP_A_1.pdb
 27 29 0 0 0
SMALL
GASTEIGER

@<TRIPOS>ATOM
      1  PB       -14.0520   -2.2080   23.1900 P.3   487  ADP487      0.5373
      2  O1B      -14.0440   -3.5920   23.8190 O.3   487  ADP487     -0.1143
      3  O2B      -14.5850   -2.2280   21.7930 O.2   487  ADP487     -0.2221
      4  O3B      -14.6420   -1.0960   24.0230 O.3   487  ADP487     -0.1143
      5  PA       -11.6320   -0.6130   22.6030 P.3   487  ADP487      0.2231
      6  O1A      -12.4900    0.6430   22.6940 O.2   487  ADP487     -0.5169
      7  O2A      -10.2870   -0.7380   23.2920 O.3   487  ADP487     -0.4370
      8  O3A      -12.4490   -1.9270   23.0850 O.3   487  ADP487     -0.2261
      9  O5'      -11.3570   -0.8530   21.0500 O.3   487  ADP487     -0.3111
     10  C5'      -10.7410   -2.0410   20.5840 C.3   487  ADP487      0.1813
     11  C4'      -10.6480   -1.8930   19.0710 C.3   487  ADP487      0.1821
     12  O4'       -9.9690   -0.6810   18.7490 O.3   487  ADP487     -0.3135
     13  C3'       -9.8630   -3.0230   18.4110 C.3   487  ADP487      0.2184
     14  O3'      -10.4370   -3.2940   17.1210 O.3   487  ADP487     -0.2174
     15  C2'       -8.5030   -2.4260   18.1830 C.3   487  ADP487      0.2570
     16  O2'       -7.8580   -3.0730   17.0870 O.3   487  ADP487     -0.2130
     17  C1'       -8.8970   -1.0030   17.8450 C.3   487  ADP487      0.3186
     18  N9        -7.7450   -0.0800   17.9510 N.pl3 487  ADP487     -0.1439
     19  C8        -7.0060    0.1840   19.0500 C.3   487  ADP487      0.3377
     20  N7        -6.0270    1.0830   18.7700 N.2   487  ADP487     -0.2095
     21  C5        -6.1470    1.4070   17.4650 C.2   487  ADP487      0.2526
     22  C6        -5.4510    2.2880   16.5000 C.2   487  ADP487      0.4393
     23  N6        -4.3950    3.0380   16.8640 N.pl3 487  ADP487      0.2180
     24  N1        -5.9040    2.3290   15.2290 N.2   487  ADP487      0.0021
     25  C2        -6.9530    1.5880   14.8140 C.3   487  ADP487      0.5254
     26  N3        -7.6250    0.7590   15.6270 N.2   487  ADP487     -0.0055
     27  C4        -7.2830    0.6360   16.9390 C.2   487  ADP487      0.3518
@<TRIPOS>BOND
     1    25    24    1
     2    25    26    1
     3    24    22    2
     4    26    27    2
     5    22    23    1
     6    22    21    1
     7    27    21    1
     8    27    18    1
     9    16    15    1
    10    14    13    1
    11    21    20    2
    12    17    18    1
    13    17    15    1
    14    17    12    1
    15    18    19    1
    16    15    13    1
    17    13    11    1
    18    12    11    1
    19    20    19    1
    20    11    10    1
    21    10     9    1
    22     9     5    1
    23     3     1    2
    24     5     6    2
    25     5     8    1
    26     5     7    1
    27     8     1    1
    28     1     2    1
    29     1     4    1
