@<TRIPOS>MOLECULE
2qwo_ADP_A_1.pdb
 27 29 0 0 0
SMALL
GASTEIGER

@<TRIPOS>ATOM
      1  PB        14.0990   -1.9080  -23.2270 P.3   487  ADP487      0.5373
      2  O1B       14.0620   -3.3540  -23.7250 O.3   487  ADP487     -0.1143
      3  O2B       14.7110   -1.6850  -21.8740 O.3   487  ADP487     -0.1143
      4  O3B       14.6540   -0.9700  -24.2590 O.2   487  ADP487     -0.2221
      5  PA        11.7570   -0.2670  -22.4920 P.3   487  ADP487      0.2231
      6  O1A       12.6510    0.9410  -22.5420 O.3   487  ADP487     -0.4370
      7  O2A       10.3580   -0.2560  -23.0420 O.2   487  ADP487     -0.5169
      8  O3A       12.5210   -1.5480  -23.1400 O.3   487  ADP487     -0.2261
      9  O5'       11.6770   -0.6320  -20.9310 O.3   487  ADP487     -0.3111
     10  C5'       10.9010   -1.7390  -20.4700 C.3   487  ADP487      0.1813
     11  C4'       10.7000   -1.6200  -18.9600 C.3   487  ADP487      0.1821
     12  O4'        9.9040   -0.4550  -18.7080 O.3   487  ADP487     -0.3135
     13  C3'        9.9310   -2.8070  -18.3700 C.3   487  ADP487      0.2184
     14  O3'       10.5110   -3.1740  -17.1090 O.3   487  ADP487     -0.2174
     15  C2'        8.5530   -2.2270  -18.0890 C.3   487  ADP487      0.2570
     16  O2'        7.8590   -2.9160  -17.0450 O.3   487  ADP487     -0.2130
     17  C1'        8.9200   -0.7920  -17.7390 C.3   487  ADP487      0.3186
     18  N9         7.7690    0.1160  -17.8460 N.pl3 487  ADP487     -0.1439
     19  C8         7.0300    0.3650  -18.9520 C.3   487  ADP487      0.3377
     20  N7         6.0510    1.2600  -18.6670 N.2   487  ADP487     -0.2095
     21  C5         6.1740    1.6000  -17.3660 C.2   487  ADP487      0.2526
     22  C6         5.4600    2.4990  -16.4270 C.2   487  ADP487      0.4393
     23  N6         4.3880    3.2300  -16.8230 N.pl3 487  ADP487      0.2180
     24  N1         5.9080    2.5520  -15.1430 N.2   487  ADP487      0.0021
     25  C2         6.9700    1.8280  -14.7240 C.3   487  ADP487      0.5254
     26  N3         7.6700    0.9880  -15.5250 N.2   487  ADP487     -0.0055
     27  C4         7.3090    0.8360  -16.8290 C.2   487  ADP487      0.3518
@<TRIPOS>BOND
     1     4     1    2
     2     2     1    1
     3     1     8    1
     4     1     3    1
     5     8     5    1
     6     7     5    2
     7     6     5    1
     8     5     9    1
     9     9    10    1
    10    10    11    1
    11    11    12    1
    12    11    13    1
    13    19    20    1
    14    19    18    1
    15    12    17    1
    16    20    21    2
    17    13    15    1
    18    13    14    1
    19    15    17    1
    20    15    16    1
    21    18    17    1
    22    18    27    1
    23    21    27    1
    24    21    22    1
    25    27    26    2
    26    23    22    1
    27    22    24    2
    28    26    25    1
    29    24    25    1
