@<TRIPOS>MOLECULE
2qwp_ADP_A_1.pdb
 27 29 0 0 0
SMALL
GASTEIGER

@<TRIPOS>ATOM
      1  PB        -5.1760    1.7250   23.1370 P.3   487  ADP487      0.5373
      2  O1B       -5.1860    3.1900   23.5610 O.3   487  ADP487     -0.1143
      3  O2B       -4.5860    1.4820   21.7740 O.2   487  ADP487     -0.2221
      4  O3B       -4.5460    0.7980   24.1190 O.3   487  ADP487     -0.1143
      5  PA        -7.5290    0.1290   22.3540 P.3   487  ADP487      0.2231
      6  O1A       -6.6590   -1.0850   22.3920 O.2   487  ADP487     -0.5169
      7  O2A       -8.9500    0.1370   22.8720 O.3   487  ADP487     -0.4370
      8  O3A       -6.7630    1.3760   23.0360 O.3   487  ADP487     -0.2261
      9  O5'       -7.6750    0.5440   20.8030 O.3   487  ADP487     -0.3111
     10  C5'       -8.3850    1.7070   20.3500 C.3   487  ADP487      0.1813
     11  C4'       -8.6060    1.5840   18.8380 C.3   487  ADP487      0.1821
     12  O4'       -9.3570    0.4040   18.5360 O.3   487  ADP487     -0.3135
     13  C3'       -9.3970    2.7480   18.2450 C.3   487  ADP487      0.2184
     14  O3'       -8.8360    3.1470   16.9880 O.3   487  ADP487     -0.2174
     15  C2'      -10.7520    2.1380   17.9460 C.3   487  ADP487      0.2570
     16  O2'      -11.3940    2.8190   16.8780 O.3   487  ADP487     -0.2130
     17  C1'      -10.3800    0.7140   17.5860 C.3   487  ADP487      0.3186
     18  N9       -11.5320   -0.2240   17.7010 N.pl3 487  ADP487     -0.1439
     19  C8       -12.2720   -0.4850   18.8080 C.3   487  ADP487      0.3377
     20  N7       -13.2360   -1.4010   18.5360 N.2   487  ADP487     -0.2095
     21  C5       -13.1200   -1.7390   17.2340 C.2   487  ADP487      0.2526
     22  C6       -13.8160   -2.6440   16.2760 C.2   487  ADP487      0.4393
     23  N6       -14.8730   -3.4050   16.6510 N.pl3 487  ADP487      0.2180
     24  N1       -13.3650   -2.6920   14.9970 N.2   487  ADP487      0.0021
     25  C2       -12.3130   -1.9460   14.5800 C.3   487  ADP487      0.5254
     26  N3       -11.6420   -1.1030   15.3890 N.2   487  ADP487     -0.0055
     27  C4       -11.9910   -0.9630   16.6960 C.2   487  ADP487      0.3518
@<TRIPOS>BOND
     1    25    24    1
     2    25    26    1
     3    24    22    2
     4    26    27    2
     5    22    23    1
     6    22    21    1
     7    27    21    1
     8    27    18    1
     9    16    15    1
    10    14    13    1
    11    21    20    2
    12    17    18    1
    13    17    15    1
    14    17    12    1
    15    18    19    1
    16    15    13    1
    17    13    11    1
    18    12    11    1
    19    20    19    1
    20    11    10    1
    21    10     9    1
    22     9     5    1
    23     3     1    2
    24     5     6    2
    25     5     7    1
    26     5     8    1
    27     8     1    1
    28     1     2    1
    29     1     4    1
