@<TRIPOS>MOLECULE
2qwq_ADP_A_1.pdb
 27 29 0 0 0
SMALL
GASTEIGER

@<TRIPOS>ATOM
      1  PB         5.2320    1.3390  -23.3320 P.3   487  ADP487      0.5373
      2  O1B        5.5090    2.7800  -23.6810 O.3   487  ADP487     -0.1143
      3  O2B        4.4030    1.1840  -22.0910 O.3   487  ADP487     -0.1143
      4  O3B        4.7880    0.4400  -24.4550 O.2   487  ADP487     -0.2221
      5  PA         7.5130   -0.3460  -22.4190 P.3   487  ADP487      0.2231
      6  O1A        6.5990   -1.5530  -22.4460 O.3   487  ADP487     -0.4370
      7  O2A        8.7870   -0.2380  -23.1910 O.2   487  ADP487     -0.5169
      8  O3A        6.7010    0.9930  -22.7630 O.3   487  ADP487     -0.2261
      9  O5'        7.9750   -0.1410  -20.9080 O.3   487  ADP487     -0.3111
     10  C5'        8.5410    1.1100  -20.4840 C.3   487  ADP487      0.1813
     11  C4'        8.7190    0.9200  -18.9960 C.3   487  ADP487      0.1821
     12  O4'        9.4130   -0.3300  -18.7220 O.3   487  ADP487     -0.3135
     13  C3'        9.5300    2.0150  -18.3520 C.3   487  ADP487      0.2184
     14  O3'        8.9330    2.2710  -17.0890 O.3   487  ADP487     -0.2174
     15  C2'       10.8420    1.3760  -18.0450 C.3   487  ADP487      0.2570
     16  O2'       11.4410    1.9320  -16.8980 O.3   487  ADP487     -0.2130
     17  C1'       10.4080   -0.0430  -17.7280 C.3   487  ADP487      0.3186
     18  N9        11.6120   -0.8870  -17.7800 N.pl3 487  ADP487     -0.1439
     19  C8        12.3860   -1.1180  -18.8470 C.3   487  ADP487      0.3377
     20  N7        13.4170   -1.9390  -18.5010 N.2   487  ADP487     -0.2095
     21  C5        13.2890   -2.2100  -17.1780 C.2   487  ADP487      0.2526
     22  C6        13.9940   -3.0150  -16.1660 C.2   487  ADP487      0.4393
     23  N6        15.1050   -3.7190  -16.4760 N.pl3 487  ADP487      0.2180
     24  N1        13.5130   -3.0210  -14.9070 N.2   487  ADP487      0.0021
     25  C2        12.4050   -2.3450  -14.5450 C.3   487  ADP487      0.5254
     26  N3        11.7100   -1.6240  -15.4170 N.2   487  ADP487     -0.0055
     27  C4        12.1090   -1.4990  -16.7090 C.2   487  ADP487      0.3518
@<TRIPOS>BOND
     1     4     1    2
     2     2     1    1
     3     1     8    1
     4     1     3    1
     5     7     5    2
     6     8     5    1
     7     6     5    1
     8     5     9    1
     9     9    10    1
    10    10    11    1
    11    11    12    1
    12    11    13    1
    13    19    20    1
    14    19    18    1
    15    12    17    1
    16    20    21    2
    17    13    15    1
    18    13    14    1
    19    15    17    1
    20    15    16    1
    21    18    17    1
    22    18    27    1
    23    21    27    1
    24    21    22    1
    25    27    26    2
    26    23    22    1
    27    22    24    2
    28    26    25    1
    29    24    25    1
