@<TRIPOS>MOLECULE
2qwr_ANP_A_1.pdb
 31 33 0 0 0
SMALL
GASTEIGER

@<TRIPOS>ATOM
      1  PG         2.5960   -0.0320  -24.4270 P.3   487  ANP487      0.4884
      2  O1G        3.0960   -0.0080  -25.8990 O.2   487  ANP487     -0.2331
      3  O2G        2.7250   -1.5280  -24.1240 O.3   487  ANP487     -0.1240
      4  O3G        1.2730    0.8400  -24.0910 O.3   487  ANP487     -0.1240
      5  PB         5.2210    1.2840  -23.5700 P.3   487  ANP487      0.4669
      6  O1B        5.5770    0.6520  -24.8930 O.2   487  ANP487     -0.2351
      7  O2B        5.3580    2.7910  -23.4620 O.3   487  ANP487     -0.1253
      8  N3B        3.7170    0.6210  -23.2880 N.3   487  ANP487     -0.0163
      9  PA         7.4490   -0.2750  -22.4430 P.3   487  ANP487      0.2220
     10  O1A        6.7170   -1.6030  -22.4790 O.3   487  ANP487     -0.4370
     11  O2A        8.6900   -0.0040  -23.2250 O.2   487  ANP487     -0.5170
     12  O3A        6.3160    0.8750  -22.4700 O.3   487  ANP487     -0.2360
     13  O5'        7.9770   -0.1400  -20.9420 O.3   487  ANP487     -0.3111
     14  C5'        8.4830    1.1310  -20.4650 C.3   487  ANP487      0.1813
     15  C4'        8.7190    0.9170  -18.9800 C.3   487  ANP487      0.1821
     16  O4'        9.4170   -0.3400  -18.7040 O.3   487  ANP487     -0.3135
     17  C3'        9.5350    2.0080  -18.3330 C.3   487  ANP487      0.2184
     18  O3'        8.9310    2.3320  -17.0790 O.3   487  ANP487     -0.2174
     19  C2'       10.8570    1.3760  -18.0300 C.3   487  ANP487      0.2570
     20  O2'       11.4880    1.9540  -16.9090 O.3   487  ANP487     -0.2130
     21  C1'       10.4260   -0.0380  -17.7060 C.3   487  ANP487      0.3186
     22  N9        11.6280   -0.8830  -17.7560 N.pl3 487  ANP487     -0.1439
     23  C8        12.3850   -1.1190  -18.8280 C.3   487  ANP487      0.3377
     24  N7        13.3880   -1.9560  -18.4420 N.2   487  ANP487     -0.2095
     25  C5        13.2440   -2.2080  -17.1100 C.2   487  ANP487      0.2526
     26  C6        13.9210   -2.9860  -16.1700 C.2   487  ANP487      0.4393
     27  N6        15.0240   -3.7090  -16.4860 N.pl3 487  ANP487      0.2180
     28  N1        13.4800   -3.0230  -14.8990 N.2   487  ANP487      0.0021
     29  C2        12.3900   -2.3370  -14.5180 C.3   487  ANP487      0.5254
     30  N3        11.7220   -1.6110  -15.4020 N.2   487  ANP487     -0.0055
     31  C4        12.1360   -1.5120  -16.6900 C.2   487  ANP487      0.3518
@<TRIPOS>BOND
     1     2     1    2
     2     6     5    2
     3     1     3    1
     4     1     4    1
     5     1     8    1
     6     5     7    1
     7     5     8    1
     8     5    12    1
     9    11     9    2
    10    10     9    1
    11    12     9    1
    12     9    13    1
    13    13    14    1
    14    14    15    1
    15    15    16    1
    16    15    17    1
    17    23    24    1
    18    23    22    1
    19    16    21    1
    20    24    25    2
    21    17    19    1
    22    17    18    1
    23    19    21    1
    24    19    20    1
    25    22    21    1
    26    22    31    1
    27    25    31    1
    28    25    26    1
    29    31    30    2
    30    27    26    1
    31    26    28    2
    32    30    29    1
    33    28    29    1
