@<TRIPOS>MOLECULE
2qwx_ML1_A_1.pdb
 17 18 0 0 0
SMALL
GASTEIGER

@<TRIPOS>ATOM
      1  C1        -7.4530    5.5380   14.0950 C.3   233  ML1233      0.1195
      2  C2        -5.0210    3.3890   14.4350 C.2   233  ML1233      0.0907
      3  C3        -2.5620    8.9450   16.6540 C.3   233  ML1233      0.2525
      4  C4        -9.4350    6.9520   13.7560 C.2   233  ML1233      0.2419
      5  C5       -10.0400    7.6400   12.5860 C.3   233  ML1233      0.0964
      6  C6        -6.0070    5.6500   13.7250 C.3   233  ML1233      0.0477
      7  C8        -4.0610    5.1650   15.3410 C.3   233  ML1233      0.0850
      8  C9        -3.6360    6.4530   15.7690 C.2   233  ML1233      0.0205
      9  C12       -2.3150    4.1080   16.7490 C.2   233  ML1233      0.0184
     10  C13       -3.3990    4.0170   15.8330 C.2   233  ML1233      0.0667
     11  C7        -5.0830    4.7380   14.4570 C.2   233  ML1233     -0.0140
     12  C10       -2.5660    6.5490   16.6720 C.2   233  ML1233      0.1352
     13  C11       -1.9170    5.3810   17.1530 C.2   233  ML1233      0.0378
     14  N1        -8.1200    6.7680   13.7150 N.am  233  ML1233     -0.2051
     15  N2        -4.0130    2.9420   15.2560 N.2   233  ML1233     -0.2481
     16  O1        -2.0450    7.7340   17.1610 O.2   233  ML1233     -0.4717
     17  O2       -10.1210    6.5730   14.7160 O.2   233  ML1233     -0.2733
@<TRIPOS>BOND
     1     5     4    1
     2    14     4   am
     3    14     1    1
     4     6     1    1
     5     6    11    1
     6     4    17    2
     7     2    11    2
     8     2    15    1
     9    11     7    1
    10    15    10    2
    11     7     8    1
    12     7    10    1
    13     8    12    2
    14    10     9    1
    15     3    16    1
    16    12    13    1
    17    12    16    1
    18     9    13    2
