@<TRIPOS>MOLECULE
2qx0_PH2_A_1.pdb
 14 15 0 0 0
SMALL
GASTEIGER

@<TRIPOS>ATOM
      1  N1         3.4680    5.5500    6.9560 N.2   181  PH2181     -0.3830
      2  C2         3.2800    5.6130    8.2450 C.2   181  PH2181      0.1470
      3  C3         3.2070    6.9820    9.0010 C.3   181  PH2181      0.1940
      4  N4         3.3630    7.9900    8.1500 N.2   181  PH2181     -0.1992
      5  N5         3.6980    9.1120    6.0760 N.2   181  PH2181     -0.2672
      6  C6         3.8840    9.1520    4.8110 C.1   181  PH2181      0.2609
      7  N6         4.0240   10.1260    4.0380 N.pl3 181  PH2181     -0.0220
      8  N7         3.9420    7.8170    4.1670 N.2   181  PH2181     -0.2466
      9  C8         3.8110    6.6480    4.8390 C.1   181  PH2181      0.2569
     10  O8         3.8840    5.5800    4.1380 O.2   181  PH2181     -0.2052
     11  C9         3.6130    6.6720    6.1860 C.2   181  PH2181      0.2989
     12  C10        3.5570    8.0440    6.8380 C.1   181  PH2181      0.1401
     13  C11        3.1340    4.3740    9.0710 C.3   181  PH2181      0.2380
     14  O4         3.2230    3.1870    8.4070 O.3   181  PH2181     -0.2126
@<TRIPOS>BOND
     1     7     6    1
     2    10     9    2
     3     8     6    2
     4     8     9    2
     5     6     5    2
     6     9    11    1
     7     5    12    2
     8    11    12    1
     9    11     1    2
    10    12     4    2
    11     1     2    2
    12     4     3    1
    13     2     3    1
    14     2    13    1
    15    14    13    1
