@<TRIPOS>MOLECULE
2qx0_APC_A_1.pdb
 31 33 0 0 0
SMALL
GASTEIGER

@<TRIPOS>ATOM
      1  PG         0.1200    2.2480   10.1240 P.3   171  APC171      0.5389
      2  O1G       -0.7710    1.0790   10.3760 O.3   171  APC171     -0.1143
      3  O2G       -0.3960    3.5130   10.7670 O.3   171  APC171     -0.1143
      4  O3G        0.3500    2.4820    8.6540 O.2   171  APC171     -0.2220
      5  PB         2.6230    0.8020   10.4910 P.3   171  APC171      0.3895
      6  O1B        2.2690    0.3280    9.0820 O.2   171  APC171     -0.2544
      7  O2B        4.0270    1.2240   10.7820 O.3   171  APC171     -0.1388
      8  O3B        1.5800    1.9890   10.8090 O.3   171  APC171     -0.2026
      9  PA         3.3700   -1.8880   11.4610 P.3   171  APC171      0.3820
     10  O1A        3.8830   -1.9880   10.0260 O.2   171  APC171     -0.2548
     11  O2A        4.4360   -1.8010   12.5130 O.3   171  APC171     -0.1392
     12  C3A        2.2480   -0.5270   11.6310 C.3   171  APC171      0.2357
     13  O5'        2.5220   -3.2210   11.6870 O.3   171  APC171     -0.2896
     14  C5'        2.0400   -3.5580   13.0420 C.3   171  APC171      0.1836
     15  C4'        0.9410   -4.5690   12.8460 C.3   171  APC171      0.1822
     16  O4'       -0.0910   -4.0560   11.9810 O.3   171  APC171     -0.3135
     17  C3'        1.3570   -5.8660   12.2430 C.3   171  APC171      0.2184
     18  O3'        2.0560   -6.7100   13.0600 O.3   171  APC171     -0.2174
     19  C2'        0.0780   -6.3990   11.6880 C.3   171  APC171      0.2570
     20  O2'       -0.4060   -7.5380   12.4330 O.3   171  APC171     -0.2130
     21  C1'       -0.9200   -5.2490   11.7620 C.3   171  APC171      0.3186
     22  N9        -1.7560   -5.0100   10.5710 N.pl3 171  APC171     -0.1439
     23  C8        -3.1780   -4.8300   10.7230 C.3   171  APC171      0.3377
     24  N7        -3.7230   -4.6220    9.5140 N.2   171  APC171     -0.2095
     25  C5        -2.6480   -4.6700    8.6010 C.2   171  APC171      0.2526
     26  C6        -2.6680   -4.5100    7.2230 C.2   171  APC171      0.4393
     27  N6        -3.6840   -4.2740    6.4440 N.pl3 171  APC171      0.2180
     28  N1        -1.4290   -4.6080    6.5530 N.2   171  APC171      0.0021
     29  C2        -0.3420   -4.8400    7.2360 C.3   171  APC171      0.5254
     30  N3        -0.1990   -5.0180    8.6400 N.2   171  APC171     -0.0055
     31  C4        -1.4550   -4.9120    9.2660 C.2   171  APC171      0.3518
@<TRIPOS>BOND
     1    27    26    1
     2    28    26    2
     3    28    29    1
     4    26    25    1
     5    29    30    1
     6    25    31    1
     7    25    24    2
     8    30    31    2
     9     4     1    2
    10     6     5    2
    11    31    22    1
    12    24    23    1
    13    10     9    2
    14     1     2    1
    15     1     3    1
    16     1     8    1
    17     5     7    1
    18     5     8    1
    19     5    12    1
    20    22    23    1
    21    22    21    1
    22     9    12    1
    23     9    13    1
    24     9    11    1
    25    13    14    1
    26    19    21    1
    27    19    17    1
    28    19    20    1
    29    21    16    1
    30    16    15    1
    31    17    15    1
    32    17    18    1
    33    15    14    1
