@<TRIPOS>MOLECULE
2qx1_COA_A_1.pdb
 48 50 0 0 0
SMALL
GASTEIGER

@<TRIPOS>ATOM
      1  N1A       44.0960   41.0000   51.7980 N.2   962  COA962      0.0021
      2  C2A       43.3860   41.6410   52.7470 C.3   962  COA962      0.5254
      3  N3A       43.9250   41.9260   53.9460 N.2   962  COA962     -0.0055
      4  C4A       45.2110   41.5640   54.2220 C.2   962  COA962      0.3518
      5  C5A       45.9590   40.8950   53.2560 C.2   962  COA962      0.2526
      6  C6A       45.3720   40.6200   52.0200 C.2   962  COA962      0.4393
      7  N6A       46.0770   39.9650   51.0600 N.pl3 962  COA962      0.2180
      8  N7A       47.1830   40.6520   53.7770 N.2   962  COA962     -0.2095
      9  C8A       47.1960   41.1570   55.0340 C.3   962  COA962      0.3377
     10  N9A       45.9990   41.7170   55.2990 N.pl3 962  COA962     -0.1439
     11  C1B       45.6350   42.3700   56.5890 C.3   962  COA962      0.3185
     12  C2B       45.8130   43.8850   56.5740 C.3   962  COA962      0.2543
     13  O2B       47.1870   44.2880   56.6690 O.3   962  COA962     -0.2131
     14  C3B       44.9880   44.3100   57.7860 C.3   962  COA962      0.1928
     15  O3B       45.8080   44.4380   58.9690 O.3   962  COA962     -0.2673
     16  P3B       45.4520   43.9650   60.4940 P.3   962  COA962      0.5327
     17  O7A       44.9270   42.5420   60.4330 O.2   962  COA962     -0.2224
     18  O8A       46.7950   44.0340   61.1980 O.3   962  COA962     -0.1145
     19  O9A       44.4320   44.9880   60.9640 O.3   962  COA962     -0.1145
     20  C4B       43.9350   43.2020   57.9120 C.3   962  COA962      0.1795
     21  O4B       44.2600   42.1830   56.9540 O.3   962  COA962     -0.3136
     22  C5B       42.5180   43.7350   57.7440 C.3   962  COA962      0.1812
     23  O5B       42.4030   44.4860   56.5360 O.3   962  COA962     -0.3112
     24  P1A       40.9850   44.5850   55.7690 P.3   962  COA962      0.2189
     25  O1A       41.1130   45.6930   54.7470 O.2   962  COA962     -0.5170
     26  O2A       39.8780   44.6610   56.8060 O.3   962  COA962     -0.4371
     27  O3A       40.9210   43.1760   54.9490 O.3   962  COA962     -0.2703
     28  P2A       40.2250   41.7900   55.4590 P.3   962  COA962      0.2188
     29  O4A       38.7080   41.9570   55.4400 O.2   962  COA962     -0.5170
     30  O5A       40.9180   41.3530   56.7410 O.3   962  COA962     -0.4371
     31  O6A       40.6020   40.7130   54.2970 O.3   962  COA962     -0.3138
     32  CBP       39.2970   39.1810   52.8780 C.3   962  COA962      0.0645
     33  CCP       39.9810   39.4160   54.2270 C.3   962  COA962      0.1519
     34  CDP       38.5850   40.4600   52.4140 C.3   962  COA962      0.0056
     35  CEP       40.3640   38.8230   51.8480 C.3   962  COA962      0.0056
     36  CAP       38.2670   38.0350   53.0770 C.3   962  COA962      0.2312
     37  OAP       36.9120   38.5470   53.1160 O.3   962  COA962     -0.2131
     38  C9P       38.3730   36.8810   52.0830 C.2   962  COA962      0.2719
     39  O9P       38.9750   35.8500   52.3890 O.2   962  COA962     -0.2706
     40  N8P       37.7720   37.0330   50.8940 N.am  962  COA962     -0.2028
     41  C7P       37.7310   36.0930   49.7820 C.3   962  COA962      0.1248
     42  C6P       36.9840   34.8630   50.2950 C.3   962  COA962      0.1102
     43  C5P       35.4980   35.1160   50.2360 C.2   962  COA962      0.2432
     44  O5P       34.9290   35.6000   51.1990 O.2   962  COA962     -0.2733
     45  N4P       34.9120   34.7670   49.0900 N.am  962  COA962     -0.2044
     46  C3P       33.5330   34.8650   48.6390 C.3   962  COA962      0.1276
     47  C2P       33.7540   35.3020   47.1930 C.3   962  COA962      0.0920
     48  S1P       32.2790   35.0570   46.1700 S.3   962  COA962     -0.0802
@<TRIPOS>BOND
     1    48    47    1
     2    47    46    1
     3    46    45    1
     4    45    43   am
     5    41    42    1
     6    41    40    1
     7    43    42    1
     8    43    44    2
     9    40    38   am
    10     7     6    1
    11     1     6    2
    12     1     2    1
    13    35    32    1
    14     6     5    1
    15    38    39    2
    16    38    36    1
    17    34    32    1
    18     2     3    1
    19    32    36    1
    20    32    33    1
    21    36    37    1
    22     5     8    2
    23     5     4    1
    24     8     9    1
    25     3     4    2
    26     4    10    1
    27    33    31    1
    28    31    28    1
    29    25    24    2
    30    27    28    1
    31    27    24    1
    32     9    10    1
    33    10    11    1
    34    29    28    2
    35    28    30    1
    36    24    23    1
    37    24    26    1
    38    23    22    1
    39    12    11    1
    40    12    13    1
    41    12    14    1
    42    11    21    1
    43    21    20    1
    44    22    20    1
    45    14    20    1
    46    14    15    1
    47    15    16    1
    48    17    16    2
    49    16    19    1
    50    16    18    1
