@<TRIPOS>MOLECULE
2qx1_D1T_A_1.pdb
 11 10 0 0 0
SMALL
GASTEIGER

@<TRIPOS>ATOM
      1  C10       34.0180   44.5760   34.7950 C.3   963  D1T963      0.0000
      2  C9        33.4340   43.5200   35.7410 C.3   963  D1T963      0.0000
      3  C8        32.0750   43.0400   35.2130 C.3   963  D1T963      0.0000
      4  C7        31.6700   41.6930   35.7890 C.3   963  D1T963      0.0000
      5  C6        32.3490   40.5500   35.0330 C.3   963  D1T963      0.0000
      6  C5        32.7430   39.4370   35.9930 C.3   963  D1T963      0.0000
      7  C4        31.5380   38.5860   36.3970 C.3   963  D1T963      0.0000
      8  C3        31.3560   38.6190   37.9070 C.3   963  D1T963      0.0009
      9  C2        30.4010   37.5280   38.3530 C.3   963  D1T963      0.0125
     10  C1        30.9850   36.8030   39.5680 C.3   963  D1T963      0.0687
     11  S1        29.7220   35.8520   40.4920 S.3   963  D1T963     -0.0821
@<TRIPOS>BOND
     1     1     2    1
     2     5     4    1
     3     5     6    1
     4     3     2    1
     5     3     4    1
     6     6     7    1
     7     7     8    1
     8     8     9    1
     9     9    10    1
    10    10    11    1
