@<TRIPOS>MOLECULE
2qx4_ML1_A_1.pdb
 17 18 0 0 0
SMALL
GASTEIGER

@<TRIPOS>ATOM
      1  C1        -7.4400    5.4590   13.4990 C.3   233  ML1233      0.1199
      2  C2        -5.2290    3.4460   14.2750 C.2   233  ML1233      0.0942
      3  C3        -2.0610    8.3990   17.1290 C.3   233  ML1233      0.2525
      4  C4        -9.4370    6.8920   13.6030 C.2   233  ML1233      0.2419
      5  C5       -10.8340    6.6030   14.0420 C.3   233  ML1233      0.0964
      6  C6        -6.0650    5.8790   13.9400 C.3   233  ML1233      0.0514
      7  C8        -4.1260    5.0020   15.4180 C.2   233  ML1233      0.0145
      8  C9        -3.5880    6.1770   16.0350 C.2   233  ML1233      0.0375
      9  C12       -2.4520    3.6110   16.6070 C.3   233  ML1233      0.0749
     10  C13       -3.5500    3.7410   15.7130 C.2   233  ML1233      0.0633
     11  C7        -5.1940    4.7900   14.5010 C.2   233  ML1233     -0.0001
     12  C10       -2.4990    6.0440   16.9190 C.2   233  ML1233      0.1349
     13  C11       -1.9470    4.7710   17.1950 C.2   233  ML1233      0.0171
     14  N1        -8.4600    6.2140   14.2130 N.am  233  ML1233     -0.2051
     15  N2        -4.2490    2.8090   14.9950 N.2   233  ML1233     -0.2482
     16  O1        -1.8670    7.0780   17.5850 O.2   233  ML1233     -0.4717
     17  O2        -9.1950    7.7260   12.7160 O.2   233  ML1233     -0.2733
@<TRIPOS>BOND
     1    17     4    2
     2     1     6    1
     3     1    14    1
     4     4     5    1
     5     4    14   am
     6     6    11    1
     7     2    11    2
     8     2    15    1
     9    11     7    1
    10    15    10    2
    11     7    10    1
    12     7     8    2
    13    10     9    1
    14     8    12    1
    15     9    13    1
    16    12    13    2
    17    12    16    1
    18     3    16    1
