@<TRIPOS>MOLECULE
2qx6_ML1_A_1.pdb
 17 18 0 0 0
SMALL
GASTEIGER

@<TRIPOS>ATOM
      1  C1        -6.8200    5.2210   14.8120 C.3   233  ML1233      0.1195
      2  C2        -4.1670    3.1640   15.1320 C.2   233  ML1233      0.0907
      3  C3        -2.4290    9.3510   16.7480 C.3   233  ML1233      0.2525
      4  C4        -6.5110    7.6330   15.2830 C.2   233  ML1233      0.2419
      5  C5        -6.6990    8.1300   16.6590 C.3   233  ML1233      0.0964
      6  C6        -5.4680    5.1280   14.1500 C.3   233  ML1233      0.0477
      7  C8        -3.5210    5.1660   15.8610 C.3   233  ML1233      0.0850
      8  C9        -3.3030    6.5610   16.1620 C.2   233  ML1233      0.0205
      9  C12       -1.6940    4.5390   17.4120 C.2   233  ML1233      0.0184
     10  C13       -2.7200    4.1880   16.4860 C.2   233  ML1233      0.0667
     11  C7        -4.4330    4.4830   15.0040 C.2   233  ML1233     -0.0140
     12  C10       -2.2950    6.9050   17.0680 C.2   233  ML1233      0.1352
     13  C11       -1.5140    5.8910   17.6700 C.2   233  ML1233      0.0378
     14  N1        -7.2720    6.5960   14.8910 N.am  233  ML1233     -0.2051
     15  N2        -3.1380    2.9720   16.0230 N.2   233  ML1233     -0.2481
     16  O1        -1.9490    8.2210   17.4690 O.2   233  ML1233     -0.4717
     17  O2        -5.6360    8.1060   14.5310 O.2   233  ML1233     -0.2733
@<TRIPOS>BOND
     1     6     1    1
     2     6    11    1
     3    17     4    2
     4     1    14    1
     5    14     4   am
     6    11     2    2
     7    11     7    1
     8     2    15    1
     9     4     5    1
    10     7     8    1
    11     7    10    1
    12    15    10    2
    13     8    12    2
    14    10     9    1
    15     3    16    1
    16    12    16    1
    17    12    13    1
    18     9    13    2
