@<TRIPOS>MOLECULE
2qx7_NAP_A_1.pdb
 48 52 0 0 0
SMALL
GASTEIGER

@<TRIPOS>ATOM
      1  PA        45.9200   32.3980   53.1890 P.3   401  NAP401      0.2189
      2  O1A       46.7880   33.2600   52.3560 O.2   401  NAP401     -0.5170
      3  O2A       44.7340   32.9550   53.8710 O.3   401  NAP401     -0.4371
      4  O5B       46.9290   31.6750   54.1880 O.3   401  NAP401     -0.3112
      5  C5B       46.4550   30.6240   55.0400 C.3   401  NAP401      0.1813
      6  C4B       47.3420   30.6370   56.2510 C.3   401  NAP401      0.1820
      7  O4B       48.8100   30.3220   56.0530 O.3   401  NAP401     -0.3136
      8  C3B       47.5730   31.9550   56.9660 C.3   401  NAP401      0.2157
      9  O3B       46.4070   32.3500   57.6510 O.3   401  NAP401     -0.2175
     10  C2B       48.7740   31.7380   57.8940 C.3   401  NAP401      0.2314
     11  O2B       48.3630   31.3200   59.1820 O.3   401  NAP401     -0.2630
     12  C1B       49.5780   30.6570   57.1940 C.3   401  NAP401      0.3158
     13  N9A       50.8830   31.1130   56.7040 N.pl3 401  NAP401     -0.1439
     14  C8A       51.1270   32.2490   55.9310 C.3   401  NAP401      0.3377
     15  N7A       52.3970   32.4180   55.6370 N.2   401  NAP401     -0.2095
     16  C5A       53.0100   31.3580   56.2360 C.2   401  NAP401      0.2526
     17  C6A       54.3750   30.9620   56.3020 C.2   401  NAP401      0.4393
     18  N6A       55.3400   31.6750   55.7020 N.pl3 401  NAP401      0.2180
     19  N1A       54.6680   29.8190   56.9990 N.2   401  NAP401      0.0021
     20  C2A       53.6820   29.1020   57.6070 C.3   401  NAP401      0.5254
     21  N3A       52.3540   29.3920   57.6080 N.2   401  NAP401     -0.0055
     22  C4A       52.0920   30.5430   56.9070 C.2   401  NAP401      0.3518
     23  O3        45.5100   31.1190   52.2720 O.3   401  NAP401     -0.2703
     24  PN        44.1970   31.0670   51.3560 P.3   401  NAP401      0.2189
     25  O1N       44.0840   32.2970   50.5320 O.2   401  NAP401     -0.5170
     26  O2N       43.0680   30.7740   52.2810 O.3   401  NAP401     -0.4371
     27  O5D       44.4160   29.7900   50.4390 O.3   401  NAP401     -0.3112
     28  C5D       44.3690   28.4640   50.9730 C.3   401  NAP401      0.1813
     29  C4D       44.0320   27.4890   49.8690 C.3   401  NAP401      0.1799
     30  O4D       42.8340   27.9550   49.1680 O.3   401  NAP401     -0.3327
     31  C3D       45.1790   27.2960   48.8410 C.3   401  NAP401      0.2158
     32  O3D       45.3090   25.9420   48.4720 O.3   401  NAP401     -0.2175
     33  C2D       44.7100   28.2140   47.7470 C.3   401  NAP401      0.2309
     34  O2D       45.3070   27.8520   46.5150 O.3   401  NAP401     -0.2158
     35  C1D       43.2080   28.0720   47.7790 C.3   401  NAP401      0.2263
     36  N1N       42.5260   29.1920   47.0860 N.pl3 401  NAP401     -0.2787
     37  C2N       41.5070   28.8460   46.2170 C.3   401  NAP401      0.1244
     38  C3N       40.6880   29.8340   45.6700 C.2   401  NAP401      0.0544
     39  C7N       39.4960   29.4880   44.8130 C.2   401  NAP401      0.2818
     40  O7N       38.7850   30.3890   44.3790 O.2   401  NAP401     -0.2670
     41  N7N       39.2400   28.1890   44.5780 N.am  401  NAP401     -0.0839
     42  C4N       40.9700   31.2090   45.9570 C.2   401  NAP401      0.0033
     43  C5N       42.0100   31.5440   46.8330 C.2   401  NAP401      0.0157
     44  C6N       42.7780   30.5350   47.4200 C.2   401  NAP401      0.0633
     45  P2B       49.0150   31.8580   60.5550 P.3   401  NAP401      0.5328
     46  O1X       49.2060   33.3470   60.4110 O.2   401  NAP401     -0.2224
     47  O2X       47.9880   31.4150   61.5580 O.3   401  NAP401     -0.1145
     48  O3X       50.3330   31.1190   60.7140 O.3   401  NAP401     -0.1145
@<TRIPOS>BOND
     1    40    39    2
     2    41    39   am
     3    39    38    1
     4    38    42    2
     5    38    37    1
     6    42    43    1
     7    37    36    1
     8    34    33    1
     9    43    44    2
    10    36    44    1
    11    36    35    1
    12    33    35    1
    13    33    31    1
    14    35    30    1
    15    32    31    1
    16    31    29    1
    17    30    29    1
    18    29    28    1
    19    27    28    1
    20    27    24    1
    21    25    24    2
    22    24    23    1
    23    24    26    1
    24    23     1    1
    25     2     1    2
    26     1     3    1
    27     1     4    1
    28     4     5    1
    29     5     6    1
    30    15    14    1
    31    15    16    2
    32    18    17    1
    33    14    13    1
    34     7     6    1
    35     7    12    1
    36    16    17    1
    37    16    22    1
    38     6     8    1
    39    17    19    2
    40    13    22    1
    41    13    12    1
    42    22    21    2
    43     8     9    1
    44     8    10    1
    45    19    20    1
    46    12    10    1
    47    20    21    1
    48    10    11    1
    49    11    45    1
    50    46    45    2
    51    45    48    1
    52    45    47    1
