@<TRIPOS>MOLECULE
2qx8_ML2_A_1.pdb
 18 19 0 0 0
SMALL
GASTEIGER

@<TRIPOS>ATOM
      1  C2        24.9240   44.8810   68.8910 C.2   235  ML2235      0.1561
      2  C4        25.9400   46.5820   69.7820 C.ar  235  ML2235      0.1319
      3  C5        26.8100   47.4130   70.4990 C.ar  235  ML2235      0.0352
      4  C6        26.6040   48.8080   70.4120 C.ar  235  ML2235      0.0395
      5  C9        26.3180   51.6760   70.2300 C.3   235  ML2235      0.2525
      6  C12       24.2220   46.0120   68.4220 C.2   235  ML2235      0.0172
      7  C13       23.0040   46.0550   67.4800 C.3   235  ML2235      0.0529
      8  N15       20.6860   47.0620   67.4210 N.am  235  ML2235     -0.2051
      9  C16       20.7120   48.3400   67.1600 C.2   235  ML2235      0.2419
     10  C18       19.5840   48.8510   66.2890 C.3   235  ML2235      0.0964
     11  I1        24.5400   42.9200   68.4600 I     235  ML2235     -0.0068
     12  N3        25.9270   45.2650   69.6900 N.2   235  ML2235     -0.3965
     13  C7        25.5460   49.3720   69.6270 C.ar  235  ML2235      0.1389
     14  O8        25.4070   50.7670   69.5760 O.3   235  ML2235     -0.4714
     15  C10       24.6650   48.5080   68.9090 C.ar  235  ML2235      0.0392
     16  C11       24.8830   47.1060   68.9980 C.ar  235  ML2235      0.0316
     17  C14       21.7570   46.5310   68.2800 C.3   235  ML2235      0.1199
     18  O17       21.5560   49.1500   67.5590 O.2   235  ML2235     -0.2733
@<TRIPOS>BOND
     1    10     9    1
     2     9     8   am
     3     9    18    2
     4     8    17    1
     5     7    17    1
     6     7     6    1
     7     6     1    1
     8     6    16    2
     9    11     1    1
    10     1    12    2
    11    15    16   ar
    12    15    13   ar
    13    16     2   ar
    14    14    13    1
    15    14     5    1
    16    13     4   ar
    17    12     2    2
    18     2     3   ar
    19     4     3   ar
