@<TRIPOS>MOLECULE
2qx9_ML2_A_1.pdb
 18 19 0 0 0
SMALL
GASTEIGER

@<TRIPOS>ATOM
      1  C2        25.4280   12.3190   15.6090 C.2   233  ML2233      0.1561
      2  C4        23.9210   13.7630   14.8970 C.ar  233  ML2233      0.1319
      3  C5        22.8440   14.4170   14.2310 C.ar  233  ML2233      0.0352
      4  C6        22.5560   15.7710   14.5840 C.ar  233  ML2233      0.0395
      5  C9        23.6410   18.6600   16.8160 C.3   233  ML2233      0.2525
      6  C12       25.6680   13.5070   16.3480 C.2   233  ML2233      0.0172
      7  C13       26.7440   13.7870   17.4510 C.3   233  ML2233      0.0529
      8  N15       28.5520   12.4590   18.5890 N.am  233  ML2233     -0.2051
      9  C16       28.6230   11.1670   18.7670 C.2   233  ML2233      0.2419
     10  C18       29.1610   10.7110   20.0980 C.3   233  ML2233      0.0964
     11  I1        26.4670   10.5320   15.7730 I     233  ML2233     -0.0068
     12  N3        24.3850   12.5150   14.7600 N.2   233  ML2233     -0.3965
     13  C7        23.3210   16.4650   15.5750 C.ar  233  ML2233      0.1389
     14  O8        22.9540   17.8150   15.8610 O.3   233  ML2233     -0.4714
     15  C10       24.4150   15.7800   16.2380 C.ar  233  ML2233      0.0392
     16  C11       24.6960   14.4270   15.8820 C.ar  233  ML2233      0.0316
     17  C14       28.0380   12.9260   17.2940 C.3   233  ML2233      0.1199
     18  O17       28.3020   10.3090   17.9670 O.2   233  ML2233     -0.2733
@<TRIPOS>BOND
     1     3     4   ar
     2     3     2   ar
     3     4    13   ar
     4    12     2    2
     5    12     1    2
     6     2    16   ar
     7    13    14    1
     8    13    15   ar
     9     1    11    1
    10     1     6    1
    11    14     5    1
    12    16    15   ar
    13    16     6    2
    14     6     7    1
    15    17     7    1
    16    17     8    1
    17    18     9    2
    18     8     9   am
    19     9    10    1
