@<TRIPOS>MOLECULE
2qxf_TMP_A_1.pdb
 21 22 0 0 0
SMALL
GASTEIGER

@<TRIPOS>ATOM
      1  P         28.0120   30.0860   16.6530 P.3   3000  TMP3000     0.5327
      2  O1P       27.0380   29.2250   17.4510 O.3   3000  TMP3000    -0.1145
      3  O2P       27.4550   31.2640   15.8780 O.3   3000  TMP3000    -0.1145
      4  O3P       28.7070   29.1290   15.7480 O.2   3000  TMP3000    -0.2224
      5  O5'       29.1110   30.7110   17.6800 O.3   3000  TMP3000    -0.2675
      6  C5'       29.4590   30.0580   18.9110 C.3   3000  TMP3000     0.1858
      7  C4'       30.7140   30.6470   19.5370 C.3   3000  TMP3000     0.1774
      8  O4'       31.8500   30.3380   18.7300 O.3   3000  TMP3000    -0.3339
      9  C3'       30.6660   32.1600   19.6390 C.3   3000  TMP3000     0.1857
     10  O3'       30.1350   32.4850   20.8900 O.3   3000  TMP3000    -0.2203
     11  C2'       32.0950   32.6240   19.4940 C.3   3000  TMP3000     0.0874
     12  C1'       32.7310   31.4840   18.7180 C.3   3000  TMP3000     0.2090
     13  N1        33.0490   31.8200   17.3040 N.am  3000  TMP3000    -0.1794
     14  C2        34.3910   32.1860   16.9530 C.1   3000  TMP3000     0.2844
     15  O2        35.3190   32.2380   17.8220 O.2   3000  TMP3000    -0.1918
     16  N3        34.6530   32.4780   15.6400 N.2   3000  TMP3000    -0.2455
     17  C4        33.6770   32.4290   14.6670 C.1   3000  TMP3000     0.2134
     18  O4        33.9380   32.7080   13.4750 O.2   3000  TMP3000    -0.2088
     19  C5        32.2780   32.0540   15.0220 C.2   3000  TMP3000     0.0891
     20  C5M       31.1210   31.9670   14.0520 C.3   3000  TMP3000     0.0462
     21  C6        32.0540   31.7640   16.3520 C.2   3000  TMP3000     0.0877
@<TRIPOS>BOND
     1    18    17    2
     2    20    19    1
     3    17    19    1
     4    17    16    2
     5    19    21    2
     6    16    14    2
     7     4     1    2
     8     3     1    1
     9    21    13    1
    10     1     2    1
    11     1     5    1
    12    14    13   am
    13    14    15    2
    14    13    12    1
    15     5     6    1
    16    12     8    1
    17    12    11    1
    18     8     7    1
    19     6     7    1
    20    11     9    1
    21     7     9    1
    22     9    10    1
