@<TRIPOS>MOLECULE
2qxg_K7I_A_1.pdb
 22 22 0 0 0
SMALL
GASTEIGER

@<TRIPOS>ATOM
      1  CAK       -4.5310   -3.3930   40.9650 C.ar  300  K7I300     -0.0042
      2  CAI       -4.0810   -3.3010   42.3080 C.ar  300  K7I300     -0.0003
      3  CAH       -4.9370   -3.6840   43.3710 C.ar  300  K7I300     -0.0000
      4  CAJ       -6.2660   -4.1090   43.0980 C.ar  300  K7I300     -0.0003
      5  CAL       -6.7350   -4.1640   41.7560 C.ar  300  K7I300     -0.0042
      6  CAR       -5.8500   -3.8500   40.6660 C.ar  300  K7I300     -0.0204
      7  CAM       -6.2480   -4.0710   39.2230 C.3   300  K7I300      0.0506
      8  CAV       -7.1740   -5.2770   38.9660 C.3   300  K7I300      0.1299
      9  OAG       -8.9110   -4.2570   37.7760 O.3   300  K7I300     -0.2213
     10  NAO       -6.4090   -6.5240   39.0540 N.am  300  K7I300     -0.2028
     11  CAQ       -6.7730   -7.5170   39.8670 C.2   300  K7I300      0.2612
     12  OAF       -7.9250   -7.6440   40.2990 O.2   300  K7I300     -0.2715
     13  CAU       -5.6380   -8.3280   40.4750 C.3   300  K7I300      0.1728
     14  CAC       -5.8230   -9.8210   40.1790 C.3   300  K7I300      0.0334
     15  NAN       -5.7170   -8.0370   41.9070 N.am  300  K7I300     -0.1966
     16  C         -4.6970   -8.1530   42.7530 C.2   300  K7I300      0.2592
     17  O         -4.0210   -7.1800   43.0850 O.2   300  K7I300     -0.2718
     18  CA        -4.6550   -9.4330   43.5920 C.3   300  K7I300      0.1694
     19  CB        -5.9460   -9.5790   44.3990 C.3   300  K7I300      0.0304
     20  N         -3.5130   -9.4170   44.5000 N.3   300  K7I300     -0.1231
     21  CAT       -7.9230   -5.0840   37.6190 C.3   300  K7I300      0.1722
     22  CAB       -8.4480   -6.4330   37.0460 C.3   300  K7I300      0.0374
@<TRIPOS>BOND
     1    22    21    1
     2    21     9    1
     3    21     8    1
     4     8    10    1
     5     8     7    1
     6    10    11   am
     7     7     6    1
     8    11    12    2
     9    11    13    1
    10    14    13    1
    11    13    15    1
    12     6     1   ar
    13     6     5   ar
    14     1     2   ar
    15     5     4   ar
    16    15    16   am
    17     2     3   ar
    18    16    17    2
    19    16    18    1
    20     4     3   ar
    21    18    19    1
    22    18    20    1
