@<TRIPOS>MOLECULE
2qxh_K7J_A_1.pdb
 36 37 0 0 0
SMALL
GASTEIGER

@<TRIPOS>ATOM
      1  CBF        1.1390    0.2200   18.7160 C.ar  300  K7J300     -0.0042
      2  CBI        1.9120    0.4550   19.8470 C.ar  300  K7J300     -0.0003
      3  CBJ        2.0750    1.7540   20.3220 C.ar  300  K7J300     -0.0000
      4  CBK        1.4610    2.8120   19.6570 C.ar  300  K7J300     -0.0003
      5  CBH        0.6890    2.5740   18.5230 C.ar  300  K7J300     -0.0042
      6  CBG        0.5220    1.2760   18.0460 C.ar  300  K7J300     -0.0204
      7  CBD       -0.2920    0.9770   16.7830 C.3   300  K7J300      0.0506
      8  CAQ       -1.6400    1.7040   16.7180 C.3   300  K7J300      0.1299
      9  CAR       -2.3980    1.3860   15.4240 C.3   300  K7J300      0.1722
     10  OAE       -1.6600    1.9360   14.3280 O.3   300  K7J300     -0.2213
     11  CAS       -3.7990    2.0090   15.4240 C.3   300  K7J300      0.0374
     12  NAP       -2.4710    1.3940   17.8920 N.am  300  K7J300     -0.2028
     13  CAO       -3.0310    2.3690   18.6030 C.2   300  K7J300      0.2595
     14  OBC       -2.8850    3.5660   18.3600 O.2   300  K7J300     -0.2716
     15  CAN       -3.8670    1.9360   19.8130 C.3   300  K7J300      0.1535
     16  CBB       -5.3550    2.1390   19.5060 C.3   300  K7J300      0.0310
     17  CBA       -5.5070    3.6490   19.6960 C.3   300  K7J300      0.0237
     18  CAZ       -4.8020    3.7980   21.0450 C.3   300  K7J300      0.0939
     19  NAM       -3.6280    2.9230   20.8760 N.am  300  K7J300     -0.2716
     20  CAL       -2.5150    2.9650   21.6120 C.2   300  K7J300      0.2458
     21  OAY       -1.6390    2.1170   21.4510 O.2   300  K7J300     -0.2730
     22  CAK       -2.3430    4.0550   22.6730 C.3   300  K7J300      0.1713
     23  CAX       -1.3840    5.1240   22.1460 C.3   300  K7J300      0.0333
     24  NAJ       -1.8020    3.4710   23.9080 N.am  300  K7J300     -0.1964
     25  C         -2.3180    3.7950   25.0900 C.2   300  K7J300      0.2616
     26  O         -3.2440    4.5880   25.2410 O.2   300  K7J300     -0.2715
     27  CA        -1.6520    3.1360   26.3000 C.3   300  K7J300      0.1728
     28  CB        -2.6000    2.0900   26.8900 C.3   300  K7J300      0.0334
     29  N         -1.4120    4.2000   27.2840 N.am  300  K7J300     -0.1978
     30  CAF       -0.2240    4.7660   27.4770 C.2   300  K7J300      0.2423
     31  OAU        0.8020    4.4540   26.8780 O.2   300  K7J300     -0.2733
     32  CAE       -0.2110    5.8690   28.5390 C.3   300  K7J300      0.0986
     33  CAD        0.0820    5.3100   29.9330 C.3   300  K7J300      0.1237
     34  CAB        1.5450    4.8910   30.0800 C.2   300  K7J300      0.3654
     35  OAA        2.3850    5.4760   29.3590 O.co2 300  K7J300     -0.2456
     36  OAC        1.7880    3.9790   30.8980 O.co2 300  K7J300     -0.2456
@<TRIPOS>BOND
     1    10     9    1
     2     9    11    1
     3     9     8    1
     4     8     7    1
     5     8    12    1
     6     7     6    1
     7    12    13   am
     8     6     5   ar
     9     6     1   ar
    10    14    13    2
    11     5     4   ar
    12    13    15    1
    13     1     2   ar
    14    16    17    1
    15    16    15    1
    16     4     3   ar
    17    17    18    1
    18    15    19    1
    19     2     3   ar
    20    19    18    1
    21    19    20   am
    22    21    20    2
    23    20    22    1
    24    23    22    1
    25    22    24    1
    26    24    25   am
    27    25    26    2
    28    25    27    1
    29    27    28    1
    30    27    29    1
    31    31    30    2
    32    29    30   am
    33    30    32    1
    34    32    33    1
    35    35    34   ar
    36    33    34    1
    37    34    36   ar
