@<TRIPOS>MOLECULE
2qxi_K7J_A_1.pdb
 36 37 0 0 0
SMALL
GASTEIGER

@<TRIPOS>ATOM
      1  CBF        1.3180    0.2110   18.7180 C.ar  300  K7J300     -0.0042
      2  CBI        2.1280    0.5070   19.7810 C.ar  300  K7J300     -0.0003
      3  CBJ        2.1850    1.7770   20.3060 C.ar  300  K7J300     -0.0000
      4  CBK        1.4290    2.7840   19.7510 C.ar  300  K7J300     -0.0003
      5  CBH        0.6000    2.5100   18.6430 C.ar  300  K7J300     -0.0042
      6  CBG        0.5540    1.2290   18.1240 C.ar  300  K7J300     -0.0204
      7  CBD       -0.2790    0.8690   16.8930 C.3   300  K7J300      0.0506
      8  CAQ       -1.5650    1.6690   16.7490 C.3   300  K7J300      0.1299
      9  CAR       -2.2580    1.3180   15.4130 C.3   300  K7J300      0.1722
     10  OAE       -1.4860    1.8290   14.3470 O.3   300  K7J300     -0.2213
     11  CAS       -3.6830    1.9330   15.2830 C.3   300  K7J300      0.0374
     12  NAP       -2.4440    1.4250   17.8790 N.am  300  K7J300     -0.2028
     13  CAO       -2.9710    2.4170   18.6150 C.2   300  K7J300      0.2595
     14  OBC       -2.7980    3.6060   18.3150 O.2   300  K7J300     -0.2716
     15  CAN       -3.8360    2.0030   19.7710 C.3   300  K7J300      0.1535
     16  CBB       -5.3290    2.1410   19.4760 C.3   300  K7J300      0.0310
     17  CBA       -5.6220    3.5860   19.8200 C.3   300  K7J300      0.0237
     18  CAZ       -4.7650    3.8310   21.0340 C.3   300  K7J300      0.0939
     19  NAM       -3.6450    2.9440   20.8960 N.am  300  K7J300     -0.2716
     20  CAL       -2.5310    2.8860   21.6240 C.2   300  K7J300      0.2458
     21  OAY       -1.7070    1.9850   21.4840 O.2   300  K7J300     -0.2730
     22  CAK       -2.2010    3.9870   22.6210 C.3   300  K7J300      0.1713
     23  CAX       -0.9940    4.7380   22.0620 C.3   300  K7J300      0.0333
     24  NAJ       -1.9090    3.3200   23.8930 N.am  300  K7J300     -0.1964
     25  C         -2.2030    3.8650   25.0660 C.2   300  K7J300      0.2616
     26  O         -2.9080    4.8890   25.2160 O.2   300  K7J300     -0.2715
     27  CA        -1.6950    3.1060   26.2830 C.3   300  K7J300      0.1728
     28  CB        -2.7600    2.0810   26.7070 C.3   300  K7J300      0.0334
     29  N         -1.4700    4.0370   27.3720 N.am  300  K7J300     -0.1978
     30  CAF       -0.3590    4.7370   27.5040 C.2   300  K7J300      0.2423
     31  OAU        0.4720    4.5750   26.6360 O.2   300  K7J300     -0.2733
     32  CAE       -0.1850    5.6810   28.6500 C.3   300  K7J300      0.0986
     33  CAD        1.1700    6.0380   29.1130 C.3   300  K7J300      0.1237
     34  CAB        2.4400    5.2700   29.2850 C.2   300  K7J300      0.3654
     35  OAA        3.4830    5.5880   28.6540 O.co2 300  K7J300     -0.2456
     36  OAC        2.4970    4.3200   30.0990 O.co2 300  K7J300     -0.2456
@<TRIPOS>BOND
     1    10     9    1
     2    11     9    1
     3     9     8    1
     4     8     7    1
     5     8    12    1
     6     7     6    1
     7    12    13   am
     8     6     5   ar
     9     6     1   ar
    10    14    13    2
    11    13    15    1
    12     5     4   ar
    13     1     2   ar
    14    16    15    1
    15    16    17    1
    16     4     3   ar
    17    15    19    1
    18     2     3   ar
    19    17    18    1
    20    19    18    1
    21    19    20   am
    22    21    20    2
    23    20    22    1
    24    23    22    1
    25    22    24    1
    26    24    25   am
    27    25    26    2
    28    25    27    1
    29    27    28    1
    30    27    29    1
    31    31    30    2
    32    29    30   am
    33    30    32    1
    34    32    33    1
    35    35    34   ar
    36    33    34    1
    37    34    36   ar
