@<TRIPOS>MOLECULE
2qxj_K7J_A_1.pdb
 36 37 0 0 0
SMALL
GASTEIGER

@<TRIPOS>ATOM
      1  CBF       -3.5550   -7.4490    8.6710 C.ar  300  K7J300     -0.0042
      2  CBI       -4.9130   -7.3170    8.9420 C.ar  300  K7J300     -0.0003
      3  CBJ       -5.8510   -7.6460    7.9660 C.ar  300  K7J300     -0.0000
      4  CBK       -5.4300   -8.1300    6.7290 C.ar  300  K7J300     -0.0003
      5  CBH       -4.0720   -8.2600    6.4550 C.ar  300  K7J300     -0.0042
      6  CBG       -3.1340   -7.9070    7.4240 C.ar  300  K7J300     -0.0204
      7  CBD       -1.6280   -7.9570    7.1500 C.3   300  K7J300      0.0506
      8  CAQ       -1.1390   -9.2040    6.4110 C.3   300  K7J300      0.1299
      9  CAR        0.3860   -9.1660    6.3420 C.3   300  K7J300      0.1722
     10  OAE        0.7380   -8.1700    5.3810 O.3   300  K7J300     -0.2213
     11  CAS        0.9950  -10.5190    5.9570 C.3   300  K7J300      0.0374
     12  NAP       -1.5810  -10.4280    7.0940 N.am  300  K7J300     -0.2028
     13  CAO       -2.0650  -11.4740    6.4310 C.2   300  K7J300      0.2595
     14  OBC       -2.2330  -11.4960    5.2110 O.2   300  K7J300     -0.2716
     15  CAN       -2.4130  -12.6690    7.3220 C.3   300  K7J300      0.1535
     16  CBB       -1.4530  -13.8370    7.0660 C.3   300  K7J300      0.0310
     17  CBA       -2.1200  -14.5190    5.8710 C.3   300  K7J300      0.0237
     18  CAZ       -3.5590  -14.5680    6.3840 C.3   300  K7J300      0.0939
     19  NAM       -3.7230  -13.2130    6.9360 N.am  300  K7J300     -0.2716
     20  CAL       -4.8810  -12.5870    7.1370 C.2   300  K7J300      0.2458
     21  OAY       -4.8770  -11.4940    7.7020 O.2   300  K7J300     -0.2730
     22  CAK       -6.2060  -13.2150    6.6990 C.3   300  K7J300      0.1713
     23  CAX       -6.9650  -12.2330    5.8050 C.3   300  K7J300      0.0333
     24  NAJ       -6.9860  -13.5120    7.9090 N.am  300  K7J300     -0.1964
     25  C         -7.5670  -14.6850    8.1420 C.2   300  K7J300      0.2616
     26  O         -7.5130  -15.6600    7.3930 O.2   300  K7J300     -0.2715
     27  CA        -8.2930  -14.7420    9.4870 C.3   300  K7J300      0.1728
     28  CB        -7.5360  -15.6930   10.4160 C.3   300  K7J300      0.0334
     29  N         -9.6880  -15.1980    9.3750 N.am  300  K7J300     -0.1978
     30  CAF      -10.6410  -14.5700    8.6890 C.2   300  K7J300      0.2423
     31  OAU      -10.4730  -13.5380    8.0400 O.2   300  K7J300     -0.2733
     32  CAE      -12.0200  -15.2290    8.7680 C.3   300  K7J300      0.0986
     33  CAD      -12.2320  -16.2720    7.6690 C.3   300  K7J300      0.1237
     34  CAB      -12.7680  -17.5780    8.2600 C.2   300  K7J300      0.3654
     35  OAA      -13.5720  -17.4860    9.2130 O.co2 300  K7J300     -0.2456
     36  OAC      -12.3610  -18.6420    7.7460 O.co2 300  K7J300     -0.2456
@<TRIPOS>BOND
     1    14    13    2
     2    10     9    1
     3    23    22    1
     4    17    18    1
     5    17    16    1
     6    11     9    1
     7     9     8    1
     8    18    19    1
     9     8    12    1
    10     8     7    1
    11    13    12   am
    12    13    15    1
    13     5     4   ar
    14     5     6   ar
    15    22    20    1
    16    22    24    1
    17     4     3   ar
    18    19    20   am
    19    19    15    1
    20    16    15    1
    21    20    21    2
    22     7     6    1
    23    26    25    2
    24     6     1   ar
    25    33    34    1
    26    33    32    1
    27    36    34   ar
    28    24    25   am
    29     3     2   ar
    30    31    30    2
    31    25    27    1
    32    34    35   ar
    33     1     2   ar
    34    30    32    1
    35    30    29   am
    36    29    27    1
    37    27    28    1
