@<TRIPOS>MOLECULE
2qxl_ATP_A_1.pdb
 31 33 0 0 0
SMALL
GASTEIGER

@<TRIPOS>ATOM
      1  PG        74.3270   86.0710  -19.5480 P.3   1002  ATP1002     0.5373
      2  O1G       74.0580   87.0580  -18.4530 O.3   1002  ATP1002    -0.1143
      3  O2G       73.1370   85.7280  -20.4040 O.2   1002  ATP1002    -0.2221
      4  O3G       75.5890   86.3660  -20.3100 O.3   1002  ATP1002    -0.1143
      5  PB        75.9290   83.8830  -18.4490 P.3   1002  ATP1002     0.2277
      6  O1B       77.1330   84.6890  -18.8190 O.2   1002  ATP1002    -0.5168
      7  O2B       75.7880   83.4700  -17.0090 O.3   1002  ATP1002    -0.4368
      8  O3B       74.5590   84.6540  -18.8060 O.3   1002  ATP1002    -0.2258
      9  PA        76.9280   81.6460  -19.9490 P.3   1002  ATP1002     0.2189
     10  O1A       77.8620   81.4610  -18.7720 O.3   1002  ATP1002    -0.4371
     11  O2A       77.4700   82.1030  -21.2850 O.2   1002  ATP1002    -0.5170
     12  O3A       75.7380   82.6300  -19.4460 O.3   1002  ATP1002    -0.2700
     13  O5'       76.1570   80.2920  -20.3180 O.3   1002  ATP1002    -0.3112
     14  C5'       75.3960   79.6470  -19.3090 C.3   1002  ATP1002     0.1813
     15  C4'       74.1720   79.0500  -19.9630 C.3   1002  ATP1002     0.1821
     16  O4'       74.6810   78.2200  -20.9940 O.3   1002  ATP1002    -0.3135
     17  C3'       73.3630   78.1540  -19.0440 C.3   1002  ATP1002     0.2184
     18  O3'       71.9650   78.3280  -19.3070 O.3   1002  ATP1002    -0.2174
     19  C2'       73.7600   76.7650  -19.4790 C.3   1002  ATP1002     0.2570
     20  O2'       72.7460   75.7870  -19.2310 O.3   1002  ATP1002    -0.2130
     21  C1'       74.0280   76.9620  -20.9630 C.3   1002  ATP1002     0.3186
     22  N9        74.9080   75.8630  -21.4110 N.pl3 1002  ATP1002    -0.1439
     23  C8        76.1840   75.6530  -20.9990 C.3   1002  ATP1002     0.3377
     24  N7        76.6780   74.5380  -21.5880 N.2   1002  ATP1002    -0.2095
     25  C5        75.7030   74.0360  -22.3770 C.2   1002  ATP1002     0.2526
     26  C6        75.5450   72.8660  -23.2560 C.2   1002  ATP1002     0.4393
     27  N6        76.5840   72.0060  -23.4250 N.pl3 1002  ATP1002     0.2180
     28  N1        74.3560   72.7080  -23.9020 N.2   1002  ATP1002     0.0021
     29  C2        73.3200   73.5580  -23.7480 C.3   1002  ATP1002     0.5254
     30  N3        73.4020   74.6300  -22.9470 N.2   1002  ATP1002    -0.0055
     31  C4        74.5380   74.9130  -22.2590 C.2   1002  ATP1002     0.3518
@<TRIPOS>BOND
     1    28    29    1
     2    28    26    2
     3    29    30    1
     4    27    26    1
     5    26    25    1
     6    30    31    2
     7    25    31    1
     8    25    24    2
     9    31    22    1
    10    24    23    1
    11    22    23    1
    12    22    21    1
    13    11     9    2
    14    16    21    1
    15    16    15    1
    16    21    19    1
    17     3     1    2
    18    13     9    1
    19    13    14    1
    20     4     1    1
    21    15    14    1
    22    15    17    1
    23     9    12    1
    24     9    10    1
    25     1     8    1
    26     1     2    1
    27    19    20    1
    28    19    17    1
    29    12     5    1
    30    18    17    1
    31     6     5    2
    32     8     5    1
    33     5     7    1
