@<TRIPOS>MOLECULE
2qxm_PIQ_A_1.pdb
 17 19 0 0 0
SMALL
GASTEIGER

@<TRIPOS>ATOM
      1  N         -1.4320    3.3280   -4.5510 N.pl3   1  PIQ1       -0.0770
      2  C2        -0.2690    3.2480   -5.1720 C.cat   1  PIQ1        0.2919
      3  N1         0.8140    3.9160   -4.8300 N.pl3   1  PIQ1       -0.2370
      4  C7A        1.7920    3.5790   -5.6660 C.2     1  PIQ1        0.1300
      5  C7         3.1280    3.9510   -5.7860 C.2     1  PIQ1        0.0278
      6  C6         3.8720    3.3800   -6.8300 C.2     1  PIQ1        0.0219
      7  C1'        5.2180    3.7300   -6.9830 C.ar    1  PIQ1        0.0016
      8  C2'        5.8260    4.5760   -6.0610 C.ar    1  PIQ1        0.0000
      9  C3'        7.1630    4.9260   -6.2130 C.ar    1  PIQ1        0.0000
     10  C4'        7.8890    4.4540   -7.3030 C.ar    1  PIQ1        0.0000
     11  C5'        7.2860    3.6180   -8.2330 C.ar    1  PIQ1        0.0000
     12  C6'        5.9540    3.2670   -8.0680 C.ar    1  PIQ1        0.0000
     13  N3        -0.0270    2.4800   -6.2310 N.2     1  PIQ1       -0.3153
     14  CM         0.9180    4.8470   -3.6670 C.3     1  PIQ1        0.1218
     15  C3A        1.2500    2.6580   -6.5700 C.1     1  PIQ1        0.1048
     16  N4         2.0000    2.1290   -7.5590 N.2     1  PIQ1       -0.1812
     17  C5         3.2710    2.4640   -7.7000 C.2     1  PIQ1        0.1106
@<TRIPOS>BOND
     1    11    12   ar
     2    11    10   ar
     3    12     7   ar
     4    17    16    1
     5    17     6    2
     6    16    15    2
     7    10     9   ar
     8     7     6    1
     9     7     8   ar
    10     6     5    1
    11    15    13    2
    12    15     4    1
    13    13     2    2
    14     9     8   ar
    15     5     4    2
    16     4     3    1
    17     2     3    1
    18     2     1    1
    19     3    14    1
