@<TRIPOS>MOLECULE
2qxs_RAL_A_1.pdb
 34 38 0 0 0
SMALL
GASTEIGER

@<TRIPOS>ATOM
      1  C1        44.5780   -0.5720   16.5810 C.ar  600  RAL600      0.0039
      2  C2        44.6000    0.8200   16.6580 C.ar  600  RAL600      0.0421
      3  C3        43.4920    1.6080   16.3280 C.ar  600  RAL600      0.1962
      4  O3        43.6390    2.9510   16.4490 O.3   600  RAL600     -0.2866
      5  C4        42.2740    1.0600   15.8750 C.ar  600  RAL600      0.0485
      6  C5        42.1870   -0.3310   15.7770 C.ar  600  RAL600      0.0327
      7  S6        40.8350   -1.2030   15.2450 S.2   600  RAL600     -0.0867
      8  C7        41.6150   -2.7420   15.4440 C.ar  600  RAL600      0.0325
      9  C8        40.9560   -4.0190   15.0780 C.ar  600  RAL600      0.0063
     10  C9        40.3770   -4.1010   13.7960 C.ar  600  RAL600      0.0038
     11  C10       39.8080   -5.3010   13.3730 C.ar  600  RAL600      0.0420
     12  C11       39.8370   -6.3980   14.2340 C.ar  600  RAL600      0.1957
     13  O11       39.3030   -7.5710   13.8110 O.3   600  RAL600     -0.2866
     14  C12       40.4300   -6.3280   15.4890 C.ar  600  RAL600      0.0420
     15  C13       41.0140   -5.1360   15.9180 C.ar  600  RAL600      0.0038
     16  C14       43.3780   -1.1430   16.1280 C.ar  600  RAL600      0.0098
     17  C15       42.9930   -2.5390   15.9020 C.ar  600  RAL600      0.0454
     18  C16       43.9500   -3.6370   16.1760 C.2   600  RAL600      0.1960
     19  O16       44.4080   -4.2840   15.2640 O.2   600  RAL600     -0.2866
     20  C17       44.2820   -3.9200   17.5960 C.ar  600  RAL600      0.0392
     21  C18       45.3870   -4.7040   17.9090 C.ar  600  RAL600      0.0063
     22  C19       45.6890   -4.9620   19.2460 C.ar  600  RAL600      0.0370
     23  C20       44.8970   -4.3980   20.2570 C.ar  600  RAL600      0.1386
     24  C21       43.7950   -3.6120   19.9210 C.ar  600  RAL600      0.0370
     25  C22       43.4860   -3.3580   18.5960 C.ar  600  RAL600      0.0063
     26  O23       45.1570   -4.6330   21.5920 O.3   600  RAL600     -0.4740
     27  C24       46.4230   -5.1250   21.9940 C.3   600  RAL600      0.2226
     28  C25       46.3410   -5.4820   23.4650 C.3   600  RAL600      0.1200
     29  N26       46.6310   -4.3010   24.2730 N.3   600  RAL600     -0.2696
     30  C27       46.9840   -4.8140   25.6160 C.3   600  RAL600      0.0722
     31  C28       47.2830   -3.7070   26.6130 C.3   600  RAL600      0.0174
     32  C29       46.0790   -2.7680   26.6700 C.3   600  RAL600      0.0029
     33  C30       45.6560   -2.2640   25.2850 C.3   600  RAL600      0.0174
     34  C31       45.4260   -3.4410   24.3200 C.3   600  RAL600      0.0722
@<TRIPOS>BOND
     1    11    10   ar
     2    11    12   ar
     3    10     9   ar
     4    13    12    1
     5    12    14   ar
     6     9     8    1
     7     9    15   ar
     8     7     8   ar
     9     7     6   ar
    10    19    18    2
    11     8    17   ar
    12    14    15   ar
    13     6     5   ar
    14     6    16   ar
    15     5     3   ar
    16    17    16   ar
    17    17    18    1
    18    16     1   ar
    19    18    20    1
    20     3     4    1
    21     3     2   ar
    22     1     2   ar
    23    20    21   ar
    24    20    25   ar
    25    21    22   ar
    26    25    24   ar
    27    22    23   ar
    28    24    23   ar
    29    23    26    1
    30    26    27    1
    31    27    28    1
    32    28    29    1
    33    29    34    1
    34    29    30    1
    35    34    33    1
    36    33    32    1
    37    30    31    1
    38    31    32    1
