@<TRIPOS>MOLECULE
2qxw_NDP_A_1.pdb
 48 52 0 0 0
SMALL
GASTEIGER

@<TRIPOS>ATOM
      1  PA        22.7560   -4.7200   26.9820 P.3   318  NDP318      0.2189
      2  O1A       23.6680   -3.6560   26.4960 O.2   318  NDP318     -0.5170
      3  O2A       21.6630   -4.3980   27.9230 O.3   318  NDP318     -0.4371
      4  O5B       23.6980   -5.8950   27.5140 O.3   318  NDP318     -0.3112
      5  C5B       23.1100   -7.1210   27.9990 C.3   318  NDP318      0.1813
      6  C4B       24.2600   -8.0340   28.3550 C.3   318  NDP318      0.1820
      7  O4B       25.0330   -7.4220   29.4220 O.3   318  NDP318     -0.3136
      8  C3B       23.8870   -9.4220   28.8250 C.3   318  NDP318      0.2157
      9  O3B       24.8510  -10.3440   28.3230 O.3   318  NDP318     -0.2175
     10  C2B       24.0120   -9.3110   30.3530 C.3   318  NDP318      0.2314
     11  O2B       24.3480  -10.5630   30.9470 O.3   318  NDP318     -0.2630
     12  C1B       25.1570   -8.3360   30.5180 C.3   318  NDP318      0.3158
     13  N9A       25.1310   -7.5720   31.7420 N.pl3 318  NDP318     -0.1439
     14  C8A       24.0320   -6.9470   32.2990 C.3   318  NDP318      0.3377
     15  N7A       24.3000   -6.3060   33.4040 N.2   318  NDP318     -0.2095
     16  C5A       25.6510   -6.5090   33.5910 C.2   318  NDP318      0.2526
     17  C6A       26.4990   -6.1000   34.6230 C.2   318  NDP318      0.4393
     18  N6A       26.0790   -5.3750   35.6710 N.pl3 318  NDP318      0.2180
     19  N1A       27.7810   -6.5180   34.5210 N.2   318  NDP318      0.0021
     20  C2A       28.1950   -7.2420   33.4640 C.3   318  NDP318      0.5254
     21  N3A       27.4590   -7.6930   32.4560 N.2   318  NDP318     -0.0055
     22  C4A       26.1710   -7.2870   32.5680 C.2   318  NDP318      0.3518
     23  O3        22.1470   -5.4380   25.6620 O.3   318  NDP318     -0.2703
     24  PN        20.7530   -5.5600   24.8960 P.3   318  NDP318      0.2189
     25  O1N       19.9730   -6.6990   25.4800 O.3   318  NDP318     -0.4371
     26  O2N       21.0780   -5.5720   23.4460 O.2   318  NDP318     -0.5170
     27  O5D       20.0080   -4.1600   25.1460 O.3   318  NDP318     -0.3112
     28  C5D       19.1300   -3.9410   26.2740 C.3   318  NDP318      0.1813
     29  C4D       17.6880   -4.0620   25.8700 C.3   318  NDP318      0.1799
     30  O4D       17.3460   -3.0490   24.8830 O.3   318  NDP318     -0.3327
     31  C3D       17.2740   -5.3540   25.1700 C.3   318  NDP318      0.2158
     32  O3D       17.2240   -6.4730   26.0270 O.3   318  NDP318     -0.2175
     33  C2D       15.9270   -4.9460   24.5810 C.3   318  NDP318      0.2309
     34  O2D       14.9860   -4.9210   25.6350 O.3   318  NDP318     -0.2158
     35  C1D       16.2820   -3.5240   24.0870 C.3   318  NDP318      0.2263
     36  N1N       16.7230   -3.4950   22.6570 N.pl3 318  NDP318     -0.2787
     37  C2N       15.8810   -2.9820   21.7260 C.3   318  NDP318      0.1244
     38  C3N       16.2150   -2.9510   20.3900 C.2   318  NDP318      0.0544
     39  C7N       15.3400   -2.2780   19.3630 C.2   318  NDP318      0.2818
     40  O7N       15.5340   -2.5070   18.1630 O.2   318  NDP318     -0.2670
     41  N7N       14.4000   -1.4440   19.8340 N.am  318  NDP318     -0.0839
     42  C4N       17.4230   -3.5150   19.9840 C.2   318  NDP318      0.0033
     43  C5N       18.2960   -4.0140   20.9350 C.2   318  NDP318      0.0157
     44  C6N       17.9570   -3.9700   22.2790 C.2   318  NDP318      0.0633
     45  P2B       23.3290  -11.4590   31.8110 P.3   318  NDP318      0.5328
     46  O1X       21.9500  -11.2480   31.2640 O.2   318  NDP318     -0.2224
     47  O2X       23.9320  -12.8410   31.6010 O.3   318  NDP318     -0.1145
     48  O3X       23.4590  -10.9980   33.2470 O.3   318  NDP318     -0.1145
@<TRIPOS>BOND
     1    40    39    2
     2    39    41   am
     3    39    38    1
     4    42    38    2
     5    42    43    1
     6    38    37    1
     7    43    44    2
     8    37    36    1
     9    44    36    1
    10    36    35    1
    11    26    24    2
    12    35    33    1
    13    35    30    1
    14    33    31    1
    15    33    34    1
    16    30    29    1
    17    24    27    1
    18    24    25    1
    19    24    23    1
    20    27    28    1
    21    31    29    1
    22    31    32    1
    23    23     1    1
    24    29    28    1
    25     2     1    2
    26     1     4    1
    27     1     3    1
    28     4     5    1
    29     5     6    1
    30     9     8    1
    31     6     8    1
    32     6     7    1
    33     8    10    1
    34     7    12    1
    35    10    12    1
    36    10    11    1
    37    12    13    1
    38    11    45    1
    39    46    45    2
    40    47    45    1
    41    13    14    1
    42    13    22    1
    43    45    48    1
    44    14    15    1
    45    21    22    2
    46    21    20    1
    47    22    16    1
    48    15    16    2
    49    20    19    1
    50    16    17    1
    51    19    17    2
    52    17    18    1
