@<TRIPOS>MOLECULE
2qxw_LDT_A_1.pdb
 24 25 0 0 0
SMALL
GASTEIGER

@<TRIPOS>ATOM
      1  C2        15.7840   -9.4260   18.2040 C.ar  320  LDT320      0.0666
      2  C3        16.0910  -10.3270   15.5920 C.ar  320  LDT320      0.0071
      3  C4        16.6620   -8.7560   17.3370 C.ar  320  LDT320      0.1433
      4  C5        15.0860  -10.5120   17.7070 C.ar  320  LDT320      0.1432
      5  C6        15.2120  -10.9940   16.4340 C.ar  320  LDT320      0.0299
      6  C7        16.8050   -9.2010   15.9990 C.ar  320  LDT320      0.0556
      7 BR8        14.9540   -3.7270    9.7440 Br    320  LDT320     -0.0489
      8  F9        14.2550  -11.1360   18.5820 F     320  LDT320     -0.2041
      9  C11       17.6790   -8.4930   15.0260 C.2   320  LDT320      0.1039
     10  C13       18.3590   -6.3150   14.2060 C.3   320  LDT320      0.1414
     11  F14       19.2930   -4.3320   12.5110 F     320  LDT320     -0.2044
     12  O15       17.4730   -7.7430   17.7580 O.3   320  LDT320     -0.4636
     13  S16       18.6130   -9.3630   13.9390 S.2   320  LDT320     -0.0331
     14  N17       17.6150   -7.1730   15.0860 N.am  320  LDT320     -0.2257
     15  C20       16.9740   -6.8720   18.7460 C.3   320  LDT320      0.3186
     16  C24       17.5200   -5.7560   13.0790 C.ar  320  LDT320      0.0269
     17  C25       16.0300   -4.5960   11.0320 C.ar  320  LDT320      0.0368
     18  C26       16.2160   -6.1840   12.8220 C.ar  320  LDT320      0.0002
     19  C27       18.0290   -4.7580   12.2560 C.ar  320  LDT320      0.1383
     20  C28       17.3160   -4.1700   11.2360 C.ar  320  LDT320      0.0361
     21  C29       15.4450   -5.6070   11.8010 C.ar  320  LDT320      0.0066
     22  C32       15.8120   -5.9940   18.2370 C.2   320  LDT320      0.4084
     23  O33       15.1140   -5.4780   19.1420 O.co2 320  LDT320     -0.2415
     24  O34       15.6790   -5.8740   16.9990 O.co2 320  LDT320     -0.2415
@<TRIPOS>BOND
     1     7    17    1
     2    17    20   ar
     3    17    21   ar
     4    20    19   ar
     5    21    18   ar
     6    19    11    1
     7    19    16   ar
     8    18    16   ar
     9    16    10    1
    10    13     9    2
    11    10    14    1
    12     9    14    1
    13     9     6    1
    14     2     6   ar
    15     2     5   ar
    16     6     3   ar
    17     5     4   ar
    18    24    22   ar
    19     3    12    1
    20     3     1   ar
    21     4     1   ar
    22     4     8    1
    23    12    15    1
    24    22    15    1
    25    22    23   ar
