@<TRIPOS>MOLECULE
2qxx_TTP_A_1.pdb
 29 30 0 0 0
SMALL
GASTEIGER

@<TRIPOS>ATOM
      1  PA       -13.0790  -21.6180   -0.1000 P.3   201  TTP201      0.2189
      2  O1A      -12.5410  -21.0000    1.1700 O.3   201  TTP201     -0.4371
      3  O2A      -13.9970  -20.6890   -0.8340 O.2   201  TTP201     -0.5170
      4  O3A      -13.8340  -23.0200    0.1340 O.3   201  TTP201     -0.2700
      5  PB       -14.6210  -23.5480    1.4270 P.3   201  TTP201      0.2277
      6  O1B      -15.9860  -24.0390    1.0760 O.2   201  TTP201     -0.5168
      7  O2B      -14.7060  -22.4870    2.4930 O.3   201  TTP201     -0.4368
      8  O3B      -13.7020  -24.7710    1.9240 O.3   201  TTP201     -0.2258
      9  PG       -12.4960  -24.6430    2.9990 P.3   201  TTP201      0.5373
     10  O1G      -12.9880  -25.1390    4.3450 O.3   201  TTP201     -0.1143
     11  O2G      -11.3990  -25.5250    2.4810 O.2   201  TTP201     -0.2221
     12  O3G      -11.9910  -23.2210    3.1070 O.3   201  TTP201     -0.1143
     13  O5'      -11.8730  -22.0980   -1.0430 O.3   201  TTP201     -0.3112
     14  C5'      -10.9100  -22.9980   -0.5090 C.3   201  TTP201      0.1812
     15  C4'       -9.8220  -23.2030   -1.5390 C.3   201  TTP201      0.1773
     16  O4'      -10.3650  -23.8310   -2.6940 O.3   201  TTP201     -0.3339
     17  C3'       -9.2560  -21.8870   -2.0510 C.3   201  TTP201      0.1857
     18  O3'       -8.2400  -21.3310   -1.1980 O.3   201  TTP201     -0.2203
     19  C2'       -8.7130  -22.2800   -3.4150 C.3   201  TTP201      0.0874
     20  C1'       -9.6590  -23.3990   -3.8580 C.3   201  TTP201      0.2090
     21  N1       -10.5850  -22.8830   -4.8820 N.am  201  TTP201     -0.1794
     22  C2       -10.9310  -23.6770   -5.9990 C.1   201  TTP201      0.2844
     23  O2       -10.4720  -24.8380   -6.1010 O.2   201  TTP201     -0.1918
     24  N3       -11.7550  -23.2190   -6.9450 N.2   201  TTP201     -0.2455
     25  C4       -12.2770  -21.9860   -6.8760 C.1   201  TTP201      0.2134
     26  O4       -13.0550  -21.5430   -7.7520 O.2   201  TTP201     -0.2088
     27  C5       -11.9340  -21.1280   -5.7220 C.2   201  TTP201      0.0891
     28  C5M      -12.4970  -19.7350   -5.6310 C.3   201  TTP201      0.0462
     29  C6       -11.0710  -21.6360   -4.7630 C.2   201  TTP201      0.0877
@<TRIPOS>BOND
     1    26    25    2
     2    24    25    2
     3    24    22    2
     4    25    27    1
     5    23    22    2
     6    22    21   am
     7    27    28    1
     8    27    29    2
     9    21    29    1
    10    21    20    1
    11    20    19    1
    12    20    16    1
    13    19    17    1
    14    16    15    1
    15    17    15    1
    16    17    18    1
    17    15    14    1
    18    13    14    1
    19    13     1    1
    20     3     1    2
    21     1     4    1
    22     1     2    1
    23     4     5    1
    24     6     5    2
    25     5     8    1
    26     5     7    1
    27     8     9    1
    28    11     9    2
    29     9    12    1
    30     9    10    1
