@<TRIPOS>MOLECULE
2qyk_NPV_A_1.pdb
 28 31 0 0 0
SMALL
GASTEIGER

@<TRIPOS>ATOM
      1  C4        94.6300   66.2770   16.2820 C.ar    3  NPV3        0.0798
      2  C5        95.4300   67.2380   16.8900 C.ar    3  NPV3        0.0066
      3  C6        96.0440   66.9680   18.1080 C.ar    3  NPV3        0.0024
      4  C7        95.8570   65.7330   18.7210 C.ar    3  NPV3        0.0257
      5  C9        94.4480   65.0410   16.8910 C.ar    3  NPV3        0.0066
      6  C10       96.4370   65.4420   19.9490 C.2     3  NPV3        0.1134
      7  C15       98.7060   65.3040   24.3190 C.ar    3  NPV3        0.0989
      8  C11       97.1100   66.4150   20.6800 C.3     3  NPV3        0.0868
      9  C12       97.6570   66.0750   21.9120 C.ar    3  NPV3        0.0051
     10  C13       98.3410   67.0140   22.6750 C.ar    3  NPV3       -0.0007
     11  C3        93.9840   66.5500   15.0930 C.2     3  NPV3        0.3878
     12  O1        93.3140   65.6330   14.5710 O.co2   3  NPV3       -0.2406
     13  O2        94.0930   67.6990   14.6110 O.co2   3  NPV3       -0.2406
     14  C8        95.0610   64.7710   18.1090 C.ar    3  NPV3        0.0024
     15  N19       96.3230   64.1960   20.4330 N.2     3  NPV3       -0.4044
     16  C14       98.8720   66.6180   23.8970 C.ar    3  NPV3        0.0204
     17  N16       98.0500   64.4320   23.5730 N.ar    3  NPV3       -0.2416
     18  C17       97.5240   64.7760   22.3890 C.ar    3  NPV3        0.1072
     19  C18       96.8420   63.8410   21.6150 C.2     3  NPV3        0.1482
     20  C20       96.7280   62.5160   22.0200 C.ar    3  NPV3        0.0327
     21  C25       96.9400   61.5090   21.0860 C.ar    3  NPV3        0.0267
     22  C21       96.4150   62.1880   23.3350 C.ar    3  NPV3        0.0027
     23  C22       96.3190   60.8530   23.7100 C.ar    3  NPV3        0.0018
     24  C23       96.5350   59.8470   22.7750 C.ar    3  NPV3        0.0241
     25  C24       96.8450   60.1730   21.4600 C.ar    3  NPV3        0.1430
     26  N26       97.0600   59.2200   20.5560 N.pl3   3  NPV3        0.0577
     27  O27       96.9830   58.0530   20.8690 O.2     3  NPV3       -0.1261
     28  O28       97.3310   59.5200   19.4160 O.2     3  NPV3       -0.1261
@<TRIPOS>BOND
     1    12    11   ar
     2    13    11   ar
     3    11     1    1
     4     1     2   ar
     5     1     5   ar
     6     2     3   ar
     7     5    14   ar
     8     3     4   ar
     9    14     4   ar
    10     4     6    1
    11    28    26    2
    12     6    15    2
    13     6     8    1
    14    15    19    2
    15    26    27    2
    16    26    25    1
    17     8     9    1
    18    21    25   ar
    19    21    20   ar
    20    25    24   ar
    21    19    20    1
    22    19    18    1
    23     9    18   ar
    24     9    10   ar
    25    20    22   ar
    26    18    17   ar
    27    10    16   ar
    28    24    23   ar
    29    22    23   ar
    30    17     7   ar
    31    16     7   ar
