@<TRIPOS>MOLECULE
2qyl_NPV_A_1.pdb
 28 31 0 0 0
SMALL
GASTEIGER

@<TRIPOS>ATOM
      1  C4        38.7750   31.0060   -5.3300 C.ar    1  NPV1        0.0798
      2  C5        39.5680   30.5550   -4.2790 C.ar    1  NPV1        0.0066
      3  C6        39.5690   31.2310   -3.0630 C.ar    1  NPV1        0.0024
      4  C7        38.7730   32.3590   -2.8940 C.ar    1  NPV1        0.0257
      5  C9        37.9830   32.1360   -5.1630 C.ar    1  NPV1        0.0066
      6  C10       38.7190   33.0430   -1.6850 C.2     1  NPV1        0.1134
      7  C15       39.3540   35.1490    2.7220 C.ar    1  NPV1        0.0989
      8  C11       39.7040   32.8910   -0.7140 C.3     1  NPV1        0.0868
      9  C12       39.6140   33.6360    0.4560 C.ar    1  NPV1        0.0051
     10  C13       40.5750   33.5200    1.4530 C.ar    1  NPV1       -0.0007
     11  C3        38.7530   30.3360   -6.5370 C.2     1  NPV1        0.3878
     12  O1        38.0530   30.8140   -7.4570 O.co2   1  NPV1       -0.2406
     13  O2        39.4250   29.2880   -6.6440 O.co2   1  NPV1       -0.2406
     14  C8        37.9840   32.8100   -3.9470 C.ar    1  NPV1        0.0024
     15  N19       37.7020   33.8940   -1.4820 N.2     1  NPV1       -0.4044
     16  C14       40.4390   34.2890    2.6030 C.ar    1  NPV1        0.0204
     17  N16       38.4540   35.2420    1.7580 N.ar    1  NPV1       -0.2416
     18  C17       38.5510   34.5150    0.6360 C.ar    1  NPV1        0.1072
     19  C18       37.5920   34.6250   -0.3650 C.2     1  NPV1        0.1482
     20  C20       36.5100   35.4900   -0.2410 C.ar    1  NPV1        0.0327
     21  C25       35.2330   35.0290   -0.5360 C.ar    1  NPV1        0.0267
     22  C21       36.7060   36.8250    0.0980 C.ar    1  NPV1        0.0027
     23  C22       35.6240   37.6960    0.1340 C.ar    1  NPV1        0.0018
     24  C23       34.3460   37.2340   -0.1670 C.ar    1  NPV1        0.0241
     25  C24       34.1490   35.9010   -0.5040 C.ar    1  NPV1        0.1430
     26  N26       32.9320   35.4590   -0.8120 N.pl3   1  NPV1        0.0577
     27  O27       31.9870   36.2130   -0.7920 O.2     1  NPV1       -0.1261
     28  O28       32.7640   34.2980   -1.1070 O.2     1  NPV1       -0.1261
@<TRIPOS>BOND
     1    12    11   ar
     2    13    11   ar
     3    11     1    1
     4     1     5   ar
     5     1     2   ar
     6     5    14   ar
     7     2     3   ar
     8    14     4   ar
     9     3     4   ar
    10     4     6    1
    11     6    15    2
    12     6     8    1
    13    15    19    2
    14    28    26    2
    15    26    27    2
    16    26    25    1
    17     8     9    1
    18    21    25   ar
    19    21    20   ar
    20    25    24   ar
    21    19    20    1
    22    19    18    1
    23    20    22   ar
    24    24    23   ar
    25    22    23   ar
    26     9    18   ar
    27     9    10   ar
    28    18    17   ar
    29    10    16   ar
    30    17     7   ar
    31    16     7   ar
