@<TRIPOS>MOLECULE
2qyn_NPV_A_1.pdb
 28 31 0 0 0
SMALL
GASTEIGER

@<TRIPOS>ATOM
      1  C4         4.4730   -0.5910   51.8820 C.ar    1  NPV1        0.0798
      2  C5         5.5880   -0.2750   52.6530 C.ar    1  NPV1        0.0066
      3  C6         5.7090   -0.7650   53.9500 C.ar    1  NPV1        0.0024
      4  C7         4.7140   -1.5760   54.4870 C.ar    1  NPV1        0.0257
      5  C9         3.4770   -1.3980   52.4190 C.ar    1  NPV1        0.0066
      6  C10        4.8040   -2.1070   55.7710 C.2     1  NPV1        0.1134
      7  C15        5.4420   -3.1670   60.5440 C.ar    1  NPV1        0.0989
      8  C11        5.5990   -1.5290   56.7550 C.3     1  NPV1        0.0868
      9  C12        5.5790   -2.0630   58.0400 C.ar    1  NPV1        0.0051
     10  C13        6.3410   -1.5070   59.0610 C.ar    1  NPV1       -0.0007
     11  C3         4.3520   -0.1420   50.5810 C.2     1  NPV1        0.3878
     12  O1         3.2980   -0.4170   49.9680 O.co2   1  NPV1       -0.2406
     13  O2         5.2970    0.5030   50.0780 O.co2   1  NPV1       -0.2406
     14  C8         3.5990   -1.8870   53.7150 C.ar    1  NPV1        0.0024
     15  N19        4.0430   -3.1710   56.0680 N.2     1  NPV1       -0.4044
     16  C14        6.2700   -2.0690   60.3310 C.ar    1  NPV1        0.0204
     17  N16        4.7290   -3.6760   59.5560 N.ar    1  NPV1       -0.2416
     18  C17        4.7730   -3.1610   58.3180 C.ar    1  NPV1        0.1072
     19  C18        4.0060   -3.7080   57.2950 C.2     1  NPV1        0.1482
     20  C20        3.2150   -4.8320   57.5090 C.ar    1  NPV1        0.0327
     21  C25        3.2940   -5.8980   56.6200 C.ar    1  NPV1        0.0267
     22  C21        2.3330   -4.8900   58.5820 C.ar    1  NPV1        0.0027
     23  C22        1.5340   -6.0130   58.7640 C.ar    1  NPV1        0.0018
     24  C23        1.6140   -7.0780   57.8750 C.ar    1  NPV1        0.0241
     25  C24        2.4940   -7.0210   56.8000 C.ar    1  NPV1        0.1430
     26  N26        2.5650   -8.0330   55.9380 N.pl3   1  NPV1        0.0577
     27  O27        1.8700   -9.0120   56.0930 O.2     1  NPV1       -0.1261
     28  O28        3.3230   -7.9760   54.9960 O.2     1  NPV1       -0.1261
@<TRIPOS>BOND
     1    12    11   ar
     2    13    11   ar
     3    11     1    1
     4     1     5   ar
     5     1     2   ar
     6     5    14   ar
     7     2     3   ar
     8    14     4   ar
     9     3     4   ar
    10     4     6    1
    11    28    26    2
    12     6    15    2
    13     6     8    1
    14    26    27    2
    15    26    25    1
    16    15    19    2
    17    21    25   ar
    18    21    20   ar
    19     8     9    1
    20    25    24   ar
    21    19    20    1
    22    19    18    1
    23    20    22   ar
    24    24    23   ar
    25     9    18   ar
    26     9    10   ar
    27    18    17   ar
    28    22    23   ar
    29    10    16   ar
    30    17     7   ar
    31    16     7   ar
