@<TRIPOS>MOLECULE
2qyo_SAH_A_1.pdb
 26 28 0 0 0
SMALL
GASTEIGER

@<TRIPOS>ATOM
      1  N          5.8030   -2.3800   -3.9250 N.3   601  SAH601     -0.1208
      2  CA         4.6450   -1.7550   -3.1330 C.3   601  SAH601      0.1952
      3  CB         3.9290   -2.5500   -2.2330 C.3   601  SAH601      0.0422
      4  CG         3.3850   -3.7180   -2.7300 C.3   601  SAH601      0.0597
      5  SD         1.5920   -3.7210   -2.3580 S.3   601  SAH601     -0.1375
      6  C          5.2030   -0.5040   -2.3570 C.2   601  SAH601      0.3819
      7  O          6.4060   -0.2120   -2.4600 O.co2 601  SAH601     -0.2441
      8  OXT        4.3400    0.1410   -1.6490 O.co2 601  SAH601     -0.2441
      9  C5'        1.2780   -5.2870   -3.0460 C.3   601  SAH601      0.0899
     10  C4'        1.2120   -5.1540   -4.6380 C.3   601  SAH601      0.1630
     11  O4'        0.9960   -6.4960   -5.0690 O.3   601  SAH601     -0.3153
     12  C3'        0.0230   -4.3960   -5.1940 C.3   601  SAH601      0.2168
     13  O3'        0.4470   -3.2690   -5.9610 O.3   601  SAH601     -0.2175
     14  C2'       -0.7260   -5.5220   -6.0180 C.3   601  SAH601      0.2569
     15  O2'       -1.4890   -5.0220   -7.0960 O.3   601  SAH601     -0.2130
     16  C1'        0.4350   -6.4200   -6.4120 C.3   601  SAH601      0.3185
     17  N9         0.1330   -7.6540   -6.8400 N.pl3 601  SAH601     -0.1439
     18  C8        -0.6580   -8.6740   -6.3400 C.3   601  SAH601      0.3377
     19  N7        -0.6930   -9.7490   -7.0650 N.2   601  SAH601     -0.2095
     20  C5         0.1500   -9.4570   -8.1700 C.2   601  SAH601      0.2526
     21  C6         0.5200  -10.2440   -9.3180 C.2   601  SAH601      0.4393
     22  N6         0.0820  -11.4940   -9.5390 N.pl3 601  SAH601      0.2180
     23  N1         1.3720   -9.6170  -10.1970 N.2   601  SAH601      0.0021
     24  C2         1.8450   -8.3480  -10.0150 C.3   601  SAH601      0.5254
     25  N3         1.5150   -7.5650   -8.9330 N.2   601  SAH601     -0.0055
     26  C4         0.6650   -8.1840   -8.0530 C.2   601  SAH601      0.3518
@<TRIPOS>BOND
     1    23    24    1
     2    23    21    2
     3    24    25    1
     4    22    21    1
     5    21    20    1
     6    25    26    2
     7    20    26    1
     8    20    19    2
     9    26    17    1
    10    15    14    1
    11    19    18    1
    12    17    16    1
    13    17    18    1
    14    16    14    1
    15    16    11    1
    16    14    12    1
    17    13    12    1
    18    12    10    1
    19    11    10    1
    20    10     9    1
    21     1     2    1
    22     2     6    1
    23     2     3    1
    24     9     5    1
    25     4     5    1
    26     4     3    1
    27     7     6   ar
    28     6     8   ar
