@<TRIPOS>MOLECULE
2qyo_QSO_A_1.pdb
 21 23 0 0 0
SMALL
GASTEIGER

@<TRIPOS>ATOM
      1  C2        -2.0560   -3.1840   10.7900 C.ar  701  QSO701      0.1826
      2  C4        -2.9190   -1.1640    9.6510 C.ar  701  QSO701      0.2047
      3  O4        -5.3860    0.0570   14.6970 O.3   701  QSO701     -0.2864
      4  C4A       -3.5940   -0.7960   10.9600 C.ar  701  QSO701      0.1126
      5  C8A       -3.4080   -1.7070   12.0680 C.ar  701  QSO701      0.1548
      6  C7        -4.8160   -0.2110   13.4960 C.ar  701  QSO701      0.2020
      7  C6        -4.9740    0.6550   12.3810 C.ar  701  QSO701      0.0843
      8  C5        -4.3870    0.4030   11.1080 C.ar  701  QSO701      0.2049
      9  C8        -4.0310   -1.3790   13.3080 C.ar  701  QSO701      0.0798
     10  C3        -2.1110   -2.4530    9.6310 C.ar  701  QSO701      0.0767
     11  O1        -2.6660   -2.8660   11.9930 O.2   701  QSO701     -0.4500
     12  C1'       -1.4030   -2.8960    8.3940 C.ar  701  QSO701      0.0063
     13  O2        -3.0090   -0.4610    8.6410 O.2   701  QSO701     -0.2862
     14  C2'       -2.0940   -3.2990    7.2100 C.ar  701  QSO701      0.0033
     15  C3'       -1.3810   -3.7140    6.0500 C.ar  701  QSO701      0.0369
     16  C4'        0.0560   -3.7490    6.0110 C.ar  701  QSO701      0.1387
     17  C5'        0.7400   -3.3430    7.1990 C.ar  701  QSO701      0.0369
     18  C6'        0.0330   -2.9260    8.3630 C.ar  701  QSO701      0.0033
     19  O5         0.7490   -4.1490    4.8870 O.3   701  QSO701     -0.4714
     20  O3        -4.6050    1.3060   10.1060 O.3   701  QSO701     -0.2862
     21  CM         0.7070   -5.5450    4.6260 C.3   701  QSO701      0.2525
@<TRIPOS>BOND
     1    21    19    1
     2    19    16    1
     3    16    15   ar
     4    16    17   ar
     5    15    14   ar
     6    17    18   ar
     7    14    12   ar
     8    18    12   ar
     9    12    10    1
    10    13     2    2
    11    10     2   ar
    12    10     1   ar
    13     2     4   ar
    14    20     8    1
    15     1    11   ar
    16     4     8   ar
    17     4     5   ar
    18     8     7   ar
    19    11     5   ar
    20     5     9   ar
    21     7     6   ar
    22     9     6   ar
    23     6     3    1
