@<TRIPOS>MOLECULE
2qz2_XYP_A_2.pdb
 10 10 0 0 0
SMALL
GASTEIGER

@<TRIPOS>ATOM
      1  O4A       -3.0790   18.6570    2.6360 O.3   1136  XYP1136    -0.1869
      2  C1B       -3.8530   18.1020    3.7030 C.3   1136  XYP1136     0.3024
      3  C2B       -3.2730   16.7480    4.1030 C.3   1136  XYP1136     0.2434
      4  C3B       -3.9410   16.1840    5.3600 C.3   1136  XYP1136     0.2199
      5  C4B       -4.2080   17.2190    6.4620 C.3   1136  XYP1136     0.2143
      6  C5B       -4.6710   18.5600    5.8830 C.3   1136  XYP1136     0.1804
      7  O2B       -3.4470   15.8240    3.0230 O.3   1136  XYP1136    -0.2148
      8  O3B       -3.1180   15.1310    5.8760 O.3   1136  XYP1136    -0.2174
      9  O4B       -5.2120   16.6920    7.3380 O.3   1136  XYP1136    -0.2176
     10  O5B       -3.8130   18.9870    4.8230 O.3   1136  XYP1136    -0.3237
@<TRIPOS>BOND
     1     1     2    1
     2     7     3    1
     3     2     3    1
     4     2    10    1
     5     3     4    1
     6    10     6    1
     7     4     8    1
     8     4     5    1
     9     6     5    1
    10     5     9    1
