@<TRIPOS>MOLECULE
2qz3_XYP_A_1.pdb
 10 10 0 0 0
SMALL
GASTEIGER

@<TRIPOS>ATOM
      1  O4A        7.3090  -14.5840  -30.3020 O.3   186  XYP186     -0.1869
      2  C1B        7.8210  -14.7390  -31.6280 C.3   186  XYP186      0.3024
      3  C2B        7.6340  -16.1700  -32.1340 C.3   186  XYP186      0.2434
      4  C3B        8.4440  -16.2720  -33.4280 C.3   186  XYP186      0.2199
      5  C4B        7.8840  -15.2710  -34.4440 C.3   186  XYP186      0.2143
      6  C5B        7.7490  -13.8590  -33.8600 C.3   186  XYP186      0.1804
      7  O2B        8.0340  -17.1300  -31.1450 O.3   186  XYP186     -0.2148
      8  O3B        8.4290  -17.5990  -33.9740 O.3   186  XYP186     -0.2174
      9  O4B        8.7290  -15.2240  -35.6020 O.3   186  XYP186     -0.2176
     10  O5B        7.1580  -13.8590  -32.5480 O.3   186  XYP186     -0.3237
@<TRIPOS>BOND
     1     9     5    1
     2     5     6    1
     3     5     4    1
     4     8     4    1
     5     6    10    1
     6     4     3    1
     7    10     2    1
     8     3     2    1
     9     3     7    1
    10     2     1    1
