@<TRIPOS>MOLECULE
2qz4_ADP_A_1.pdb
 27 29 0 0 0
SMALL
GASTEIGER

@<TRIPOS>ATOM
      1  PB         8.2050   23.4370    9.3480 P.3   700  ADP700      0.5373
      2  O1B        7.9770   24.3850    8.1550 O.2   700  ADP700     -0.2221
      3  O2B        9.6320   23.3880    9.6440 O.3   700  ADP700     -0.1143
      4  O3B        7.7550   22.0010    9.3770 O.3   700  ADP700     -0.1143
      5  PA         6.2970   25.2140   10.6600 P.3   700  ADP700      0.2231
      6  O1A        6.5810   26.6060   10.2990 O.3   700  ADP700     -0.4370
      7  O2A        5.1320   24.4730   10.0790 O.2   700  ADP700     -0.5169
      8  O3A        7.6310   24.3780   10.5530 O.3   700  ADP700     -0.2261
      9  O5'        6.0500   25.1170   12.3020 O.3   700  ADP700     -0.3111
     10  C5'        4.7300   24.9680   12.8610 C.3   700  ADP700      0.1813
     11  C4'        4.5700   25.9720   14.0160 C.3   700  ADP700      0.1821
     12  O4'        5.4790   25.6690   15.1240 O.3   700  ADP700     -0.3135
     13  C3'        4.8980   27.4190   13.6930 C.3   700  ADP700      0.2184
     14  O3'        3.8450   28.0900   13.0040 O.3   700  ADP700     -0.2174
     15  C2'        5.1100   27.9950   15.1080 C.3   700  ADP700      0.2570
     16  O2'        3.8430   28.2800   15.7800 O.3   700  ADP700     -0.2130
     17  C1'        5.8500   26.8620   15.8130 C.3   700  ADP700      0.3186
     18  N9         7.3020   27.0750   15.6810 N.pl3 700  ADP700     -0.1439
     19  C8         8.1920   26.2690   15.0980 C.3   700  ADP700      0.3377
     20  N7         9.4290   26.8180   15.1270 N.2   700  ADP700     -0.2095
     21  C5         9.2980   27.9940   15.7750 C.2   700  ADP700      0.2526
     22  C6        10.2250   29.0350   16.1950 C.2   700  ADP700      0.4393
     23  N6        11.5260   28.8990   15.8580 N.pl3 700  ADP700      0.2180
     24  N1         9.7410   30.1060   16.8200 N.2   700  ADP700      0.0021
     25  C2         8.4400   30.2020   17.1370 C.3   700  ADP700      0.5254
     26  N3         7.5400   29.2540   16.8530 N.2   700  ADP700     -0.0055
     27  C4         7.9220   28.1660   16.1360 C.2   700  ADP700      0.3518
@<TRIPOS>BOND
     1     2     1    2
     2     1     4    1
     3     1     3    1
     4     1     8    1
     5     7     5    2
     6     6     5    1
     7     8     5    1
     8     5     9    1
     9     9    10    1
    10    10    11    1
    11    14    13    1
    12    13    11    1
    13    13    15    1
    14    11    12    1
    15    19    20    1
    16    19    18    1
    17    15    16    1
    18    15    17    1
    19    12    17    1
    20    20    21    2
    21    18    17    1
    22    18    27    1
    23    21    27    1
    24    21    22    1
    25    23    22    1
    26    27    26    2
    27    22    24    2
    28    24    25    1
    29    26    25    1
