@<TRIPOS>MOLECULE
2qzk_I21_A_1.pdb
 40 44 0 0 0
SMALL
GASTEIGER

@<TRIPOS>ATOM
      1  C3        29.7510   43.6850    1.1870 C.ar  400  I21400      0.0945
      2  C4        28.6960   44.3120    0.4230 C.ar  400  I21400      0.0127
      3  C5        27.6180   43.5380   -0.1530 C.ar  400  I21400      0.0012
      4  C6        27.5920   42.1210    0.0890 C.ar  400  I21400     -0.0006
      5  C7        28.6420   41.4800    0.7960 C.ar  400  I21400      0.0220
      6  C8        29.7440   42.2170    1.3610 C.ar  400  I21400      0.0120
      7  C9        30.7850   44.5390    1.8170 C.1   400  I21400      0.2043
      8  C10       28.5480   39.9780    0.7490 C.3   400  I21400      0.2351
      9  O3        29.4990   39.4930    1.6940 O.3   400  I21400     -0.4425
     10  N2        31.3190   43.9990    2.9150 N.2   400  I21400     -0.3373
     11  C11       32.4190   44.4290    3.7820 C.2   400  I21400      0.1222
     12  C12       31.0700   37.8910    2.3880 C.3   400  I21400      0.1697
     13  C13       33.6930   43.5710    3.9130 C.3   400  I21400      0.0647
     14  C27       34.2870   43.0310    2.6050 C.3   400  I21400      0.0338
     15  N3        30.7960   38.5670    3.6660 N.3   400  I21400     -0.1227
     16  C14       32.4800   38.2090    1.7940 C.3   400  I21400      0.0548
     17  C15       33.5770   41.9500    1.7850 C.ar  400  I21400     -0.0221
     18  C16       33.2870   40.6310    2.3110 C.ar  400  I21400     -0.0085
     19  C17       32.7580   39.6520    1.3830 C.ar  400  I21400     -0.0205
     20  C18       32.5000   39.9970    0.0010 C.ar  400  I21400     -0.0042
     21  C19       32.7800   41.3210   -0.5040 C.ar  400  I21400     -0.0006
     22  C20       33.3190   42.2850    0.4120 C.ar  400  I21400     -0.0043
     23  C21       31.1600   45.1120    7.3020 C.ar  400  I21400      0.0001
     24  C22       31.5550   44.4190    6.0880 C.ar  400  I21400      0.0022
     25  C23       32.0270   45.2040    4.9390 C.ar  400  I21400      0.0264
     26  C24       32.1190   46.6580    4.9330 C.ar  400  I21400      0.0022
     27  C25       31.7040   47.3340    6.1460 C.ar  400  I21400      0.0001
     28  C26       31.2420   46.5710    7.3050 C.ar  400  I21400      0.0000
     29  C29       30.0570   38.3200    1.3860 C.2   400  I21400      0.3333
     30  C30       30.7650   36.3610    2.6280 C.3   400  I21400      0.0308
     31  O1        31.1820   45.6460    1.4290 O.2   400  I21400     -0.2093
     32  O2        29.7410   37.6690    0.4250 O.2   400  I21400     -0.2485
     33  C31       26.3140   43.8980   -2.3270 C.ar  400  I21400      0.0007
     34  C32       25.1280   44.4080   -3.0450 C.ar  400  I21400      0.0000
     35  C33       24.0730   45.1720   -2.3810 C.ar  400  I21400      0.0007
     36  C34       24.2170   45.4240   -0.9540 C.ar  400  I21400      0.0103
     37  C35       25.3760   44.9090   -0.2230 C.ar  400  I21400      0.0684
     38  C36       26.4420   44.1440   -0.8750 C.ar  400  I21400      0.0096
     39  C37       25.3100   45.0920    1.1960 C.1   400  I21400      0.1004
     40  N1        25.3610   44.9890    2.3500 N.1   400  I21400     -0.1908
@<TRIPOS>BOND
     1    34    35   ar
     2    34    33   ar
     3    35    36   ar
     4    33    38   ar
     5    36    37   ar
     6    38    37   ar
     7    38     3    1
     8    21    20   ar
     9    21    22   ar
    10    37    39    1
    11     3     4   ar
    12     3     2   ar
    13    20    19   ar
    14     4     5   ar
    15    22    17   ar
    16     2     1   ar
    17    32    29    2
    18     8     5    1
    19     8     9    1
    20     5     6   ar
    21     1     6   ar
    22     1     7    1
    23    39    40    3
    24    19    16    1
    25    19    18   ar
    26    29     9    1
    27    29    12    1
    28    31     7    2
    29    17    18   ar
    30    17    14    1
    31    16    12    1
    32     7    10    2
    33    12    30    1
    34    12    15    1
    35    14    13    1
    36    10    11    2
    37    11    13    1
    38    11    25    1
    39    26    25   ar
    40    26    27   ar
    41    25    24   ar
    42    24    23   ar
    43    27    28   ar
    44    23    28   ar
