@<TRIPOS>MOLECULE
2qzl_IXS_A_1.pdb
 46 48 0 0 0
SMALL
GASTEIGER

@<TRIPOS>ATOM
      1  O2        26.6530   45.2250    2.4670 O.2   449  IXS449     -0.1542
      2  S1        26.1400   44.9570    1.1600 S.O2  449  IXS449      0.0588
      3  O1        24.7310   44.7160    1.1860 O.2   449  IXS449     -0.1542
      4  C22       26.4340   46.3350    0.2570 C.3   449  IXS449      0.1999
      5  N24       26.8700   43.7580    0.5120 N.pl3 449  IXS449     -0.1925
      6  C29       26.2110   43.0260   -0.5700 C.3   449  IXS449      0.1388
      7  C19       28.1620   43.3310    0.9110 C.ar  449  IXS449      0.0688
      8  C20       29.1470   44.2500    1.3000 C.ar  449  IXS449      0.0207
      9  C15       30.4110   43.8110    1.6960 C.ar  449  IXS449      0.0565
     10  C14       31.4740   44.7740    2.1410 C.2   449  IXS449      0.2651
     11  O5        31.6230   45.8520    1.5700 O.2   449  IXS449     -0.2684
     12  N13       32.2110   44.3900    3.1900 N.am  449  IXS449     -0.1989
     13  C12       33.2370   45.2040    3.8300 C.3   449  IXS449      0.1178
     14  C50       34.5580   44.4320    3.8770 C.3   449  IXS449      0.0283
     15  C5        32.8090   45.6510    5.1850 C.ar  449  IXS449     -0.0024
     16  C6        32.4640   44.7360    6.1820 C.ar  449  IXS449     -0.0003
     17  C7        32.0650   45.1850    7.4430 C.ar  449  IXS449      0.0294
     18  C4        32.7520   47.0220    5.4660 C.ar  449  IXS449     -0.0003
     19  C3        32.3590   47.4720    6.7280 C.ar  449  IXS449      0.0294
     20  C2        32.0130   46.5520    7.7120 C.ar  449  IXS449      0.1401
     21  F1        31.6340   46.9780    8.9320 F     449  IXS449     -0.2042
     22  C18       28.4620   41.9590    0.9160 C.ar  449  IXS449      0.0207
     23  C17       29.7250   41.5140    1.3090 C.ar  449  IXS449      0.0565
     24  C16       30.6940   42.4420    1.6930 C.ar  449  IXS449      0.0092
     25  C34       30.0580   40.0520    1.3360 C.2   449  IXS449      0.2648
     26  O4        29.6430   39.2960    0.4740 O.2   449  IXS449     -0.2684
     27  N35       30.8090   39.6210    2.3450 N.am  449  IXS449     -0.2016
     28  C36       31.4980   38.3480    2.3120 C.3   449  IXS449      0.1173
     29  C56       32.9660   38.4960    2.7200 C.3   449  IXS449      0.0495
     30  C58       33.7130   39.5920    1.9740 C.ar  449  IXS449     -0.0204
     31  C65       33.4940   39.8480    0.6160 C.ar  449  IXS449     -0.0042
     32  C64       34.1970   40.8670   -0.0380 C.ar  449  IXS449     -0.0003
     33  C63       35.1280   41.6340    0.6590 C.ar  449  IXS449     -0.0000
     34  C62       35.3500   41.3900    2.0140 C.ar  449  IXS449     -0.0003
     35  C61       34.6450   40.3650    2.6640 C.ar  449  IXS449     -0.0042
     36  C37       30.8160   37.4040    3.2960 C.3   449  IXS449      0.1111
     37  N38       29.4180   37.2110    2.9330 N.3   449  IXS449     -0.2084
     38  C39       28.9300   35.8400    2.8050 C.3   449  IXS449      0.1505
     39  C8        27.4130   35.8410    2.6540 C.3   449  IXS449      0.0287
     40  C1        29.5730   35.1370    1.6370 C.2   449  IXS449      0.2572
     41  O3        29.6580   35.7180    0.5620 O.2   449  IXS449     -0.2718
     42  N9        30.0330   33.8960    1.8120 N.am  449  IXS449     -0.2043
     43  C10       30.5110   33.1110    0.6710 C.3   449  IXS449      0.1151
     44  C51       31.2770   31.8400    1.0420 C.3   449  IXS449      0.0217
     45  C52       30.4680   30.9060    1.9350 C.3   449  IXS449      0.0018
     46  C53       31.7490   31.0980   -0.2040 C.3   449  IXS449      0.0018
@<TRIPOS>BOND
     1     6     5    1
     2    46    44    1
     3    32    31   ar
     4    32    33   ar
     5     4     2    1
     6    26    25    2
     7     5     7    1
     8     5     2    1
     9    41    40    2
    10    31    30   ar
    11    33    34   ar
    12    43    44    1
    13    43    42    1
    14     7    22   ar
    15     7     8   ar
    16    22    23   ar
    17    44    45    1
    18     2     3    2
    19     2     1    2
    20     8     9   ar
    21    23    25    1
    22    23    24   ar
    23    25    27   am
    24    11    10    2
    25    40    42   am
    26    40    38    1
    27    24     9   ar
    28     9    10    1
    29    30    35   ar
    30    30    29    1
    31    34    35   ar
    32    10    12   am
    33    28    27    1
    34    28    29    1
    35    28    36    1
    36    39    38    1
    37    38    37    1
    38    37    36    1
    39    12    13    1
    40    13    14    1
    41    13    15    1
    42    15    18   ar
    43    15    16   ar
    44    18    19   ar
    45    16    17   ar
    46    19    20   ar
    47    17    20   ar
    48    20    21    1
