@<TRIPOS>MOLECULE
2qzo_KN1_A_1.pdb
 24 26 0 0 0
SMALL
GASTEIGER

@<TRIPOS>ATOM
      1  CAA        2.4430    7.8590   -3.7110 C.3     1  KN11        0.0021
      2  CAG        2.0130    6.6470   -4.2310 C.3     1  KN11        0.0264
      3  CAN        2.4680    5.4250   -3.7130 C.3     1  KN11        0.1274
      4  NAW        2.9280    4.6330   -4.8480 N.ar    1  KN11       -0.2510
      5  NAO        4.0640    4.8180   -5.2770 N.ar    1  KN11       -0.1692
      6  CAV        2.2280    3.7330   -5.5670 C.ar    1  KN11        0.0832
      7  CAT        0.9250    3.1980   -5.5400 C.ar    1  KN11        0.0887
      8  CAX       -0.1270    3.4860   -4.4940 C.3     1  KN11        0.4200
      9  FAE        0.2840    2.9380   -3.3490 F       1  KN11       -0.1658
     10  FAF       -1.3780    3.5820   -4.7280 F       1  KN11       -0.1658
     11  FAD       -0.0310    4.8080   -4.2780 F       1  KN11       -0.1658
     12  CAJ        0.5760    2.2170   -6.4700 C.ar    1  KN11        0.0054
     13  CAH        1.4650    1.7880   -7.4550 C.ar    1  KN11        0.0001
     14  CAL        2.7450    2.3420   -7.5080 C.ar    1  KN11        0.0030
     15  CAU        3.1190    3.3050   -6.5600 C.ar    1  KN11        0.0367
     16  CAS        4.2690    4.0510   -6.3400 C.ar    1  KN11        0.1054
     17  CAR        5.4660    3.9520   -7.0390 C.ar    1  KN11        0.0585
     18  CAK        5.5570    3.5600   -8.3730 C.ar    1  KN11        0.0080
     19  CAI        6.7970    3.4450   -8.9900 C.ar    1  KN11        0.0423
     20  CAP        7.9620    3.7180   -8.2660 C.ar    1  KN11        0.1989
     21  OAB        9.1980    3.6090   -8.8190 O.3     1  KN11       -0.2865
     22  CAM        7.8570    4.1050   -6.9270 C.ar    1  KN11        0.0841
     23  CAQ        6.6250    4.2080   -6.3260 C.ar    1  KN11        0.2003
     24  OAC        6.5810    4.5700   -5.0130 O.3     1  KN11       -0.2864
@<TRIPOS>BOND
     1    19    18   ar
     2    19    20   ar
     3    21    20    1
     4    18    17   ar
     5    20    22   ar
     6    14    13   ar
     7    14    15   ar
     8    13    12   ar
     9    17    16    1
    10    17    23   ar
    11    22    23   ar
    12    15    16   ar
    13    15     6   ar
    14    12     7   ar
    15    16     5   ar
    16    23    24    1
    17     6     7   ar
    18     6     4   ar
    19     7     8    1
    20     5     4   ar
    21     4     3    1
    22    10     8    1
    23     8    11    1
    24     8     9    1
    25     2     3    1
    26     2     1    1
