@<TRIPOS>MOLECULE
2qzr_S79_A_1.pdb
 27 31 0 0 0
SMALL
GASTEIGER

@<TRIPOS>ATOM
      1  N1        14.0240   15.8320   25.0270 N.pl3 500  S79500     -0.0226
      2  C8        14.9590   16.2410   24.0420 C.1   500  S79500      0.2515
      3  N2        14.5980   16.1580   22.7440 N.2   500  S79500     -0.3285
      4  C4        15.4700   16.5360   21.7870 C.2   500  S79500      0.1418
      5  C5        15.1050   16.4690   20.3200 C.3   500  S79500      0.1233
      6  C6        16.1120   16.9010   19.3840 C.2   500  S79500      0.1600
      7  N3        15.9620   16.9320   18.0610 N.2   500  S79500     -0.3284
      8  C9        17.0690   17.3700   17.6010 C.1   500  S79500      0.2203
      9  N4        17.3070   17.5300   16.2780 N.pl3 500  S79500     -0.1469
     10  C17       16.1170   17.6540   15.4600 C.3   500  S79500      0.1526
     11  C18       16.4390   18.4280   14.1890 C.ar  500  S79500      0.0003
     12  C20       16.9120   19.7430   14.2360 C.ar  500  S79500     -0.0023
     13  C26       17.1180   20.4040   15.4500 C.ar  500  S79500     -0.0003
     14  C25       17.6020   21.7150   15.4750 C.ar  500  S79500     -0.0000
     15  C24       17.8680   22.3860   14.2800 C.ar  500  S79500     -0.0000
     16  C23       17.6610   21.7290   13.0640 C.ar  500  S79500     -0.0000
     17  C21       17.1810   20.4160   13.0380 C.ar  500  S79500     -0.0002
     18  C22       16.9820   19.7760   11.8110 C.ar  500  S79500     -0.0000
     19  C27       16.5040   18.4610   11.7690 C.ar  500  S79500     -0.0003
     20  C19       16.2280   17.7870   12.9610 C.ar  500  S79500     -0.0025
     21  N5        18.0200   17.6830   18.4980 N.2   500  S79500     -0.3247
     22  C1        17.1990   17.3090   19.7000 C.2   500  S79500      0.1725
     23  C2        17.6850   17.4150   21.0560 C.2   500  S79500      0.0504
     24  C3        16.7340   16.9980   22.1510 C.2   500  S79500      0.1247
     25  C7        17.0740   17.0630   23.5040 C.1   500  S79500      0.2180
     26  O1        18.3380   17.5120   23.8790 O.2   500  S79500     -0.2085
     27  N6        16.1740   16.6840   24.4310 N.2   500  S79500     -0.2501
@<TRIPOS>BOND
     1    19    18   ar
     2    19    20   ar
     3    18    17   ar
     4    20    11   ar
     5    17    16   ar
     6    17    12   ar
     7    16    15   ar
     8    11    12   ar
     9    11    10    1
    10    12    13   ar
    11    15    14   ar
    12    13    14   ar
    13    10     9    1
    14     9     8    1
    15     8     7    2
    16     8    21    2
    17     7     6    2
    18    21    22    2
    19     6    22    1
    20     6     5    1
    21    22    23    1
    22     5     4    1
    23    23    24    2
    24     4    24    1
    25     4     3    2
    26    24    25    1
    27     3     2    2
    28    25    26    2
    29    25    27    2
    30     2    27    2
    31     2     1    1
