@<TRIPOS>MOLECULE
2qzs_ADP_A_1.pdb
 27 29 0 0 0
SMALL
GASTEIGER

@<TRIPOS>ATOM
      1  PB        21.9210   -5.4090   39.0510 P.3   487  ADP487      0.5373
      2  O1B       20.8060   -4.8490   38.1850 O.2   487  ADP487     -0.2221
      3  O2B       23.1710   -4.5550   39.2230 O.3   487  ADP487     -0.1143
      4  O3B       22.3300   -6.8610   38.5400 O.3   487  ADP487     -0.1143
      5  PA        21.3220   -6.7550   41.5860 P.3   487  ADP487      0.2231
      6  O1A       20.6710   -7.9910   41.0550 O.2   487  ADP487     -0.5169
      7  O2A       20.7740   -6.1200   42.8390 O.3   487  ADP487     -0.4370
      8  O3A       21.2230   -5.5820   40.4900 O.3   487  ADP487     -0.2261
      9  O5'       22.8870   -7.0450   41.8290 O.3   487  ADP487     -0.3111
     10  C5'       23.8680   -6.0370   42.0130 C.3   487  ADP487      0.1813
     11  C4'       25.1040   -6.6960   42.5870 C.3   487  ADP487      0.1821
     12  O4'       26.2090   -5.8020   42.3910 O.3   487  ADP487     -0.3135
     13  C3'       24.9350   -6.8240   44.0910 C.3   487  ADP487      0.2184
     14  O3'       25.8230   -7.8420   44.6140 O.3   487  ADP487     -0.2174
     15  C2'       25.3800   -5.4330   44.5460 C.3   487  ADP487      0.2570
     16  O2'       25.8050   -5.4400   45.8930 O.3   487  ADP487     -0.2130
     17  C1'       26.5760   -5.2110   43.6340 C.3   487  ADP487      0.3186
     18  N9        26.9110   -3.8000   43.3660 N.pl3 487  ADP487     -0.1439
     19  C8        26.2290   -2.9230   42.5780 C.3   487  ADP487      0.3377
     20  N7        26.9150   -1.7460   42.5810 N.2   487  ADP487     -0.2095
     21  C5        28.0210   -1.9290   43.3530 C.2   487  ADP487      0.2526
     22  C6        29.0890   -1.1090   43.7180 C.2   487  ADP487      0.4393
     23  N6        29.1510    0.1810   43.2620 N.pl3 487  ADP487      0.2180
     24  N1        30.0440   -1.6150   44.5370 N.2   487  ADP487      0.0021
     25  C2        30.0230   -2.8770   44.9840 C.3   487  ADP487      0.5254
     26  N3        29.0050   -3.6930   44.6520 N.2   487  ADP487     -0.0055
     27  C4        28.0120   -3.2310   43.8360 C.2   487  ADP487      0.3518
@<TRIPOS>BOND
     1     2     1    2
     2     4     1    1
     3     1     3    1
     4     1     8    1
     5     8     5    1
     6     6     5    2
     7     5     9    1
     8     5     7    1
     9     9    10    1
    10    10    11    1
    11    12    11    1
    12    12    17    1
    13    19    20    1
    14    19    18    1
    15    20    21    2
    16    11    13    1
    17    23    22    1
    18    21    22    1
    19    21    27    1
    20    18    17    1
    21    18    27    1
    22    17    15    1
    23    22    24    2
    24    27    26    2
    25    13    15    1
    26    13    14    1
    27    24    25    1
    28    15    16    1
    29    26    25    1
