@<TRIPOS>MOLECULE
2qzs_250_A_1.pdb
 17 17 0 0 0
SMALL
GASTEIGER

@<TRIPOS>ATOM
      1  O1        24.7520   -4.6430   26.5010 O.3   488  250488     -0.3074
      2  S1        25.9820   -4.0970   27.1060 S.3   488  250488     -0.1934
      3  O2        26.9860   -3.8130   26.0570 O.3   488  250488     -0.3074
      4  O3        25.6650   -2.8260   27.7940 O.3   488  250488     -0.3074
      5  C1        26.6860   -5.1890   28.1460 C.3   488  250488      0.1394
      6  C2        25.7310   -5.6870   29.2300 C.3   488  250488      0.1876
      7  O4        24.4070   -5.8530   28.6980 O.3   488  250488     -0.2199
      8  C3        25.7640   -4.7340   30.4220 C.3   488  250488      0.1071
      9  N1        25.1730   -5.4670   31.5330 N.3   488  250488     -0.2681
     10  C7        23.7710   -5.2170   31.8760 C.3   488  250488      0.0897
     11  C6        23.5060   -5.7290   33.2860 C.3   488  250488      0.0897
     12  N2        23.9120   -7.1350   33.2860 N.3   488  250488     -0.2681
     13  C5        25.0500   -7.6200   32.5050 C.3   488  250488      0.0897
     14  C4        25.9730   -6.4230   32.2780 C.3   488  250488      0.0897
     15  C8        23.1730   -8.0890   34.1070 C.3   488  250488      0.1081
     16  C9        24.0370   -8.2000   35.3680 C.3   488  250488      0.1993
     17  O5        23.2070   -8.4860   36.4950 O.3   488  250488     -0.2189
@<TRIPOS>BOND
     1     3     2    1
     2     1     2    1
     3     2     4    1
     4     2     5    1
     5     5     6    1
     6     7     6    1
     7     6     8    1
     8     8     9    1
     9     9    10    1
    10     9    14    1
    11    10    11    1
    12    14    13    1
    13    13    12    1
    14    11    12    1
    15    12    15    1
    16    15    16    1
    17    16    17    1
