@<TRIPOS>MOLECULE
2qzs_GLC_A_1.pdb
 12 12 0 0 0
SMALL
GASTEIGER

@<TRIPOS>ATOM
      1  C1        19.9100   -8.4010   36.2830 C.3   486  GLC486      0.3024
      2  C2        18.8850   -7.5760   37.0490 C.3   486  GLC486      0.2434
      3  C3        18.8610   -7.8680   38.5440 C.3   486  GLC486      0.2199
      4  C4        19.0450   -9.3480   38.8380 C.3   486  GLC486      0.2144
      5  C5        20.3870   -9.7640   38.2800 C.3   486  GLC486      0.1836
      6  C6        20.6730  -11.2220   38.6200 C.3   486  GLC486      0.2142
      7  O1        21.0220   -7.6010   35.9550 O.3   486  GLC486     -0.1869
      8  O2        19.0620   -6.1860   36.7640 O.3   486  GLC486     -0.2148
      9  O3        17.6000   -7.4690   39.0230 O.3   486  GLC486     -0.2174
     10  O4        19.0410   -9.5650   40.2240 O.3   486  GLC486     -0.2176
     11  O5        20.3250   -9.6230   36.8810 O.3   486  GLC486     -0.3236
     12  O6        19.7640  -12.1010   37.9800 O.3   486  GLC486     -0.2176
@<TRIPOS>BOND
     1     7     1    1
     2     1    11    1
     3     1     2    1
     4     8     2    1
     5    11     5    1
     6     2     3    1
     7    12     6    1
     8     5     6    1
     9     5     4    1
    10     3     4    1
    11     3     9    1
    12     4    10    1
