@<TRIPOS>MOLECULE
2qzx_III_C_1.pdb
 48 47 0 0 0
SMALL
GASTEIGER

@<TRIPOS>ATOM
      1  CA        16.4710   33.6900   30.3040 C.3   2001  IVA2001     0.0868
      2  CB        16.4820   34.1190   31.7720 C.3   2001  IVA2001     0.0091
      3  CG1       17.6760   33.4530   32.4610 C.3   2001  IVA2001     0.0005
      4  CG2       15.1870   33.7410   32.4940 C.3   2001  IVA2001     0.0005
      5  C         15.3000   34.2000   29.4600 C.2   2001  IVA2001     0.2418
      6  O         14.9360   35.3760   29.4720 O.2   2001  IVA2001    -0.2733
      7  N         14.7300   33.2460   28.7310 N.am  2002  VAL2002    -0.1978
      8  CA        13.6160   33.5080   27.8110 C.3   2002  VAL2002     0.1726
      9  C         12.3180   32.8300   28.2560 C.2   2002  VAL2002     0.2616
     10  O         12.3100   31.9200   29.0840 O.2   2002  VAL2002    -0.2715
     11  CB        14.0180   33.0330   26.4110 C.3   2002  VAL2002     0.0290
     12  CG1       15.2590   33.7830   25.9250 C.3   2002  VAL2002     0.0023
     13  CG2       14.2680   31.5240   26.3390 C.3   2002  VAL2002     0.0023
     14  N         11.2360   33.3550   27.6900 N.am  2003  VAL2003    -0.1963
     15  CA         9.8590   32.8760   27.8780 C.3   2003  VAL2003     0.1727
     16  C          9.2570   32.9750   26.4750 C.2   2003  VAL2003     0.2612
     17  O          8.9850   34.0730   25.9930 O.2   2003  VAL2003    -0.2715
     18  CB         9.0790   33.7590   28.8570 C.3   2003  VAL2003     0.0290
     19  CG1        7.6660   33.2090   29.0620 C.3   2003  VAL2003     0.0023
     20  CG2        9.7930   33.8830   30.2040 C.3   2003  VAL2003     0.0023
     21  N          9.1330   31.8200   25.8230 N.am  2004  STA2004    -0.2031
     22  CA         8.6080   31.7430   24.4500 C.3   2004  STA2004     0.1261
     23  CB         9.7000   31.2770   23.4830 C.3   2004  STA2004     0.0243
     24  CG        11.0160   32.0540   23.5780 C.3   2004  STA2004     0.0018
     25  CD1       10.9210   33.4640   22.9920 C.3   2004  STA2004     0.0001
     26  CD2       12.1150   31.2530   22.8750 C.3   2004  STA2004     0.0001
     27  CH         7.4740   30.7190   24.3740 C.3   2004  STA2004     0.1809
     28  OH         7.9470   29.4770   24.9030 O.3   2004  STA2004    -0.2208
     29  CM         6.1850   31.1490   25.0810 C.3   2004  STA2004     0.1214
     30  C          5.5770   32.3900   24.4220 C.2   2004  STA2004     0.2444
     31  O          5.8860   33.5150   24.8110 O.2   2004  STA2004    -0.2732
     32  N          4.6940   32.1640   23.4530 N.am  2005  ALA2005    -0.1977
     33  CA         4.0440   33.2500   22.7040 C.3   2005  ALA2005     0.1728
     34  C          2.7720   33.7590   23.3900 C.2   2005  ALA2005     0.2612
     35  O          1.9980   32.9740   23.9110 O.2   2005  ALA2005    -0.2715
     36  CB         3.6410   32.7060   21.3320 C.3   2005  ALA2005     0.0334
     37  N          2.5910   35.0840   23.4110 N.am  2006  STA2006    -0.2031
     38  CA         1.3530   35.6370   23.9730 C.3   2006  STA2006     0.1262
     39  CB         1.4610   36.3240   25.3420 C.3   2006  STA2006     0.0243
     40  CG         2.4760   37.4620   25.4670 C.3   2006  STA2006     0.0018
     41  CD1        1.8170   38.8310   25.6430 C.3   2006  STA2006     0.0001
     42  CD2        3.5130   37.4730   24.3430 C.3   2006  STA2006     0.0001
     43  CH         0.5590   36.3850   22.9000 C.3   2006  STA2006     0.1830
     44  OH         1.4290   37.2990   22.2270 O.3   2006  STA2006    -0.2207
     45  CM         0.0520   35.3770   21.8650 C.3   2006  STA2006     0.1486
     46  C         -0.6010   34.1550   22.5200 C.2   2006  STA2006     0.3675
     47  O         -0.4240   33.0520   21.9620 O.co2 2006  STA2006    -0.2456
     48  OXT       -1.2310   34.3460   23.5830 O.co2 2006  STA2006    -0.2456
@<TRIPOS>BOND
     1    36    33    1
     2    45    46    1
     3    45    43    1
     4    47    46   ar
     5    44    43    1
     6    46    48   ar
     7    33    34    1
     8    33    32    1
     9    26    24    1
    10    43    38    1
    11    25    24    1
    12    34    37   am
    13    34    35    2
    14    37    38    1
    15    32    30   am
    16    23    24    1
    17    23    22    1
    18    38    39    1
    19    42    40    1
    20    27    22    1
    21    27    28    1
    22    27    29    1
    23    30    31    2
    24    30    29    1
    25    22    21    1
    26    39    40    1
    27    40    41    1
    28    21    16   am
    29    12    11    1
    30    17    16    2
    31    13    11    1
    32    11     8    1
    33    16    15    1
    34    14    15    1
    35    14     9   am
    36     8     9    1
    37     8     7    1
    38    15    18    1
    39     9    10    2
    40     7     5   am
    41    18    19    1
    42    18    20    1
    43     5     6    2
    44     5     1    1
    45     1     2    1
    46     2     3    1
    47     2     4    1
