@<TRIPOS>MOLECULE
2qzy_20S_B_1.pdb
 32 33 0 0 0
SMALL
GASTEIGER

@<TRIPOS>ATOM
      1  C4        21.4110  -56.4810   40.5560 C.2   1001  20S1001     0.3170
      2  C7        22.8950  -56.5940   40.2960 C.3   1001  20S1001     0.1096
      3  C8        23.5050  -55.2170   40.5870 C.3   1001  20S1001     0.0116
      4  C9        23.3200  -54.8450   42.0610 C.3   1001  20S1001     0.0006
      5  C10       23.5690  -53.3710   42.4190 C.3   1001  20S1001     0.0000
      6  C11       22.9340  -52.3590   41.4660 C.3   1001  20S1001     0.0000
      7  C12       21.9450  -51.4410   42.1660 C.3   1001  20S1001     0.0000
      8  C1        15.8430  -52.5330   41.7100 C.3   1001  20S1001     0.1835
      9  C2        14.9660  -51.7590   40.7460 C.3   1001  20S1001     0.2167
     10  C3        15.9270  -50.6820   40.2940 C.3   1001  20S1001     0.2381
     11  C13       17.2800  -51.4010   40.2230 C.3   1001  20S1001     0.2516
     12  O2        17.1220  -52.5570   41.0730 O.3   1001  20S1001    -0.3272
     13  O4        13.8130  -51.1800   41.3620 O.3   1001  20S1001    -0.2175
     14  C17       15.4160  -53.9510   42.0710 C.3   1001  20S1001     0.2142
     15  O1        14.7580  -54.6250   41.0020 O.3   1001  20S1001    -0.2176
     16  C18       18.4410  -50.5760   40.7830 C.3   1001  20S1001     0.2406
     17  O3        18.5470  -49.3220   40.0880 O.3   1001  20S1001    -0.2149
     18  O5        15.4790  -50.1460   39.0540 O.3   1001  20S1001    -0.2150
     19  C21       18.7840  -52.1280   38.3770 C.3   1001  20S1001     0.2713
     20  C24       18.6790  -52.5490   36.9010 C.3   1001  20S1001     0.2406
     21  C27       18.0790  -53.9530   36.7440 C.3   1001  20S1001     0.2199
     22  C16       18.7870  -54.9450   37.6620 C.3   1001  20S1001     0.2155
     23  C29       18.6740  -54.4090   39.0760 C.3   1001  20S1001     0.1942
     24  O9        17.8750  -51.6050   36.1630 O.3   1001  20S1001    -0.2149
     25  O11       18.1700  -54.4070   35.3880 O.3   1001  20S1001    -0.2174
     26  O13       18.1710  -56.2360   37.5790 O.3   1001  20S1001    -0.2176
     27  O15       19.3820  -53.1560   39.1780 O.3   1001  20S1001    -0.3244
     28  O6        17.4720  -51.8120   38.8600 O.3   1001  20S1001    -0.3033
     29  C32       19.2480  -55.3730   40.0840 C.3   1001  20S1001     0.2405
     30  O17       20.6370  -55.5200   39.8070 O.3   1001  20S1001    -0.4457
     31  C31       22.1870  -49.9860   41.8050 C.3   1001  20S1001     0.0000
     32  O7        20.8350  -57.1470   41.4110 O.2   1001  20S1001    -0.2501
@<TRIPOS>BOND
     1    25    21    1
     2    24    20    1
     3    21    20    1
     4    21    22    1
     5    20    19    1
     6    26    22    1
     7    22    23    1
     8    19    28    1
     9    19    27    1
    10    28    11    1
    11    18    10    1
    12    23    27    1
    13    23    29    1
    14    30    29    1
    15    30     1    1
    16    17    16    1
    17    11    10    1
    18    11    16    1
    19    11    12    1
    20    10     9    1
    21     2     1    1
    22     2     3    1
    23     1    32    2
    24     3     4    1
    25     9    13    1
    26     9     8    1
    27    15    14    1
    28    12     8    1
    29     6     7    1
    30     6     5    1
    31     8    14    1
    32    31     7    1
    33     4     5    1
