@<TRIPOS>MOLECULE
2qzy_PEP_A_1.pdb
 10 9 0 0 0
SMALL
GASTEIGER

@<TRIPOS>ATOM
      1  C1        -4.7100  -52.0950   72.0370 C.2   1102  PEP1102     0.4216
      2  O1        -5.4020  -51.3240   72.7490 O.co2 1102  PEP1102    -0.2371
      3  O2'       -4.9240  -53.3430   71.9690 O.co2 1102  PEP1102    -0.2371
      4  C2        -3.6160  -51.5770   71.2140 C.2   1102  PEP1102     0.2283
      5  C3        -3.2740  -50.2990   71.2050 C.2   1102  PEP1102     0.0477
      6  O2        -2.9680  -52.5960   70.4120 O.2   1102  PEP1102    -0.3930
      7  P         -1.5810  -52.6440   69.5690 P.3   1102  PEP1102     0.5889
      8  O1P       -1.8510  -51.8370   68.3270 O.2   1102  PEP1102    -0.2114
      9  O2P       -0.4500  -52.1190   70.4120 O.3   1102  PEP1102    -0.1039
     10  O3P       -1.5690  -54.1490   69.3140 O.3   1102  PEP1102    -0.1039
@<TRIPOS>BOND
     1     8     7    2
     2    10     7    1
     3     7     6    1
     4     7     9    1
     5     6     4    1
     6     5     4    2
     7     4     1    1
     8     3     1   ar
     9     1     2   ar
