@<TRIPOS>MOLECULE
2qzz_EMF_A_1.pdb
 17 18 0 0 0
SMALL
GASTEIGER

@<TRIPOS>ATOM
      1  O9        17.0340   -8.1250   18.6020 O.2   601  EMF601     -0.2501
      2  C9        16.8430   -7.7500   19.7550 C.2   601  EMF601      0.3168
      3  O10       17.2970   -8.5860   20.8650 O.3   601  EMF601     -0.4485
      4  C11       18.0960   -9.7570   20.6510 C.3   601  EMF601      0.2086
      5  C12       19.4880   -9.3550   20.2080 C.3   601  EMF601      0.0513
      6  C8        16.1430   -6.4510   20.0180 C.3   601  EMF601      0.1034
      7  C14       15.0240   -6.4870   21.0580 C.3   601  EMF601      0.0163
      8  C7        16.3750   -5.8330   21.4000 C.3   601  EMF601      0.0335
      9  C1        16.4850   -4.3180   21.3060 C.ar  601  EMF601     -0.0187
     10  C2        17.5110   -3.6430   22.0470 C.ar  601  EMF601      0.0360
     11  C3        17.6430   -2.2140   21.9760 C.ar  601  EMF601      0.1771
     12  O3        18.6110   -1.5120   22.6690 O.3   601  EMF601     -0.4682
     13  C13       19.0370   -1.8700   23.9900 C.3   601  EMF601      0.2526
     14  C6        15.5830   -3.5550   20.4940 C.ar  601  EMF601     -0.0008
     15  C5        15.6870   -2.1490   20.3970 C.ar  601  EMF601      0.0449
     16  C4        16.6870   -1.4490   21.1140 C.ar  601  EMF601      0.2293
     17  O4        16.7950   -0.0900   21.0250 O.3   601  EMF601     -0.2833
@<TRIPOS>BOND
     1     1     2    2
     2     2     6    1
     3     2     3    1
     4     6     7    1
     5     6     8    1
     6     5     4    1
     7    15    14   ar
     8    15    16   ar
     9    14     9   ar
    10     4     3    1
    11    17    16    1
    12     7     8    1
    13    16    11   ar
    14     9     8    1
    15     9    10   ar
    16    11    10   ar
    17    11    12    1
    18    12    13    1
