@<TRIPOS>MOLECULE
2qzz_NAP_A_1.pdb
 48 52 0 0 0
SMALL
GASTEIGER

@<TRIPOS>ATOM
      1  PA         5.4810   -6.2330   22.2810 P.3   401  NAP401      0.2189
      2  O1A        5.9360   -7.0910   21.1620 O.2   401  NAP401     -0.5170
      3  O2A        5.2600   -6.8110   23.6240 O.3   401  NAP401     -0.4371
      4  O5B        4.1820   -5.4810   21.7060 O.3   401  NAP401     -0.3112
      5  C5B        3.5190   -4.4720   22.4910 C.3   401  NAP401      0.1813
      6  C4B        2.0560   -4.5300   22.1250 C.3   401  NAP401      0.1820
      7  O4B        1.6500   -4.1820   20.6970 O.3   401  NAP401     -0.3136
      8  C3B        1.3450   -5.8690   22.1430 C.3   401  NAP401      0.2157
      9  O3B        1.1800   -6.3290   23.4680 O.3   401  NAP401     -0.2175
     10  C2B        0.0110   -5.6570   21.4120 C.3   401  NAP401      0.2314
     11  O2B       -1.0060   -5.2640   22.3220 O.3   401  NAP401     -0.2630
     12  C1B        0.3110   -4.5450   20.4260 C.3   401  NAP401      0.3158
     13  N9A        0.2500   -4.9690   19.0200 N.pl3 401  NAP401     -0.1439
     14  C8A        0.8530   -6.1000   18.4700 C.3   401  NAP401      0.3377
     15  N7A        0.6310   -6.2380   17.1820 N.2   401  NAP401     -0.2095
     16  C5A       -0.1420   -5.1610   16.8700 C.2   401  NAP401      0.2526
     17  C6A       -0.7200   -4.7330   15.6490 C.2   401  NAP401      0.4393
     18  N6A       -0.5480   -5.4210   14.5120 N.pl3 401  NAP401      0.2180
     19  N1A       -1.4600   -3.5790   15.6720 N.2   401  NAP401      0.0021
     20  C2A       -1.6310   -2.8840   16.8270 C.3   401  NAP401      0.5254
     21  N3A       -1.1260   -3.2070   18.0470 N.2   401  NAP401     -0.0055
     22  C4A       -0.3920   -4.3630   17.9930 C.2   401  NAP401      0.3518
     23  O3         6.5020   -4.9570   22.3390 O.3   401  NAP401     -0.2703
     24  PN         7.8770   -4.8970   23.1700 P.3   401  NAP401      0.2189
     25  O1N        8.6900   -6.1220   22.9690 O.2   401  NAP401     -0.5170
     26  O2N        7.5060   -4.5600   24.5640 O.3   401  NAP401     -0.4371
     27  O5D        8.6300   -3.6230   22.5700 O.3   401  NAP401     -0.3112
     28  C5D        8.1830   -2.2820   22.8630 C.3   401  NAP401      0.1813
     29  C4D        9.3190   -1.2980   22.6800 C.3   401  NAP401      0.1799
     30  O4D       10.4400   -1.7570   23.4840 O.3   401  NAP401     -0.3327
     31  C3D        9.7800   -1.1380   21.2110 C.3   401  NAP401      0.2158
     32  O3D       10.0620    0.2100   20.9110 O.3   401  NAP401     -0.2175
     33  C2D       10.9730   -2.0590   21.2030 C.3   401  NAP401      0.2309
     34  O2D       11.8620   -1.7020   20.1640 O.3   401  NAP401     -0.2158
     35  C1D       11.5520   -1.9180   22.5850 C.3   401  NAP401      0.2263
     36  N1N       12.4090   -3.0670   22.9590 N.pl3 401  NAP401     -0.2787
     37  C2N       13.6240   -2.7610   23.5620 C.3   401  NAP401      0.1244
     38  C3N       14.3580   -3.7550   24.2090 C.2   401  NAP401      0.0544
     39  C7N       15.6300   -3.4270   24.9510 C.2   401  NAP401      0.2818
     40  O7N       16.3660   -4.3370   25.3350 O.2   401  NAP401     -0.2670
     41  N7N       15.8950   -2.1320   25.1730 N.am  401  NAP401     -0.0839
     42  C4N       13.8810   -5.1050   24.1860 C.2   401  NAP401      0.0033
     43  C5N       12.6450   -5.4010   23.5710 C.2   401  NAP401      0.0157
     44  C6N       11.9000   -4.3800   22.9760 C.2   401  NAP401      0.0633
     45  P2B       -2.5340   -5.7990   22.2740 P.3   401  NAP401      0.5328
     46  O1X       -2.4930   -7.2970   22.0580 O.3   401  NAP401     -0.1145
     47  O2X       -3.0450   -5.3310   23.6080 O.3   401  NAP401     -0.1145
     48  O3X       -3.2070   -5.0670   21.1160 O.2   401  NAP401     -0.2224
@<TRIPOS>BOND
     1    18    17    1
     2    17    19    2
     3    17    16    1
     4    19    20    1
     5    20    21    1
     6    16    15    2
     7    16    22    1
     8    15    14    1
     9    22    21    2
    10    22    13    1
    11    14    13    1
    12    13    12    1
    13    34    33    1
    14    12     7    1
    15    12    10    1
    16     7     6    1
    17    32    31    1
    18    48    45    2
    19     2     1    2
    20    33    31    1
    21    33    35    1
    22    31    29    1
    23    10     8    1
    24    10    11    1
    25     4     1    1
    26     4     5    1
    27    46    45    1
    28     6     8    1
    29     6     5    1
    30     8     9    1
    31    45    11    1
    32    45    47    1
    33     1    23    1
    34     1     3    1
    35    23    24    1
    36    27    28    1
    37    27    24    1
    38    35    36    1
    39    35    30    1
    40    29    28    1
    41    29    30    1
    42    36    44    1
    43    36    37    1
    44    25    24    2
    45    44    43    2
    46    24    26    1
    47    37    38    1
    48    43    42    1
    49    42    38    2
    50    38    39    1
    51    39    41   am
    52    39    40    2
