@<TRIPOS>MOLECULE
2r04_W71_1_1.pdb
 25 27 0 0 0
SMALL
GASTEIGER

@<TRIPOS>ATOM
      1  O1        37.5580    5.9660  126.2100 O.2   900  W71900     -0.3581
      2  N2        36.9980    7.1010  126.8290 N.ar  900  W71900     -0.0817
      3  C3        36.3550    7.7240  125.8980 C.ar  900  W71900      0.1007
      4  C31       35.6370    8.9850  126.2180 C.3   900  W71900      0.0557
      5  C4        36.4510    7.0620  124.6750 C.ar  900  W71900      0.0536
      6  C5        37.1980    5.9950  124.9170 C.ar  900  W71900      0.1541
      7  C1C       37.7100    4.8890  124.1530 C.3   900  W71900      0.0673
      8  C2C       38.6450    4.0540  124.9730 C.3   900  W71900      0.0081
      9  C3C       39.0330    2.8550  124.2020 C.3   900  W71900      0.0005
     10  C4C       40.4790    2.6510  124.0840 C.3   900  W71900      0.0001
     11  C5C       40.8930    1.3380  124.6750 C.3   900  W71900      0.0038
     12  C6C       40.9820    0.2860  123.6300 C.3   900  W71900      0.0473
     13  C7C       42.3720    0.0100  123.1900 C.3   900  W71900      0.2054
     14  O1B       42.4210   -1.4180  123.0290 O.3   900  W71900     -0.4755
     15  C1B       43.6060   -2.0550  122.8330 C.ar  900  W71900      0.1386
     16  C2B       43.8880   -2.8800  121.7450 C.ar  900  W71900      0.0371
     17  C3B       45.1260   -3.4670  121.6490 C.ar  900  W71900      0.0078
     18  C4B       46.0900   -3.2490  122.6250 C.ar  900  W71900      0.0538
     19  C5B       45.7870   -2.4260  123.7190 C.ar  900  W71900      0.0078
     20  C6B       44.5560   -1.8380  123.8180 C.ar  900  W71900      0.0371
     21  C2A       47.4090   -3.8530  122.5160 C.ar  900  W71900      0.2299
     22  N3A       47.8620   -4.6910  121.4500 N.ar  900  W71900     -0.2065
     23  C4A       49.1440   -5.1060  121.6180 C.ar  900  W71900      0.1427
     24  C5A       49.4350   -4.4130  122.9380 C.ar  900  W71900      0.2021
     25  O1A       48.3460   -3.6950  123.3880 O.2   900  W71900     -0.4314
@<TRIPOS>BOND
     1    22    23   ar
     2    22    21   ar
     3    23    24   ar
     4    17    16   ar
     5    17    18   ar
     6    16    15   ar
     7    21    18    1
     8    21    25   ar
     9    18    19   ar
    10    15    14    1
    11    15    20   ar
    12    24    25   ar
    13    14    13    1
    14    13    12    1
    15    12    11    1
    16    19    20   ar
    17    10     9    1
    18    10    11    1
    19     7     6    1
    20     7     8    1
    21     9     8    1
    22     5     6   ar
    23     5     3   ar
    24     6     1   ar
    25     3     4    1
    26     3     2   ar
    27     1     2   ar
