@<TRIPOS>MOLECULE
2r06_W35_1_1.pdb
 23 25 0 0 0
SMALL
GASTEIGER

@<TRIPOS>ATOM
      1  O1        39.2450    4.3270  125.8010 O.2   900  W35900     -0.3581
      2  N2        38.1650    5.1290  126.2570 N.ar  900  W35900     -0.0817
      3  C3        37.5970    5.5950  125.1960 C.ar  900  W35900      0.1007
      4  C31       36.4100    6.4860  125.3200 C.3   900  W35900      0.0557
      5  C4        38.2450    5.1480  124.0370 C.ar  900  W35900      0.0536
      6  C5        39.2510    4.3670  124.4530 C.ar  900  W35900      0.1541
      7  C1C       40.3080    3.5760  123.7840 C.3   900  W35900      0.0673
      8  C2C       39.8920    2.1340  123.5320 C.3   900  W35900      0.0082
      9  C3C       40.9790    1.3070  122.8610 C.3   900  W35900      0.0043
     10  C4C       40.6710   -0.1550  122.7170 C.3   900  W35900      0.0473
     11  C5C       41.5520   -1.0670  123.5690 C.3   900  W35900      0.2054
     12  O1B       42.9130   -0.5530  123.5120 O.3   900  W35900     -0.4755
     13  C1B       43.9600   -1.4100  123.2390 C.ar  900  W35900      0.1386
     14  C2B       43.8690   -2.5640  122.4550 C.ar  900  W35900      0.0371
     15  C3B       44.9860   -3.3470  122.2460 C.ar  900  W35900      0.0078
     16  C4B       46.2120   -3.0050  122.8070 C.ar  900  W35900      0.0538
     17  C5B       46.2970   -1.8480  123.5950 C.ar  900  W35900      0.0078
     18  C6B       45.1860   -1.0630  123.8060 C.ar  900  W35900      0.0371
     19  C2A       47.4070   -3.8210  122.5880 C.ar  900  W35900      0.2299
     20  N3A       47.4580   -5.0810  121.9090 N.ar  900  W35900     -0.2065
     21  C4A       48.7130   -5.6040  121.8610 C.ar  900  W35900      0.1427
     22  C5A       49.4460   -4.5020  122.6030 C.ar  900  W35900      0.2021
     23  O1A       48.5900   -3.4910  122.9930 O.2   900  W35900     -0.4314
@<TRIPOS>BOND
     1    21    20   ar
     2    21    22   ar
     3    20    19   ar
     4    15    14   ar
     5    15    16   ar
     6    14    13   ar
     7    19    16    1
     8    19    23   ar
     9    22    23   ar
    10    10     9    1
    11    10    11    1
    12    16    17   ar
    13     9     8    1
    14    13    12    1
    15    13    18   ar
    16    12    11    1
    17     8     7    1
    18    17    18   ar
    19     7     6    1
    20     5     6   ar
    21     5     3   ar
    22     6     1   ar
    23     3     4    1
    24     3     2   ar
    25     1     2   ar
