@<TRIPOS>MOLECULE
2r07_W33_1_1.pdb
 24 26 0 0 0
SMALL
GASTEIGER

@<TRIPOS>ATOM
      1  O1        38.1700    3.8790  125.6830 O.2   900  W33900     -0.3581
      2  N2        37.2160    4.9330  125.6780 N.ar  900  W33900     -0.0817
      3  C3        37.7580    5.8960  125.0150 C.ar  900  W33900      0.1007
      4  C31       37.0270    7.1780  124.8140 C.3   900  W33900      0.0557
      5  C4        39.0410    5.5450  124.5650 C.ar  900  W33900      0.0536
      6  C5        39.2580    4.2930  124.9950 C.ar  900  W33900      0.1541
      7  C1C       40.3820    3.3340  124.9130 C.3   900  W33900      0.0673
      8  C2C       40.1980    2.2710  123.8300 C.3   900  W33900      0.0082
      9  C3C       41.2080    1.1310  123.9910 C.3   900  W33900      0.0043
     10  C4C       40.9920   -0.0390  123.0660 C.3   900  W33900      0.0473
     11  C5C       41.7680   -1.2880  123.4410 C.3   900  W33900      0.2054
     12  O1B       43.1300   -0.8970  123.6890 O.3   900  W33900     -0.4746
     13  C1B       44.1600   -1.7120  123.2940 C.ar  900  W33900      0.1490
     14  C2B       44.0250   -2.8910  122.5580 C.ar  900  W33900      0.0379
     15  C3B       45.1420   -3.6230  122.2250 C.ar  900  W33900      0.0078
     16  C4B       46.4080   -3.2050  122.6110 C.ar  900  W33900      0.0546
     17  C5B       46.5240   -2.0160  123.3480 C.ar  900  W33900      0.0191
     18  C6B       45.4170   -1.2860  123.6820 C.ar  900  W33900      0.0917
     19 CL1        45.6140    0.1650  124.5880 Cl    900  W33900     -0.0791
     20  C2A       47.6310   -3.9430  122.3000 C.ar  900  W33900      0.2299
     21  N3A       47.7140   -5.1830  121.5990 N.ar  900  W33900     -0.2065
     22  C4A       48.9870   -5.6320  121.4680 C.ar  900  W33900      0.1427
     23  C5A       49.7000   -4.5050  122.1890 C.ar  900  W33900      0.2021
     24  O1A       48.8180   -3.5590  122.6530 O.2   900  W33900     -0.4314
@<TRIPOS>BOND
     1    22    21   ar
     2    22    23   ar
     3    21    20   ar
     4    23    24   ar
     5    15    14   ar
     6    15    16   ar
     7    20    16    1
     8    20    24   ar
     9    14    13   ar
    10    16    17   ar
    11    10    11    1
    12    10     9    1
    13    13    18   ar
    14    13    12    1
    15    17    18   ar
    16    11    12    1
    17    18    19    1
    18     8     9    1
    19     8     7    1
    20     5     6   ar
    21     5     3   ar
    22     4     3    1
    23     7     6    1
    24     6     1   ar
    25     3     2   ar
    26     2     1   ar
