@<TRIPOS>MOLECULE
2r09_4IP_A_1.pdb
 28 28 0 0 0
SMALL
GASTEIGER

@<TRIPOS>ATOM
      1  C1        80.9670   85.1130   26.6800 C.3   405  4IP405      0.1917
      2  O1        82.3270   85.0390   27.1290 O.3   405  4IP405     -0.2673
      3  C2        80.9170   85.7910   25.3090 C.3   405  4IP405      0.2120
      4  O2        81.4630   87.1210   25.3850 O.3   405  4IP405     -0.2177
      5  C3        79.4650   85.8230   24.8270 C.3   405  4IP405      0.1890
      6  O3        79.3920   86.2820   23.4750 O.3   405  4IP405     -0.2674
      7  C4        78.5850   86.6600   25.7570 C.3   405  4IP405      0.1865
      8  O4        77.2240   86.5340   25.3580 O.3   405  4IP405     -0.2675
      9  C5        78.6750   86.1370   27.1990 C.3   405  4IP405      0.1890
     10  O5        77.9990   87.1080   28.0070 O.3   405  4IP405     -0.2674
     11  C6        80.1160   85.8980   27.6860 C.3   405  4IP405      0.2120
     12  O6        80.1300   85.2090   28.9620 O.3   405  4IP405     -0.2177
     13  P1        83.2800   83.7620   26.8400 P.3   405  4IP405      0.5327
     14  O1P       84.6200   84.3870   27.0670 O.3   405  4IP405     -0.1145
     15  O2P       83.0110   83.3160   25.4240 O.2   405  4IP405     -0.2224
     16  O3P       82.8830   82.7380   27.8680 O.3   405  4IP405     -0.1145
     17  P3        78.8550   85.2970   22.3240 P.3   405  4IP405      0.5327
     18  O4P       77.4280   84.9900   22.7470 O.3   405  4IP405     -0.1145
     19  O5P       79.7540   84.0740   22.3300 O.3   405  4IP405     -0.1145
     20  O6P       78.9420   86.1360   21.0740 O.2   405  4IP405     -0.2224
     21  P4        76.4080   87.6900   24.6000 P.3   405  4IP405      0.5327
     22  O7P       77.2770   88.9180   24.6650 O.3   405  4IP405     -0.1145
     23  O8P       75.1270   87.7750   25.3800 O.3   405  4IP405     -0.1145
     24  O9P       76.2150   87.1570   23.1990 O.2   405  4IP405     -0.2224
     25  P5        77.2660   86.7240   29.3830 P.3   405  4IP405      0.5327
     26  OPF       76.4470   85.4800   29.1030 O.2   405  4IP405     -0.2224
     27  OPG       76.3960   87.9220   29.6620 O.3   405  4IP405     -0.1145
     28  OPH       78.3850   86.5270   30.3630 O.3   405  4IP405     -0.1145
@<TRIPOS>BOND
     1    20    17    2
     2    17    19    1
     3    17    18    1
     4    17     6    1
     5    24    21    2
     6     6     5    1
     7    21    22    1
     8    21     8    1
     9    21    23    1
    10     5     3    1
    11     5     7    1
    12     3     4    1
    13     3     1    1
    14     8     7    1
    15    15    13    2
    16     7     9    1
    17     1     2    1
    18     1    11    1
    19    13    14    1
    20    13     2    1
    21    13    16    1
    22     9    11    1
    23     9    10    1
    24    11    12    1
    25    10    25    1
    26    26    25    2
    27    25    27    1
    28    25    28    1
