@<TRIPOS>MOLECULE
2r0d_4IP_A_1.pdb
 28 28 0 0 0
SMALL
GASTEIGER

@<TRIPOS>ATOM
      1  C1        -2.5460    9.4460  -26.6100 C.3   402  4IP402      0.1917
      2  O1        -1.1840    9.4460  -27.0460 O.3   402  4IP402     -0.2673
      3  C2        -2.5980    8.7930  -25.2250 C.3   402  4IP402      0.2120
      4  O2        -2.0420    7.4670  -25.2740 O.3   402  4IP402     -0.2177
      5  C3        -4.0440    8.7400  -24.7480 C.3   402  4IP402      0.1890
      6  O3        -4.0900    8.2900  -23.3980 O.3   402  4IP402     -0.2674
      7  C4        -4.9230    7.8980  -25.6730 C.3   402  4IP402      0.1865
      8  O4        -6.2840    8.0270  -25.2540 O.3   402  4IP402     -0.2675
      9  C5        -4.8470    8.4030  -27.1190 C.3   402  4IP402      0.1890
     10  O5        -5.5060    7.4540  -27.9710 O.3   402  4IP402     -0.2674
     11  C6        -3.4130    8.6720  -27.6120 C.3   402  4IP402      0.2120
     12  O6        -3.4820    9.4150  -28.8420 O.3   402  4IP402     -0.2177
     13  P1        -0.2540   10.7780  -26.9890 P.3   402  4IP402      0.5327
     14  O1P        1.0990   10.1810  -26.8360 O.3   402  4IP402     -0.1145
     15  O2P       -0.5140   11.4590  -28.3170 O.2   402  4IP402     -0.2224
     16  O3P       -0.7630   11.5890  -25.8310 O.3   402  4IP402     -0.1145
     17  P3        -4.6670    9.2360  -22.2320 P.3   402  4IP402      0.5327
     18  O4P       -6.0890    9.5790  -22.6350 O.2   402  4IP402     -0.2224
     19  O5P       -3.7920   10.4820  -22.2550 O.3   402  4IP402     -0.1145
     20  O6P       -4.5720    8.3910  -20.9960 O.3   402  4IP402     -0.1145
     21  P4        -7.1180    6.8980  -24.4890 P.3   402  4IP402      0.5327
     22  O7P       -6.2800    5.6420  -24.4720 O.3   402  4IP402     -0.1145
     23  O8P       -8.4020    6.7700  -25.2740 O.2   402  4IP402     -0.2224
     24  O9P       -7.3500    7.4580  -23.0980 O.3   402  4IP402     -0.1145
     25  P5        -6.2650    7.8790  -29.3290 P.3   402  4IP402      0.5327
     26  OPF       -7.0530    9.1410  -29.0630 O.3   402  4IP402     -0.1145
     27  OPG       -7.1760    6.7060  -29.5930 O.3   402  4IP402     -0.1145
     28  OPH       -5.1120    8.0330  -30.2780 O.2   402  4IP402     -0.2224
@<TRIPOS>BOND
     1    28    25    2
     2    27    25    1
     3    25    26    1
     4    25    10    1
     5    12    11    1
     6    15    13    2
     7    10     9    1
     8    11     9    1
     9    11     1    1
    10     9     7    1
    11     2    13    1
    12     2     1    1
    13    13    14    1
    14    13    16    1
    15     1     3    1
    16     7     8    1
    17     7     5    1
    18     4     3    1
    19    23    21    2
    20     8    21    1
    21     3     5    1
    22     5     6    1
    23    21    22    1
    24    21    24    1
    25     6    17    1
    26    18    17    2
    27    19    17    1
    28    17    20    1
