@<TRIPOS>MOLECULE
2r0g_7CK_A_1.pdb
 27 32 0 0 0
SMALL
GASTEIGER

@<TRIPOS>ATOM
      1  O27       -6.6080   15.7940   44.8670 O.co2 1355  7CK1355    -0.2376
      2  O26       -4.9070   17.2550   44.5570 O.co2 1355  7CK1355    -0.2376
      3  C25       -5.5330   16.1730   44.2740 C.2   1355  7CK1355     0.4178
      4  C7        -5.0330   15.4240   43.3830 C.2   1355  7CK1355     0.2243
      5  N6        -5.4380   15.3500   42.1650 N.2   1355  7CK1355    -0.3260
      6  C22       -3.9670   14.5550   43.5840 C.ar  1355  7CK1355     0.0518
      7  C21       -3.1100   14.2200   44.7420 C.ar  1355  7CK1355     0.0380
      8  C18       -2.0930   13.2250   44.5360 C.ar  1355  7CK1355     0.1609
      9  N12       -1.4080   13.0510   45.7240 N.2   1355  7CK1355    -0.3993
     10  C19       -1.8790   13.8560   46.7000 C.ar  1355  7CK1355     0.1316
     11  C20       -2.9690   14.6340   46.1430 C.ar  1355  7CK1355     0.0322
     12  C8        -3.6350   15.6030   47.0470 C.ar  1355  7CK1355     0.0026
     13  C9        -3.2280   15.7800   48.4320 C.ar  1355  7CK1355     0.0002
     14  C10       -2.1200   14.9700   48.9660 C.ar  1355  7CK1355     0.0026
     15  C11       -1.4590   14.0190   48.0950 C.ar  1355  7CK1355     0.0320
     16  O24       -4.9710   14.2530   40.2220 O.2   1355  7CK1355    -0.2093
     17  C5        -4.7500   14.4750   41.4080 C.1   1355  7CK1355     0.2050
     18  C23       -3.7730   13.9140   42.2800 C.ar  1355  7CK1355     0.1001
     19  C16       -2.7430   12.9390   42.1130 C.ar  1355  7CK1355     0.0466
     20  C17       -1.9120   12.5910   43.2400 C.ar  1355  7CK1355     0.1615
     21  N13       -1.0140   11.6490   42.8420 N.2   1355  7CK1355    -0.3993
     22  C14       -1.2020   11.3610   41.5050 C.ar  1355  7CK1355     0.1316
     23  C15       -2.3080   12.1800   41.0250 C.ar  1355  7CK1355     0.0329
     24  C4        -2.7270   12.0750   39.6070 C.ar  1355  7CK1355     0.0026
     25  C3        -2.0320   11.1690   38.7210 C.ar  1355  7CK1355     0.0002
     26  C2        -0.9160   10.3590   39.2520 C.ar  1355  7CK1355     0.0026
     27  C1        -0.5140   10.4550   40.6170 C.ar  1355  7CK1355     0.0320
@<TRIPOS>BOND
     1    25    26   ar
     2    25    24   ar
     3    26    27   ar
     4    24    23   ar
     5    16    17    2
     6    27    22   ar
     7    23    22   ar
     8    23    19    2
     9    17     5    2
    10    17    18    1
    11    22    21    2
    12    19    18   ar
    13    19    20   ar
    14     5     4    2
    15    18     6   ar
    16    21    20    2
    17    20     8   ar
    18     4     6    1
    19     4     3    1
    20     6     7   ar
    21     3     2   ar
    22     3     1   ar
    23     8     7   ar
    24     8     9    2
    25     7    11    2
    26     9    10    2
    27    11    10   ar
    28    11    12   ar
    29    10    15   ar
    30    12    13   ar
    31    15    14   ar
    32    13    14   ar
