@<TRIPOS>MOLECULE
2r0h_CTO_A_1.pdb
 43 45 0 0 0
SMALL
GASTEIGER

@<TRIPOS>ATOM
      1  C11       24.7800   -9.3600   -8.0400 C.3   165  CTO165      0.2586
      2  C21       24.2290  -10.3140   -6.9940 C.3   165  CTO165      0.1842
      3  N21       25.0880  -11.4800   -6.9960 N.am  165  CTO165     -0.1992
      4  C71       25.6340  -11.9950   -5.9020 C.2   165  CTO165      0.2420
      5  O71       25.7330  -11.3700   -4.8480 O.2   165  CTO165     -0.2733
      6  C81       26.1530  -13.3970   -6.1010 C.3   165  CTO165      0.0964
      7  C31       22.7790  -10.6760   -7.3260 C.3   165  CTO165      0.2094
      8  O31       22.2080  -11.3090   -6.1740 O.3   165  CTO165     -0.2183
      9  C41       21.9580   -9.4000   -7.5520 C.3   165  CTO165      0.2136
     10  O41       20.6420   -9.7190   -8.0210 O.3   165  CTO165     -0.2176
     11  C51       22.6450   -8.4130   -8.4910 C.3   165  CTO165      0.1834
     12  O51       23.9800   -8.1800   -8.0320 O.3   165  CTO165     -0.3262
     13  C61       21.9140   -7.0820   -8.4560 C.3   165  CTO165      0.2142
     14  O61       22.6750   -6.1230   -9.1700 O.3   165  CTO165     -0.2176
     15  C12       29.3680   -7.4530   -9.8030 C.3   165  CTO165      0.2586
     16  C22       28.5690   -6.4640   -8.9570 C.3   165  CTO165      0.1841
     17  N22       29.4470   -5.5450   -8.2130 N.am  165  CTO165     -0.1992
     18  C72       29.8160   -4.3230   -8.6360 C.2   165  CTO165      0.2420
     19  O72       30.4680   -3.5650   -7.9300 O.2   165  CTO165     -0.2733
     20  C82       29.4290   -3.9300  -10.0200 C.3   165  CTO165      0.0964
     21  C32       27.6450   -7.2200   -7.9940 C.3   165  CTO165      0.2062
     22  O32       26.8080   -6.2460   -7.3670 O.3   165  CTO165     -0.2184
     23  C42       26.8330   -8.3040   -8.7110 C.3   165  CTO165      0.1795
     24  O42       26.1410   -9.0590   -7.7150 O.3   165  CTO165     -0.3264
     25  C52       27.7690   -9.2150   -9.5300 C.3   165  CTO165      0.1803
     26  O52       28.5040   -8.3950  -10.4540 O.3   165  CTO165     -0.3263
     27  C62       27.0530  -10.3050  -10.3320 C.3   165  CTO165      0.2141
     28  O62       26.2090   -9.6450  -11.2800 O.3   165  CTO165     -0.2176
     29  C13       33.4810   -7.1160  -12.9740 C.3   165  CTO165      0.2917
     30  O13       34.7090   -7.5910  -13.5520 O.3   165  CTO165     -0.1879
     31  C23       32.2750   -7.8110  -13.6250 C.3   165  CTO165      0.1870
     32  N23       32.2490   -7.4750  -15.0440 N.am  165  CTO165     -0.1991
     33  C73       32.1170   -8.3820  -16.0120 C.2   165  CTO165      0.2420
     34  O73       31.6600   -8.1220  -17.1160 O.2   165  CTO165     -0.2733
     35  C83       32.5850   -9.7530  -15.6740 C.3   165  CTO165      0.0964
     36  C33       30.9970   -7.3130  -12.9480 C.3   165  CTO165      0.2063
     37  O33       29.8330   -8.0220  -13.4290 O.3   165  CTO165     -0.2184
     38  C43       31.0890   -7.4380  -11.4310 C.3   165  CTO165      0.1795
     39  O43       30.0300   -6.7000  -10.8170 O.3   165  CTO165     -0.3264
     40  C53       32.4060   -6.9230  -10.8600 C.3   165  CTO165      0.1803
     41  O53       33.4990   -7.4660  -11.5870 O.3   165  CTO165     -0.3243
     42  C63       32.5480   -7.4060   -9.4150 C.3   165  CTO165      0.2141
     43  O63       33.1360   -6.3500   -8.6440 O.3   165  CTO165     -0.2176
@<TRIPOS>BOND
     1    34    33    2
     2    33    35    1
     3    33    32   am
     4    32    31    1
     5    31    29    1
     6    31    36    1
     7    30    29    1
     8    37    36    1
     9    29    41    1
    10    36    38    1
    11    41    40    1
    12    38    40    1
    13    38    39    1
    14    28    27    1
    15    40    42    1
    16    39    15    1
    17    26    15    1
    18    26    25    1
    19    27    25    1
    20    20    18    1
    21    15    16    1
    22    25    23    1
    23    42    43    1
    24    14    13    1
    25    16    17    1
    26    16    21    1
    27    23    21    1
    28    23    24    1
    29    18    17   am
    30    18    19    2
    31    11    13    1
    32    11    12    1
    33    11     9    1
    34     1    12    1
    35     1    24    1
    36     1     2    1
    37    10     9    1
    38    21    22    1
    39     9     7    1
    40     7     2    1
    41     7     8    1
    42     3     2    1
    43     3     4   am
    44     6     4    1
    45     4     5    2
