@<TRIPOS>MOLECULE
2r0p_K2C_A_1.pdb
 24 29 0 0 0
SMALL
GASTEIGER

@<TRIPOS>ATOM
      1  C7        15.5330  -25.0460   14.8270 C.3   1185  K2C1185     0.1650
      2  N6        15.3250  -23.8900   13.9680 N.2   1185  K2C1185    -0.1976
      3  C22       14.1140  -25.5480   15.0080 C.ar  1185  K2C1185     0.0166
      4  C21       13.6230  -26.6830   15.7640 C.ar  1185  K2C1185     0.0332
      5  C18       12.2110  -26.9650   15.7850 C.ar  1185  K2C1185     0.1606
      6  N12       11.9690  -28.0850   16.5610 N.2   1185  K2C1185    -0.3993
      7  C19       13.1920  -28.5520   17.0560 C.ar  1185  K2C1185     0.1315
      8  C20       14.2440  -27.6960   16.5730 C.ar  1185  K2C1185     0.0319
      9  C8        15.6140  -27.9560   16.9370 C.ar  1185  K2C1185     0.0026
     10  C9        15.9070  -29.0550   17.7680 C.ar  1185  K2C1185     0.0002
     11  C10       14.8600  -29.8990   18.2430 C.ar  1185  K2C1185     0.0026
     12  C11       13.5000  -29.6710   17.9030 C.ar  1185  K2C1185     0.0320
     13  O24       13.6600  -22.7310   12.9240 O.2   1185  K2C1185    -0.2222
     14  C5        14.0440  -23.6560   13.6390 C.1   1185  K2C1185     0.1502
     15  C23       13.2310  -24.7160   14.2970 C.ar  1185  K2C1185     0.0834
     16  C16       11.7990  -24.9780   14.3020 C.ar  1185  K2C1185     0.0453
     17  C17       11.3160  -26.1150   15.0590 C.ar  1185  K2C1185     0.1614
     18  N13        9.9610  -26.1950   14.9410 N.2   1185  K2C1185    -0.3993
     19  C14        9.5020  -25.1600   14.1380 C.ar  1185  K2C1185     0.1316
     20  C15       10.6270  -24.3710   13.7170 C.ar  1185  K2C1185     0.0328
     21  C4        10.3910  -23.2320   12.8700 C.ar  1185  K2C1185     0.0026
     22  C3         9.0700  -22.9360   12.4880 C.ar  1185  K2C1185     0.0002
     23  C2         7.9780  -23.7300   12.9170 C.ar  1185  K2C1185     0.0026
     24  C1         8.1690  -24.8660   13.7550 C.ar  1185  K2C1185     0.0320
@<TRIPOS>BOND
     1    22    21   ar
     2    22    23   ar
     3    21    20   ar
     4    23    24   ar
     5    13    14    2
     6    14     2    2
     7    14    15    1
     8    20    19   ar
     9    20    16    2
    10    24    19   ar
    11     2     1    1
    12    19    18    2
    13    15    16   ar
    14    15     3   ar
    15    16    17   ar
    16     1     3    1
    17    18    17    2
    18     3     4   ar
    19    17     5   ar
    20     4     5   ar
    21     4     8    2
    22     5     6    2
    23     6     7    2
    24     8     9   ar
    25     8     7   ar
    26     9    10   ar
    27     7    12   ar
    28    10    11   ar
    29    12    11   ar
