@<TRIPOS>MOLECULE
2r0t_PGU_A_1.pdb
 25 25 0 0 0
SMALL
GASTEIGER

@<TRIPOS>ATOM
      1  N1         0.5190   14.1780   23.9600 N.ar  500  PGU500     -0.2452
      2  C2        -0.6810   14.5410   24.3510 C.ar  500  PGU500      0.0978
      3  C2A       -0.8850   16.0030   24.6530 C.3   500  PGU500      0.0555
      4  C3        -1.7210   13.5810   24.4850 C.ar  500  PGU500      0.2062
      5  O3        -2.9680   13.9140   24.8810 O.3   500  PGU500     -0.2856
      6  C4        -1.4600   12.2190   24.2450 C.ar  500  PGU500      0.0353
      7  C4A       -2.5400   11.1800   24.4440 C.3   500  PGU500      0.1186
      8  C5        -0.1330   11.8840   23.8870 C.ar  500  PGU500      0.0275
      9  C6         0.8120   12.8880   23.7240 C.ar  500  PGU500      0.0965
     10  C5A        0.2770   10.4500   23.7010 C.3   500  PGU500      0.1816
     11  O4P        0.0220   10.0260   22.4160 O.3   500  PGU500     -0.2653
     12  P         -0.0490    8.4570   22.4000 P.3   500  PGU500      0.5329
     13  O1P       -0.3970    8.0730   20.8890 O.2   500  PGU500     -0.2224
     14  O2P       -1.1850    7.9640   23.3740 O.3   500  PGU500     -0.1145
     15  O3P        1.2830    7.8430   22.9540 O.3   500  PGU500     -0.1145
     16  N         -2.8040   10.9880   25.8900 N.3   500  PGU500     -0.2034
     17  CA        -3.7000    9.8130   26.1470 C.3   500  PGU500      0.1766
     18  CB        -2.8300    8.6170   26.5930 C.3   500  PGU500      0.0407
     19  CG        -3.4840    7.3410   26.1070 C.3   500  PGU500      0.1161
     20  CD        -2.4350    6.2540   25.9540 C.2   500  PGU500      0.3649
     21  OE1       -2.5020    5.2270   26.7070 O.co2 500  PGU500     -0.2457
     22  OE2       -1.4930    6.3650   25.0540 O.co2 500  PGU500     -0.2457
     23  C         -4.6880   10.1580   27.2900 C.2   500  PGU500      0.3803
     24  O         -5.2400    9.2140   27.9600 O.co2 500  PGU500     -0.2441
     25  OXT       -4.9300   11.3900   27.5950 O.co2 500  PGU500     -0.2441
@<TRIPOS>BOND
     1    13    12    2
     2    12    11    1
     3    12    15    1
     4    12    14    1
     5    11    10    1
     6    10     8    1
     7     9     8   ar
     8     9     1   ar
     9     8     6   ar
    10     1     2   ar
    11     6     7    1
    12     6     4   ar
    13     2     4   ar
    14     2     3    1
    15     7    16    1
    16     4     5    1
    17    22    20   ar
    18    16    17    1
    19    20    19    1
    20    20    21   ar
    21    19    18    1
    22    17    18    1
    23    17    23    1
    24    23    25   ar
    25    23    24   ar
