@<TRIPOS>MOLECULE
2r0u_M54_A_1.pdb
 31 35 0 0 0
SMALL
GASTEIGER

@<TRIPOS>ATOM
      1  C         19.8780   -2.0870    9.4050 C.ar  324  M54324     -0.0005
      2  C1        19.9870   -3.3720   10.1190 C.ar  324  M54324     -0.0002
      3  C2        18.8590   -3.9520   10.8160 C.ar  324  M54324     -0.0003
      4  C3        18.6100   -1.3970    9.3630 C.ar  324  M54324      0.0005
      5  C4        17.4550   -1.9640    9.9920 C.ar  324  M54324      0.0106
      6  C5        17.5860   -3.2680   10.7390 C.ar  324  M54324     -0.0033
      7  C6        16.4460   -3.8580   11.3820 C.ar  324  M54324     -0.0221
      8  C7        15.1960   -3.2330   11.3060 C.ar  324  M54324     -0.0035
      9  C8        16.1580   -1.3310    9.9400 C.ar  324  M54324      0.0831
     10  C9        14.9890   -1.9590   10.6170 C.ar  324  M54324      0.0119
     11  C10       13.6890   -1.3150   10.5650 C.2   324  M54324      0.0171
     12  C11       13.4940   -0.0980    9.9540 C.2   324  M54324      0.1107
     13  N         14.6310    0.5080    9.2790 N.2   324  M54324     -0.1747
     14  C12       15.8860   -0.0490    9.2160 C.1   324  M54324      0.1544
     15  O         16.7780    0.5950    8.5610 O.2   324  M54324     -0.2219
     16  C13       21.0740   -1.5050    8.7300 C.2   324  M54324      0.0249
     17  C14       22.3460   -2.1160    8.6840 C.3   324  M54324      0.1771
     18  N15       23.1200   -1.2290    7.9730 N.2   324  M54324     -0.1695
     19  N16       22.3530   -0.1360    7.6230 N.2   324  M54324     -0.1510
     20  C17       21.0880   -0.2820    8.0510 C.2   324  M54324      0.1194
     21  C18       16.7050   -5.1990   12.1100 C.3   324  M54324      0.0279
     22  C19       16.3020   -5.1920   13.5420 C.3   324  M54324      0.0252
     23  C20       16.9060   -4.1800   14.4100 C.3   324  M54324      0.1097
     24  N21       16.3320   -4.4330   15.7530 N.3   324  M54324     -0.1314
     25  C22       12.4770   -1.9660   11.2320 C.2   324  M54324     -0.0131
     26  C23       11.3210   -2.3750   10.3750 C.3   324  M54324      0.0526
     27  C24       10.0630   -3.3100   12.3420 C.2   324  M54324      0.0378
     28  C25       11.1930   -2.9280   13.1230 C.2   324  M54324      0.1951
     29  C26       10.1100   -3.0050   10.9310 C.2   324  M54324     -0.0181
     30  C27       12.4210   -2.2980   12.6300 C.2   324  M54324      0.0381
     31  O28       11.1560   -3.1890   14.2910 O.2   324  M54324     -0.2866
@<TRIPOS>BOND
     1    19    18    2
     2    19    20    1
     3    18    17    1
     4    20    16    2
     5    15    14    2
     6    17    16    1
     7    16     1    1
     8    14    13    2
     9    14     9    1
    10    13    12    1
    11     4     1   ar
    12     4     5   ar
    13     1     2   ar
    14     9     5   ar
    15     9    10   ar
    16    12    11    2
    17     5     6   ar
    18     2     3   ar
    19    26    29    1
    20    26    25    1
    21    11    10    1
    22    11    25    1
    23    10     8   ar
    24     6     3   ar
    25     6     7   ar
    26    29    27    2
    27    25    30    2
    28     8     7   ar
    29     7    21    1
    30    21    22    1
    31    27    28    1
    32    30    28    1
    33    28    31    2
    34    22    23    1
    35    23    24    1
