@<TRIPOS>MOLECULE
2r0y_LYS_B_1.pdb
 12 11 0 0 0
SMALL
GASTEIGER

@<TRIPOS>ATOM
      1  OH        26.2960   11.9560    6.4600 O.2    14  LYS14      -0.2733
      2  CH        27.4360   11.6540    6.1390 C.2    14  LYS14       0.2419
      3  CH3       28.5950   11.6290    7.1160 C.3    14  LYS14       0.0964
      4  NZ        27.7610   11.3040    4.8890 N.am   14  LYS14      -0.2054
      5  CE        26.7950   11.2740    3.8070 C.3    14  LYS14       0.1151
      6  CD        26.5070    9.8290    3.4250 C.3    14  LYS14       0.0235
      7  CG        26.9600    9.5410    2.0000 C.3    14  LYS14       0.0038
      8  CB        25.8630    9.9310    1.0050 C.3    14  LYS14       0.0271
      9  CA        24.5220    9.1960    1.1880 C.3    14  LYS14       0.1561
     10  N         24.6320    7.7830    0.7160 N.3    14  LYS14      -0.1245
     11  C         23.3820    9.8840    0.4750 C.2    14  LYS14       0.2260
     12  O         23.5510   10.5310   -0.5690 O.2    14  LYS14      -0.2867
@<TRIPOS>BOND
     1    12    11    2
     2    11     9    1
     3    10     9    1
     4     8     9    1
     5     8     7    1
     6     7     6    1
     7     6     5    1
     8     5     4    1
     9     4     2   am
    10     2     1    2
    11     2     3    1
