@<TRIPOS>MOLECULE
2r14_TXD_A_1.pdb
 44 48 0 0 0
SMALL
GASTEIGER

@<TRIPOS>ATOM
      1  O7N       15.4580   51.5590   20.4140 O.2   600  TXD600     -0.2716
      2  C7N       14.2390   52.1980   20.3340 C.2   600  TXD600      0.2616
      3  N7N       14.2040   53.5380   20.3130 N.am  600  TXD600     -0.0878
      4  C3N       12.9530   51.4350   20.3490 C.3   600  TXD600      0.0959
      5  C2N       12.9910   50.0510   20.1890 C.3   600  TXD600      0.0834
      6  C4N       11.7810   52.1140   20.0090 C.3   600  TXD600      0.0120
      7  C5N       10.6090   51.3640   20.5850 C.3   600  TXD600      0.0179
      8  C6N       10.6030   49.9210   20.1480 C.3   600  TXD600      0.0743
      9  N1N       11.8400   49.3380   20.3320 N.3   600  TXD600     -0.2482
     10 C1'A       11.9760   47.8780   20.0610 C.3   600  TXD600      0.2096
     11 O4'A       11.6010   47.6840   18.6950 O.3   600  TXD600     -0.3354
     12 C2'A       11.0640   46.9580   20.8710 C.3   600  TXD600      0.2271
     13 O2'A       11.6360   46.5880   22.1120 O.3   600  TXD600     -0.2161
     14 C3'A       10.8540   45.7870   19.9010 C.3   600  TXD600      0.2155
     15 O3'A       11.8940   44.8270   20.0210 O.3   600  TXD600     -0.2176
     16 C4'A       10.9190   46.4280   18.5210 C.3   600  TXD600      0.1796
     17 C5'A        9.5290   46.6550   17.9260 C.3   600  TXD600      0.1813
     18 O5'A        8.6990   47.3750   18.8370 O.3   600  TXD600     -0.3112
     19  PN         7.0930   47.5540   18.5940 P.3   600  TXD600      0.2189
     20  O1N        6.5900   46.2690   18.0450 O.2   600  TXD600     -0.5170
     21  O2N        6.5390   47.9630   19.9240 O.3   600  TXD600     -0.4371
     22  O3         7.1010   48.8370   17.6700 O.3   600  TXD600     -0.2703
     23  PA         6.1600   49.1730   16.4130 P.3   600  TXD600      0.2189
     24  O2P        4.7330   48.9760   16.6710 O.3   600  TXD600     -0.4371
     25  O1P        6.6830   48.6350   15.1470 O.2   600  TXD600     -0.5170
     26  O5'        6.4120   50.7330   16.4300 O.3   600  TXD600     -0.3112
     27  C5'        7.7100   51.2140   16.1640 C.3   600  TXD600      0.1813
     28  C4'        7.7500   52.7350   16.3580 C.3   600  TXD600      0.1821
     29  C3'        7.4140   53.2470   17.7670 C.3   600  TXD600      0.2184
     30  O3'        8.5060   53.1770   18.6650 O.3   600  TXD600     -0.2174
     31  C2'        7.0250   54.6640   17.4770 C.3   600  TXD600      0.2570
     32  O2'        8.1910   55.4300   17.3090 O.3   600  TXD600     -0.2130
     33  C1'        6.3180   54.5580   16.1450 C.3   600  TXD600      0.3186
     34  O4'        6.8020   53.3890   15.5290 O.3   600  TXD600     -0.3135
     35  N9A        4.8620   54.3770   16.2550 N.pl3 600  TXD600     -0.1439
     36  C4A        4.0000   55.3660   16.5380 C.2   600  TXD600      0.3518
     37  N3A        4.2150   56.6940   16.8160 N.2   600  TXD600     -0.0055
     38  C2A        3.1310   57.4570   17.0770 C.3   600  TXD600      0.5254
     39  N1A        1.8620   56.9740   17.0410 N.2   600  TXD600      0.0021
     40  C6A        1.6140   55.6350   16.7670 C.2   600  TXD600      0.4393
     41  N6A        0.3510   55.2020   16.6540 N.pl3 600  TXD600      0.2180
     42  C5A        2.7090   54.8200   16.5100 C.2   600  TXD600      0.2526
     43  N7A        2.8310   53.4910   16.2070 N.2   600  TXD600     -0.2095
     44  C8A        4.1370   53.2350   16.0290 C.3   600  TXD600      0.3377
@<TRIPOS>BOND
     1    25    23    2
     2    34    33    1
     3    34    28    1
     4    44    43    1
     5    44    35    1
     6    33    35    1
     7    33    31    1
     8    27    28    1
     9    27    26    1
    10    43    42    2
    11    35    36    1
    12    28    29    1
    13    23    26    1
    14    23    24    1
    15    23    22    1
    16    42    36    1
    17    42    40    1
    18    36    37    2
    19    41    40    1
    20    40    39    2
    21    37    38    1
    22    39    38    1
    23    32    31    1
    24    31    29    1
    25    22    19    1
    26    29    30    1
    27    17    16    1
    28    17    18    1
    29    20    19    2
    30    16    11    1
    31    16    14    1
    32    19    18    1
    33    19    21    1
    34    11    10    1
    35    14    15    1
    36    14    12    1
    37     6     4    1
    38     6     7    1
    39    10     9    1
    40    10    12    1
    41     8     9    1
    42     8     7    1
    43     5     9    1
    44     5     4    1
    45     3     2   am
    46     2     4    1
    47     2     1    2
    48    12    13    1
