@<TRIPOS>MOLECULE
2r14_FMN_A_1.pdb
 31 33 0 0 0
SMALL
GASTEIGER

@<TRIPOS>ATOM
      1  N1        14.7180   50.6690   24.0150 N.2   401  FMN401     -0.2887
      2  C2        15.6030   51.7090   23.8950 C.1   401  FMN401      0.3669
      3  O2        16.8360   51.5590   24.0250 O.2   401  FMN401     -0.1744
      4  N3        15.1390   52.9990   23.6060 N.2   401  FMN401     -0.2300
      5  C4        13.7880   53.3150   23.4910 C.1   401  FMN401      0.2513
      6  O4        13.4920   54.5680   23.3840 O.2   401  FMN401     -0.2057
      7  C4A       12.8920   52.2190   23.5970 C.2   401  FMN401      0.2706
      8  N5        11.5580   52.4630   23.4510 N.2   401  FMN401     -0.3841
      9  C5A       10.6410   51.4900   23.7030 C.2   401  FMN401      0.1452
     10  C6         9.2770   51.7250   23.5990 C.2   401  FMN401      0.0252
     11  C7         8.3670   50.7040   23.8310 C.2   401  FMN401     -0.0375
     12  C7M        6.9210   51.0280   24.0100 C.3   401  FMN401      0.0268
     13  C8         8.7720   49.3910   24.1240 C.3   401  FMN401      0.0417
     14  C8M        7.8740   48.2710   24.6410 C.3   401  FMN401      0.0091
     15  C9        10.1540   49.1400   24.2060 C.2   401  FMN401     -0.0049
     16  C9A       11.0800   50.1600   23.9920 C.2   401  FMN401      0.0795
     17  N10       12.4640   49.9260   24.0890 N.pl3 401  FMN401     -0.2545
     18  C10       13.3730   50.9470   23.8990 C.2   401  FMN401      0.2449
     19  C1'       13.0050   48.6790   24.6530 C.3   401  FMN401      0.1336
     20  C2'       12.8580   48.7290   26.1730 C.3   401  FMN401      0.2048
     21  O2'       13.7770   49.6430   26.7520 O.3   401  FMN401     -0.2185
     22  C3'       13.0970   47.3080   26.7560 C.3   401  FMN401      0.2165
     23  O3'       14.4570   46.9890   26.4990 O.3   401  FMN401     -0.2175
     24  C4'       12.1810   46.1640   26.2740 C.3   401  FMN401      0.2147
     25  O4'       10.8150   46.5330   26.3190 O.3   401  FMN401     -0.2176
     26  C5'       12.3550   44.8150   27.0330 C.3   401  FMN401      0.1892
     27  O5'       12.0910   44.9940   28.4390 O.3   401  FMN401     -0.2674
     28  P         10.6540   44.6660   29.0980 P.3   401  FMN401      0.5327
     29  O1P        9.6020   45.6100   28.4910 O.2   401  FMN401     -0.2224
     30  O2P       10.5140   43.1930   28.8270 O.3   401  FMN401     -0.1145
     31  O3P       10.8370   44.7970   30.5920 O.3   401  FMN401     -0.1145
@<TRIPOS>BOND
     1     6     5    2
     2     8     7    2
     3     8     9    2
     4     5     7    1
     5     5     4    2
     6     7    18    1
     7    10     9    1
     8    10    11    2
     9     4     2    2
    10     9    16    1
    11    11    12    1
    12    11    13    1
    13     2     1    2
    14     2     3    2
    15    18     1    2
    16    18    17    1
    17    16    17    1
    18    16    15    2
    19    17    19    1
    20    13    15    1
    21    13    14    1
    22    19    20    1
    23    20    21    1
    24    20    22    1
    25    24    25    1
    26    24    22    1
    27    24    26    1
    28    23    22    1
    29    26    27    1
    30    27    28    1
    31    29    28    2
    32    30    28    1
    33    28    31    1
