@<TRIPOS>MOLECULE
2r1h_HEM_A_1.pdb
 43 50 0 0 0
SMALL
GASTEIGER

@<TRIPOS>ATOM
      1  CHA       28.4470    2.9840   33.0120 C.2   143  HEM143      0.0000
      2  CHB       24.0560    3.3440   34.9070 C.2   143  HEM143      0.0000
      3  CHC       22.3740    4.3290   30.4360 C.2   143  HEM143      0.0000
      4  CHD       26.7910    4.0810   28.5010 C.2   143  HEM143      0.0000
      5  C1A       27.4450    3.0010   33.9480 C.2   143  HEM143      0.0000
      6  C2A       27.5520    2.7510   35.3830 C.2   143  HEM143      0.0000
      7  C3A       26.3220    2.8460   35.9090 C.2   143  HEM143      0.0000
      8  C4A       25.4080    3.1600   34.8120 C.2   143  HEM143      0.0000
      9  CMA       25.8910    2.6730   37.3830 C.3   143  HEM143      0.0000
     10  CAA       28.8620    2.4490   36.1360 C.3   143  HEM143      0.0000
     11  CBA       29.5890    3.7750   36.3710 C.3   143  HEM143      0.0000
     12  CGA       30.6660    3.6020   37.4220 C.2   143  HEM143      0.0000
     13  O1A       31.7860    3.2210   37.0020 O.co2 143  HEM143      0.0000
     14  O2A       30.3960    3.8310   38.6380 O.co2 143  HEM143      0.0000
     15  C1B       23.2210    3.6220   33.8470 C.ar  143  HEM143      0.0000
     16  C2B       21.8020    3.7200   33.9430 C.ar  143  HEM143      0.0000
     17  C3B       21.3260    4.0140   32.7170 C.ar  143  HEM143      0.0000
     18  C4B       22.4480    4.0760   31.7980 C.ar  143  HEM143      0.0000
     19  CMB       21.0030    3.5600   35.2610 C.3   143  HEM143      0.0000
     20  CAB       19.8300    4.2120   32.3540 C.2   143  HEM143      0.0000
     21  CBB       19.4780    5.0570   31.3590 C.2   143  HEM143      0.0000
     22  C1C       23.3750    4.2550   29.4870 C.2   143  HEM143      0.0000
     23  C2C       23.2320    4.2690   28.0230 C.2   143  HEM143      0.0000
     24  C3C       24.4600    4.1810   27.4820 C.2   143  HEM143      0.0000
     25  C4C       25.4170    4.1380   28.5880 C.2   143  HEM143      0.0000
     26  CMC       21.9040    4.3480   27.2530 C.3   143  HEM143      0.0000
     27  CAC       24.8590    4.1520   26.0020 C.2   143  HEM143      0.0000
     28  CBC       24.0190    3.6390   25.0790 C.2   143  HEM143      0.0000
     29  C1D       27.6090    3.7030   29.5550 C.ar  143  HEM143      0.0000
     30  C2D       28.9880    3.2930   29.3690 C.ar  143  HEM143      0.0000
     31  C3D       29.4970    2.9510   30.7500 C.ar  143  HEM143      0.0000
     32  C4D       28.3670    3.1620   31.6540 C.ar  143  HEM143      0.0000
     33  CMD       29.7930    3.2270   28.0570 C.3   143  HEM143      0.0000
     34  CAD       30.9240    2.4440   31.0320 C.3   143  HEM143      0.0000
     35  CBD       30.9350    0.9080   31.0060 C.3   143  HEM143      0.0000
     36  CGD       32.2840    0.3430   30.5770 C.2   143  HEM143      0.0000
     37  O1D       32.4370   -0.8880   30.6380 O.co2 143  HEM143      0.0000
     38  O2D       33.2150    1.0880   30.1640 O.co2 143  HEM143      0.0000
     39  NA        26.1170    3.2400   33.6560 N.2   143  HEM143      0.0000
     40  NB        23.6160    3.8470   32.5340 N.ar  143  HEM143      0.0000
     41  NC        24.7160    4.1850   29.7610 N.2   143  HEM143      0.0000
     42  ND        27.2590    3.6260   30.8980 N.ar  143  HEM143      0.0000
     43 FE         25.4530    3.8380   31.7080 Fe    143  HEM143      0.0000
@<TRIPOS>BOND
     1    28    27    2
     2    27    24    1
     3    26    23    1
     4    24    23    2
     5    24    25    1
     6    23    22    1
     7    33    30    1
     8     4    25    1
     9     4    29    2
    10    25    41    2
    11    30    29   ar
    12    30    31   ar
    13    22    41    1
    14    22     3    2
    15    29    42   ar
    16    41    43    1
    17    38    36   ar
    18     3    18    1
    19    36    37   ar
    20    36    35    1
    21    31    34    1
    22    31    32   ar
    23    42    32   ar
    24    42    43    1
    25    35    34    1
    26    21    20    2
    27    32     1    2
    28    43    40    1
    29    43    39    1
    30    18    40   ar
    31    18    17   ar
    32    20    17    1
    33    40    15   ar
    34    17    16   ar
    35     1     5    1
    36    39     5    2
    37    39     8    1
    38    15    16   ar
    39    15     2    1
    40    16    19    1
    41     5     6    1
    42     8     2    2
    43     8     7    1
    44     6     7    2
    45     6    10    1
    46     7     9    1
    47    10    11    1
    48    11    12    1
    49    13    12   ar
    50    12    14   ar
