@<TRIPOS>MOLECULE
2r1n_EPL_A_1.pdb
 17 17 0 0 0
SMALL
GASTEIGER

@<TRIPOS>ATOM
      1  O1        27.3900   19.5130   -1.5440 O.2   701  EPL701     -0.2152
      2  P         28.1440   19.8790   -0.1460 P.3   701  EPL701      0.5346
      3  O2        29.6080   19.2460   -0.2140 O.3   701  EPL701     -0.2637
      4  C8        30.6560   19.7860    0.5880 C.3   701  EPL701      0.1548
      5  C9        30.7510   19.0080    1.8680 C.3   701  EPL701      0.0353
      6  O4        28.2670   21.4390    0.1640 O.3   701  EPL701     -0.2637
      7  C10       28.5110   22.4080   -0.8530 C.3   701  EPL701      0.1548
      8  C11       29.0040   23.6640   -0.1750 C.3   701  EPL701      0.0353
      9  O3        27.6110   19.2930    1.2690 O.3   701  EPL701     -0.4025
     10  C4        26.3210   19.2760    1.7400 C.ar  701  EPL701      0.1491
     11  C2        25.6370   18.0670    1.7540 C.ar  701  EPL701      0.0405
     12  C3        24.3530   17.9930    2.2840 C.ar  701  EPL701      0.0400
     13  C1        23.7450   19.1490    2.7780 C.ar  701  EPL701      0.1389
     14  O5        22.4560   19.1190    3.2840 O.3   701  EPL701     -0.4714
     15  C7        21.6310   17.9510    3.3330 C.3   701  EPL701      0.2525
     16  C5        24.4430   20.3580    2.7690 C.ar  701  EPL701      0.0400
     17  C6        25.7320   20.4230    2.2500 C.ar  701  EPL701      0.0405
@<TRIPOS>BOND
     1     1     2    2
     2     7     8    1
     3     7     6    1
     4     3     2    1
     5     3     4    1
     6     2     6    1
     7     2     9    1
     8     4     5    1
     9     9    10    1
    10    10    11   ar
    11    10    17   ar
    12    11    12   ar
    13    17    16   ar
    14    12    13   ar
    15    16    13   ar
    16    13    14    1
    17    14    15    1
