@<TRIPOS>MOLECULE
2r1r_TTP_A_1.pdb
 29 30 0 0 0
SMALL
GASTEIGER

@<TRIPOS>ATOM
      1  PA         2.9190   84.8440   -9.8200 P.3   762  TTP762      0.2189
      2  O1A        3.6830   85.1250  -11.1020 O.2   762  TTP762     -0.5170
      3  O2A        1.4730   84.7550   -9.8330 O.3   762  TTP762     -0.4371
      4  O3A        3.4470   83.4530   -9.2050 O.3   762  TTP762     -0.2700
      5  PB         4.5250   82.3370   -9.6660 P.3   762  TTP762      0.2277
      6  O1B        4.1060   81.9800  -11.0210 O.2   762  TTP762     -0.5168
      7  O2B        4.4550   81.2230   -8.6450 O.3   762  TTP762     -0.4368
      8  O3B        6.0300   83.0680   -9.5940 O.3   762  TTP762     -0.2258
      9  PG         7.0760   82.8310  -10.8520 P.3   762  TTP762      0.5373
     10  O1G        6.5050   83.5820  -12.1230 O.2   762  TTP762     -0.2221
     11  O2G        8.4900   83.4190  -10.4490 O.3   762  TTP762     -0.1143
     12  O3G        7.1810   81.2760  -11.1290 O.3   762  TTP762     -0.1143
     13  O5'        3.3370   85.9190   -8.7100 O.3   762  TTP762     -0.3112
     14  C5'        4.7290   86.0220   -8.3560 C.3   762  TTP762      0.1812
     15  C4'        5.0870   87.4290   -7.9610 C.3   762  TTP762      0.1773
     16  O4'        5.2460   88.1630   -9.1570 O.3   762  TTP762     -0.3339
     17  C3'        4.0170   88.1770   -7.1430 C.3   762  TTP762      0.1857
     18  O3'        4.8340   88.9580   -6.2790 O.3   762  TTP762     -0.2203
     19  C2'        3.2640   88.9480   -8.1990 C.3   762  TTP762      0.0874
     20  C1'        4.3820   89.3180   -9.1870 C.3   762  TTP762      0.2090
     21  N1         3.8800   89.5120  -10.5770 N.am  762  TTP762     -0.1794
     22  C2         3.9230   90.7910  -11.1450 C.1   762  TTP762      0.2844
     23  O2         4.3660   91.7530  -10.5220 O.2   762  TTP762     -0.1918
     24  N3         3.4360   90.9240  -12.4610 N.2   762  TTP762     -0.2455
     25  C4         2.9200   89.8770  -13.2260 C.1   762  TTP762      0.2134
     26  O4         2.5230   90.1040  -14.3630 O.2   762  TTP762     -0.2088
     27  C5         2.9140   88.5850  -12.5560 C.2   762  TTP762      0.0891
     28  C5M        2.3810   87.3470  -13.2650 C.3   762  TTP762      0.0462
     29  C6         3.3760   88.4430  -11.3000 C.2   762  TTP762      0.0877
@<TRIPOS>BOND
     1    26    25    2
     2    28    27    1
     3    25    27    1
     4    25    24    2
     5    27    29    2
     6    24    22    2
     7    10     9    2
     8    29    21    1
     9    22    21   am
    10    22    23    2
    11    12     9    1
    12     2     1    2
    13     6     5    2
    14     9    11    1
    15     9     8    1
    16    21    20    1
    17     3     1    1
    18     1     4    1
    19     1    13    1
    20     5     8    1
    21     5     4    1
    22     5     7    1
    23    20    16    1
    24    20    19    1
    25    16    15    1
    26    13    14    1
    27    14    15    1
    28    19    17    1
    29    15    17    1
    30    17    18    1
