@<TRIPOS>MOLECULE
2r1r_III_P_1.pdb
 31 31 0 0 0
SMALL
GASTEIGER

@<TRIPOS>ATOM
      1  N         -4.4720   66.0530   30.9250 N.3     1  TYR1       -0.1227
      2  CA        -3.9610   65.0390   29.9720 C.3     1  TYR1        0.1736
      3  C         -3.4300   65.6920   28.6940 C.2     1  TYR1        0.2595
      4  O         -3.4500   66.9090   28.5840 O.2     1  TYR1       -0.2718
      5  CB        -4.9500   63.9770   29.5490 C.3     1  TYR1        0.0548
      6  CG        -6.3450   64.3590   29.1540 C.ar    1  TYR1       -0.0200
      7  CD1       -7.2380   64.9210   30.0490 C.ar    1  TYR1       -0.0009
      8  CD2       -6.7810   64.1470   27.8480 C.ar    1  TYR1       -0.0009
      9  CE1       -8.5220   65.2720   29.6740 C.ar    1  TYR1        0.0417
     10  CE2       -8.0670   64.4900   27.4510 C.ar    1  TYR1        0.0417
     11  CZ        -8.9230   65.0480   28.3800 C.ar    1  TYR1        0.1957
     12  OH       -10.2040   65.3930   27.9880 O.3     1  TYR1       -0.2866
     13  N         -3.0050   64.8460   27.7680 N.am    2  LEU2       -0.1966
     14  CA        -2.2670   65.2970   26.5960 C.3     2  LEU2        0.1728
     15  C         -2.6670   64.6310   25.2910 C.2     2  LEU2        0.2616
     16  O         -1.8610   63.9940   24.6090 O.2     2  LEU2       -0.2715
     17  CB        -0.7960   64.9950   26.8490 C.3     2  LEU2        0.0311
     18  CG         0.3780   65.9460   26.7690 C.3     2  LEU2        0.0022
     19  CD1        1.3920   65.4260   25.7490 C.3     2  LEU2        0.0001
     20  CD2        0.0360   67.4080   26.4980 C.3     2  LEU2        0.0001
     21  N         -3.9160   64.7800   24.8910 N.am    3  VAL3       -0.1963
     22  CA        -4.4540   64.2760   23.6320 C.3     3  VAL3        0.1727
     23  C         -4.3790   62.8300   23.1810 C.2     3  VAL3        0.2616
     24  O         -5.4800   62.2360   23.0030 O.2     3  VAL3       -0.2715
     25  CB        -3.9360   65.2210   22.4990 C.3     3  VAL3        0.0290
     26  CG1       -4.0850   64.6870   21.0920 C.3     3  VAL3        0.0023
     27  CG2       -4.7130   66.5350   22.6240 C.3     3  VAL3        0.0023
     28  N         -3.1990   62.2760   22.8830 N.am    4  GLY4       -0.1955
     29  CA        -3.1470   60.9130   22.3360 C.3     4  GLY4        0.1869
     30  C         -3.2220   60.8590   20.8190 C.2     4  GLY4        0.2309
     31  O         -3.1330   59.7560   20.2250 O.2     4  GLY4       -0.2863
@<TRIPOS>BOND
     1    31    30    2
     2    30    29    1
     3    26    25    1
     4    29    28    1
     5    25    27    1
     6    25    22    1
     7    28    23   am
     8    24    23    2
     9    23    22    1
    10    22    21    1
    11    16    15    2
    12    21    15   am
    13    15    14    1
    14    19    18    1
    15    20    18    1
    16    14    17    1
    17    14    13    1
    18    18    17    1
    19    10     8   ar
    20    10    11   ar
    21    13     3   am
    22     8     6   ar
    23    12    11    1
    24    11     9   ar
    25     4     3    2
    26     3     2    1
    27     6     5    1
    28     6     7   ar
    29     5     2    1
    30     9     7   ar
    31     2     1    1
