@<TRIPOS>MOLECULE
2r1w_KDB_A_1.pdb
 14 14 0 0 0
SMALL
GASTEIGER

@<TRIPOS>ATOM
      1  O2        -6.0950    4.1660   69.8100 O.3   217  KDB217     -0.1782
      2  C2        -5.9760    4.6170   71.2750 C.3   217  KDB217      0.3322
      3  C1        -5.5400    6.1030   71.2820 C.2   217  KDB217      0.4220
      4  O1B       -4.5990    6.4020   70.5410 O.co2 217  KDB217     -0.2397
      5  O1A       -6.1400    6.9060   72.0540 O.co2 217  KDB217     -0.2397
      6  C3        -4.9770    3.8480   71.9310 C.2   217  KDB217      0.0387
      7  C4        -5.2610    3.0090   73.0320 C.2   217  KDB217     -0.0226
      8  C5        -6.5850    2.7440   73.4610 C.3   217  KDB217      0.0582
      9  C6        -7.6630    3.1800   72.4220 C.3   217  KDB217      0.1557
     10  O6        -7.2700    4.4890   71.9400 O.3   217  KDB217     -0.3206
     11  C7        -9.1120    3.2570   72.9260 C.3   217  KDB217      0.2120
     12  O7        -9.2010    4.2430   73.9610 O.3   217  KDB217     -0.2177
     13  C8        -9.6440    1.9260   73.4840 C.3   217  KDB217      0.2173
     14  O8        -9.3650    0.8310   72.6020 O.3   217  KDB217     -0.2175
@<TRIPOS>BOND
     1     1     2    1
     2     4     3   ar
     3     2     3    1
     4     2     6    1
     5     2    10    1
     6     3     5   ar
     7     6     7    2
     8    10     9    1
     9     9    11    1
    10     9     8    1
    11    14    13    1
    12    11    13    1
    13    11    12    1
    14     7     8    1
