@<TRIPOS>MOLECULE
2r1w_KDA_B_1.pdb
 18 18 0 0 0
SMALL
GASTEIGER

@<TRIPOS>ATOM
      1  C1        -8.0430    0.5870   66.2790 C.2   212  KDA212      0.4152
      2  O1A       -9.1180    1.2080   65.9900 O.co2 212  KDA212     -0.2402
      3  O1B       -7.9620   -0.6440   66.4060 O.co2 212  KDA212     -0.2402
      4  C2        -6.7410    1.3930   66.5330 C.3   212  KDA212      0.2866
      5  C3        -5.8610    1.2660   65.2620 C.3   212  KDA212      0.1036
      6  C4        -4.6840    2.2490   65.4810 C.3   212  KDA212      0.1901
      7  O4        -3.9510    2.2270   64.2570 O.3   212  KDA212     -0.2201
      8  C5        -5.1010    3.7160   65.7950 C.3   212  KDA212      0.2118
      9  O5        -5.9900    4.3050   64.7780 O.3   212  KDA212     -0.2177
     10  C6        -5.8530    3.6210   67.1260 C.3   212  KDA212      0.1810
     11  O6        -6.9830    2.7610   66.9180 O.3   212  KDA212     -0.3231
     12  C7        -6.4700    4.8980   67.7540 C.3   212  KDA212      0.1817
     13  O7        -5.3800    5.7920   67.8610 O.3   212  KDA212     -0.2204
     14  C8        -7.2090    4.7440   69.1000 C.3   212  KDA212      0.0382
     15  O2        -6.1020    0.8490   67.7420 O.3   212  KDA212     -0.3211
     16  C9        -6.9080    0.7560   68.9770 C.3   212  KDA212      0.1714
     17  C10       -6.8020   -0.1450   70.0420 C.2   212  KDA212      0.0057
     18  C11       -5.8320   -1.0920   70.0630 C.2   212  KDA212     -0.0023
@<TRIPOS>BOND
     1     7     6    1
     2     9     8    1
     3     5     6    1
     4     5     4    1
     5     6     8    1
     6     8    10    1
     7     2     1   ar
     8     1     3   ar
     9     1     4    1
    10     4    11    1
    11     4    15    1
    12    11    10    1
    13    10    12    1
    14    15    16    1
    15    12    13    1
    16    12    14    1
    17    16    17    1
    18    17    18    2
