@<TRIPOS>MOLECULE
2r1x_KDA_B_1.pdb
 19 19 0 0 0
SMALL
GASTEIGER

@<TRIPOS>ATOM
      1  C1        -9.6650    0.7790   65.8130 C.2   212  KDA212      0.4152
      2  O1A      -10.6770    1.4220   65.4060 O.co2 212  KDA212     -0.2402
      3  O1B       -9.5760   -0.4450   65.9350 O.co2 212  KDA212     -0.2402
      4  C2        -8.4420    1.5950   66.1190 C.3   212  KDA212      0.2866
      5  C3        -7.4220    1.4510   64.9490 C.3   212  KDA212      0.1036
      6  C4        -6.2640    2.4530   65.1180 C.3   212  KDA212      0.1901
      7  O4        -5.4620    2.4850   63.9080 O.3   212  KDA212     -0.2201
      8  C5        -6.7350    3.8660   65.4330 C.3   212  KDA212      0.2118
      9  O5        -7.5330    4.3380   64.3330 O.3   212  KDA212     -0.2177
     10  C6        -7.6710    3.8730   66.6750 C.3   212  KDA212      0.1837
     11  O6        -8.8220    3.0190   66.4130 O.3   212  KDA212     -0.3230
     12  C7        -8.1730    5.2750   67.0390 C.3   212  KDA212      0.2143
     13  O7        -6.9990    6.0230   67.2990 O.3   212  KDA212     -0.2176
     14  C8        -9.0510    5.2120   68.3060 C.3   212  KDA212      0.2174
     15  O8        -8.1760    4.7630   69.3590 O.3   212  KDA212     -0.2175
     16  O2        -7.8170    1.0870   67.3830 O.3   212  KDA212     -0.3211
     17  C9        -8.6230    1.1100   68.5580 C.3   212  KDA212      0.1714
     18  C10       -8.7470    0.0280   69.3690 C.2   212  KDA212      0.0057
     19  C11       -7.6790   -0.4010   70.1200 C.2   212  KDA212     -0.0023
@<TRIPOS>BOND
     1     7     6    1
     2     9     8    1
     3     5     6    1
     4     5     4    1
     5     6     8    1
     6     2     1   ar
     7     8    10    1
     8     1     3   ar
     9     1     4    1
    10     4    11    1
    11     4    16    1
    12    11    10    1
    13    10    12    1
    14    12    13    1
    15    12    14    1
    16    16    17    1
    17    14    15    1
    18    17    18    1
    19    18    19    2
