@<TRIPOS>MOLECULE
2r1y_KDR_B_1.pdb
 18 18 0 0 0
SMALL
GASTEIGER

@<TRIPOS>ATOM
      1  C11       34.5380   -4.1020    3.5750 C.3   213  KDR213      0.0027
      2  C10       34.4710   -2.8800    4.2650 C.3   213  KDR213      0.0322
      3  C9        33.5560   -2.6680    5.3170 C.3   213  KDR213      0.1451
      4  O2        32.1390   -3.0570    5.2190 O.3   213  KDR213     -0.3284
      5  C2        31.0660   -2.0460    5.3590 C.3   213  KDR213      0.2499
      6  C1        30.1860   -2.4990    6.5280 C.2   213  KDR213      0.2629
      7  O1A       28.9560   -2.5140    6.4380 O.2   213  KDR213     -0.2830
      8  C3        30.1770   -1.9700    4.0900 C.3   213  KDR213      0.1000
      9  O6        31.5280   -0.6920    5.7320 O.3   213  KDR213     -0.3255
     10  C6        32.1290    0.1240    4.6860 C.3   213  KDR213      0.1836
     11  C7        32.6780    1.4470    5.2730 C.3   213  KDR213      0.2143
     12  O7        33.3190    2.2310    4.2490 O.3   213  KDR213     -0.2176
     13  C8        33.6790    1.1860    6.4070 C.3   213  KDR213      0.2174
     14  O8        32.9800    0.6150    7.5220 O.3   213  KDR213     -0.2175
     15  C5        31.1110    0.2610    3.5400 C.3   213  KDR213      0.2118
     16  O5        29.8710    0.8390    3.9650 O.3   213  KDR213     -0.2177
     17  C4        30.8330   -1.1280    2.9820 C.3   213  KDR213      0.1900
     18  O4        29.9980   -1.0470    1.7510 O.3   213  KDR213     -0.2201
@<TRIPOS>BOND
     1    18    17    1
     2    17    15    1
     3    17     8    1
     4    15    16    1
     5    15    10    1
     6     1     2    1
     7     8     5    1
     8    12    11    1
     9     2     3    1
    10    10    11    1
    11    10     9    1
    12     4     3    1
    13     4     5    1
    14    11    13    1
    15     5     9    1
    16     5     6    1
    17    13    14    1
    18     7     6    2
