@<TRIPOS>MOLECULE
2r1y_KDO_B_1.pdb
 15 15 0 0 0
SMALL
GASTEIGER

@<TRIPOS>ATOM
      1  C1        31.9460   -0.7020    0.3070 C.2   212  KDO212      0.3914
      2  O1A       31.7980    0.5390    0.3810 O.co2 212  KDO212     -0.2430
      3  O1B       32.9890   -1.3070   -0.0320 O.co2 212  KDO212     -0.2430
      4  C2        30.6940   -1.5530    0.5950 C.3   212  KDO212      0.2204
      5  C3        29.7720   -1.3750   -0.6290 C.3   212  KDO212      0.0769
      6  C4        28.5930   -2.3400   -0.5460 C.3   212  KDO212      0.1877
      7  O4        27.8430   -2.2760   -1.7870 O.3   212  KDO212     -0.2202
      8  C5        29.0710   -3.7740   -0.2970 C.3   212  KDO212      0.2117
      9  O5        29.9000   -4.1850   -1.3900 O.3   212  KDO212     -0.2177
     10  C6        29.9330   -3.7940    0.9700 C.3   212  KDO212      0.1814
     11  O6        31.0760   -2.9430    0.7920 O.3   212  KDO212     -0.3421
     12  C7        30.4880   -5.1760    1.3340 C.3   212  KDO212      0.2142
     13  O7        29.3970   -6.0600    1.4880 O.3   212  KDO212     -0.2176
     14  C8        31.2860   -5.1370    2.6460 C.3   212  KDO212      0.2174
     15  O8        30.4120   -4.8610    3.7470 O.3   212  KDO212     -0.2175
@<TRIPOS>BOND
     1     7     6    1
     2     9     8    1
     3     5     6    1
     4     5     4    1
     5     6     8    1
     6     8    10    1
     7     3     1   ar
     8     1     2   ar
     9     1     4    1
    10     4    11    1
    11    11    10    1
    12    10    12    1
    13    12    13    1
    14    12    14    1
    15    14    15    1
