@<TRIPOS>MOLECULE
2r23_KDA_B_1.pdb
 18 18 0 0 0
SMALL
GASTEIGER

@<TRIPOS>ATOM
      1  C1        -8.8120    2.1590   71.5690 C.2   215  KDA215      0.4274
      2  O1A       -9.9390    2.7190   71.4830 O.co2 215  KDA215     -0.2389
      3  O1B       -7.8310    2.5990   72.2570 O.co2 215  KDA215     -0.2389
      4  C2        -8.6560    0.8490   70.7320 C.3   215  KDA215      0.3243
      5  C3        -8.4000    1.3200   69.2660 C.3   215  KDA215      0.0846
      6  C4        -7.6610    0.3070   68.3550 C.3   215  KDA215      0.0424
      7  C5        -6.3840   -0.3310   68.9610 C.3   215  KDA215      0.1819
      8  O5        -5.2800    0.6230   69.0050 O.3   215  KDA215     -0.2204
      9  C6        -6.7650   -0.9110   70.3580 C.3   215  KDA215      0.1821
     10  O6        -7.5020    0.0820   71.1840 O.3   215  KDA215     -0.3141
     11  C7        -5.5480   -1.5340   71.0950 C.3   215  KDA215      0.2143
     12  O7        -5.0340   -2.6770   70.3750 O.3   215  KDA215     -0.2176
     13  C8        -5.8320   -1.9250   72.5760 C.3   215  KDA215      0.2174
     14  O8        -5.8720   -3.3630   72.7650 O.3   215  KDA215     -0.2175
     15  O2        -9.7820   -0.0450   70.8930 O.2   215  KDA215     -0.4462
     16  C9       -10.3260   -1.3250   70.9280 C.2   215  KDA215      0.1708
     17  C10      -10.7300   -2.0860   69.8070 C.2   215  KDA215      0.0143
     18  C11      -11.2750   -3.3770   69.8990 C.3   215  KDA215      0.0341
@<TRIPOS>BOND
     1     6     7    1
     2     6     5    1
     3     7     8    1
     4     7     9    1
     5     5     4    1
     6    17    18    1
     7    17    16    2
     8     9    11    1
     9     9    10    1
    10    12    11    1
    11     4    15    1
    12     4    10    1
    13     4     1    1
    14    15    16    1
    15    11    13    1
    16     2     1   ar
    17     1     3   ar
    18    13    14    1
