@<TRIPOS>MOLECULE
2r23_KO1_B_1.pdb
 17 17 0 0 0
SMALL
GASTEIGER

@<TRIPOS>ATOM
      1  OA1      -10.5600    0.9600   65.8320 O.co2 214  KO1214     -0.2400
      2  C1        -9.4270    0.4110   65.8990 C.2   214  KO1214      0.4205
      3  O1B       -9.2980   -0.8120   65.8230 O.co2 214  KO1214     -0.2400
      4  C2        -8.1610    1.2820   66.0630 C.3   214  KO1214      0.3437
      5  O6        -8.6350    2.7320   66.3730 O.3   214  KO1214     -0.3193
      6  C6        -7.4320    3.6300   66.5430 C.3   214  KO1214      0.1839
      7  C7        -8.0470    4.9540   67.0870 C.3   214  KO1214      0.2143
      8  C8        -8.7620    4.7800   68.4430 C.3   214  KO1214      0.2174
      9  O8        -7.6250    4.7070   69.3320 O.3   214  KO1214     -0.2175
     10  O7        -6.9590    5.8660   67.0790 O.3   214  KO1214     -0.2176
     11  C5        -6.6960    3.7300   65.2050 C.3   214  KO1214      0.2144
     12  O5        -7.5970    4.2250   64.1980 O.3   214  KO1214     -0.2176
     13  C4        -6.2040    2.3150   64.7990 C.3   214  KO1214      0.2204
     14  O4        -5.5670    2.4040   63.5460 O.3   214  KO1214     -0.2174
     15  C3        -7.3360    1.2440   64.7350 C.3   214  KO1214      0.2494
     16  O3        -8.3210    1.4950   63.7530 O.3   214  KO1214     -0.2143
     17  O2        -7.1930    0.8930   67.0990 O.3   214  KO1214     -0.1802
@<TRIPOS>BOND
     1    14    13    1
     2    16    15    1
     3    12    11    1
     4    15    13    1
     5    15     4    1
     6    13    11    1
     7    11     6    1
     8     3     2   ar
     9     1     2   ar
    10     2     4    1
    11     4     5    1
    12     4    17    1
    13     5     6    1
    14     6     7    1
    15    10     7    1
    16     7     8    1
    17     8     9    1
