@<TRIPOS>MOLECULE
2r24_LDT_A_1.pdb
 24 25 0 0 0
SMALL
GASTEIGER

@<TRIPOS>ATOM
      1  C2        15.7020   -9.2820   18.3370 C.ar  317  LDT317      0.0666
      2  C3        16.1270  -10.4220   15.5970 C.ar  317  LDT317      0.0071
      3  C4        16.6190   -8.5830   17.3860 C.ar  317  LDT317      0.1433
      4  C5        15.0140  -10.5290   17.8880 C.ar  317  LDT317      0.1432
      5  C6        15.1800  -11.1090   16.5240 C.ar  317  LDT317      0.0299
      6  C7        16.7920   -9.1610   16.0520 C.ar  317  LDT317      0.0556
      7 BR8        15.0780   -3.6080    9.8530 Br    317  LDT317     -0.0489
      8  F9        14.2730  -11.0790   18.8270 F     317  LDT317     -0.2041
      9  C11       17.6930   -8.3360   15.2230 C.2   317  LDT317      0.1039
     10  C13       18.5740   -6.4530   14.2560 C.3   317  LDT317      0.1414
     11  F14       19.5050   -4.3380   12.6300 F     317  LDT317     -0.2044
     12  O15       17.4080   -7.4980   17.7660 O.3   317  LDT317     -0.4636
     13  S16       18.4040   -9.1450   13.9030 S.2   317  LDT317     -0.0331
     14  N17       17.6430   -6.9150   15.2470 N.am  317  LDT317     -0.2257
     15  C20       17.0100   -6.7800   18.9310 C.3   317  LDT317      0.3186
     16  C24       17.6750   -5.8020   13.1520 C.ar  317  LDT317      0.0269
     17  C25       16.1560   -4.4900   11.1640 C.ar  317  LDT317      0.0368
     18  C26       16.2560   -6.2100   12.9860 C.ar  317  LDT317      0.0002
     19  C27       18.2660   -4.6830   12.3550 C.ar  317  LDT317      0.1383
     20  C28       17.5220   -3.9980   11.2790 C.ar  317  LDT317      0.0361
     21  C29       15.4420   -5.5820   11.8860 C.ar  317  LDT317      0.0066
     22  C32       15.7760   -6.0110   18.4940 C.2   317  LDT317      0.4084
     23  O33       15.1630   -5.4230   19.3450 O.co2 317  LDT317     -0.2415
     24  O34       15.5680   -5.7890   17.1620 O.co2 317  LDT317     -0.2415
@<TRIPOS>BOND
     1     7    17    1
     2    17    20   ar
     3    17    21   ar
     4    20    19   ar
     5    21    18   ar
     6    19    11    1
     7    19    16   ar
     8    18    16   ar
     9    16    10    1
    10    13     9    2
    11    10    14    1
    12     9    14    1
    13     9     6    1
    14     2     6   ar
    15     2     5   ar
    16     6     3   ar
    17     5     4   ar
    18    24    22   ar
    19     3    12    1
    20     3     1   ar
    21    12    15    1
    22     4     1   ar
    23     4     8    1
    24    22    15    1
    25    22    23   ar
