@<TRIPOS>MOLECULE
2r2b_KDO_B_1.pdb
 16 16 0 0 0
SMALL
GASTEIGER

@<TRIPOS>ATOM
      1  C1        -9.6190    0.7250   65.9370 C.2   216  KDO216      0.4179
      2  O1A      -10.6670    1.3080   65.5500 O.co2 216  KDO216     -0.2401
      3  O1B       -9.5050   -0.4930   66.0910 O.co2 216  KDO216     -0.2401
      4  C2        -8.3410    1.5570   66.1670 C.3   216  KDO216      0.3156
      5  O2        -7.5270    1.1110   67.2760 O.3   216  KDO216     -0.1830
      6  C3        -7.4740    1.4980   64.8850 C.3   216  KDO216      0.1064
      7  C4        -6.3030    2.4880   65.0120 C.3   216  KDO216      0.1902
      8  O4        -5.6020    2.4800   63.7640 O.3   216  KDO216     -0.2201
      9  C5        -6.7990    3.9100   65.3100 C.3   216  KDO216      0.2118
     10  O5        -7.6390    4.3800   64.2390 O.3   216  KDO216     -0.2177
     11  C6        -7.6530    3.8980   66.6050 C.3   216  KDO216      0.1838
     12  O6        -8.7390    2.9320   66.4590 O.3   216  KDO216     -0.3212
     13  C7        -8.1930    5.2880   66.9910 C.3   216  KDO216      0.2143
     14  O7        -7.0900    6.1580   67.1750 O.3   216  KDO216     -0.2176
     15  C8        -8.9610    5.2330   68.3200 C.3   216  KDO216      0.2174
     16  O8        -8.0530    4.9110   69.3990 O.3   216  KDO216     -0.2175
@<TRIPOS>BOND
     1     8     7    1
     2    10     9    1
     3     6     7    1
     4     6     4    1
     5     7     9    1
     6     9    11    1
     7     2     1   ar
     8     1     3   ar
     9     1     4    1
    10     4    12    1
    11     4     5    1
    12    12    11    1
    13    11    13    1
    14    13    14    1
    15    13    15    1
    16    15    16    1
