@<TRIPOS>MOLECULE
2r2b_KDA_B_1.pdb
 18 18 0 0 0
SMALL
GASTEIGER

@<TRIPOS>ATOM
      1  C1       -12.7430   -2.1760   73.6210 C.2   214  KDA214      0.4274
      2  O1A      -13.5900   -1.3470   73.1820 O.co2 214  KDA214     -0.2389
      3  O1B      -12.9780   -3.0170   74.5110 O.co2 214  KDA214     -0.2389
      4  C2       -11.3210   -2.1500   73.0410 C.3   214  KDA214      0.3243
      5  C3       -11.1470   -0.8760   72.1500 C.3   214  KDA214      0.0846
      6  C4        -9.8480   -0.0840   72.4120 C.3   214  KDA214      0.0424
      7  C5        -9.5710    0.0640   73.9180 C.3   214  KDA214      0.1819
      8  O5       -10.6990    0.6140   74.6220 O.3   214  KDA214     -0.2204
      9  C6        -9.2790   -1.3740   74.3970 C.3   214  KDA214      0.1821
     10  O6       -10.5040   -2.1590   74.2570 O.3   214  KDA214     -0.3141
     11  C7        -8.6670   -1.4470   75.8110 C.3   214  KDA214      0.2143
     12  O7        -7.3650   -0.8590   75.8290 O.3   214  KDA214     -0.2176
     13  C8        -8.5220   -2.9000   76.3050 C.3   214  KDA214      0.2174
     14  O8        -7.8160   -3.7100   75.3430 O.3   214  KDA214     -0.2175
     15  O2       -11.0010   -3.3550   72.2780 O.2   214  KDA214     -0.4462
     16  C9       -10.9710   -4.6580   72.7230 C.2   214  KDA214      0.1708
     17  C10      -11.5920   -5.7840   72.1610 C.2   214  KDA214      0.0143
     18  C11      -11.4480   -7.0310   72.7590 C.3   214  KDA214      0.0341
@<TRIPOS>BOND
     1     5     6    1
     2     5     4    1
     3    17    16    2
     4    17    18    1
     5    15    16    1
     6    15     4    1
     7     6     7    1
     8     4     1    1
     9     4    10    1
    10     2     1   ar
    11     1     3   ar
    12     7     9    1
    13     7     8    1
    14    10     9    1
    15     9    11    1
    16    14    13    1
    17    11    12    1
    18    11    13    1
