@<TRIPOS>MOLECULE
2r2e_KDE_A_1.pdb
 19 19 0 0 0
SMALL
GASTEIGER

@<TRIPOS>ATOM
      1  O1A        5.8910    0.8110   -0.3580 O.co2 214  KDE214     -0.2402
      2  C1         4.8560    0.1700   -0.6610 C.2   214  KDE214      0.4152
      3  O1B        4.7820   -1.0800   -0.8060 O.co2 214  KDE214     -0.2402
      4  C2         3.5560    0.9750   -0.8400 C.3   214  KDE214      0.2863
      5  O2         2.7950    0.6060   -2.0290 O.3   214  KDE214     -0.3260
      6  C9         3.5660    0.5810   -3.2890 C.3   214  KDE214      0.1452
      7  C10        3.4250   -0.8100   -3.9310 C.3   214  KDE214      0.0322
      8  C11        3.0330   -0.6750   -5.3990 C.3   214  KDE214      0.0027
      9  C3         2.6980    0.6490    0.3920 C.3   214  KDE214      0.1036
     10  C4         1.6180    1.7140    0.6200 C.3   214  KDE214      0.1901
     11  O4         0.9870    1.4830    1.8890 O.3   214  KDE214     -0.2201
     12  C5         2.1530    3.1580    0.5370 C.3   214  KDE214      0.2118
     13  O5         3.0210    3.4720    1.6600 O.3   214  KDE214     -0.2177
     14  C6         2.8570    3.3750   -0.8310 C.3   214  KDE214      0.1837
     15  O6         3.9160    2.3720   -0.9400 O.3   214  KDE214     -0.3230
     16  C7         3.5410    4.7370   -1.1320 C.3   214  KDE214      0.2143
     17  O7         4.1980    4.6730   -2.3990 O.3   214  KDE214     -0.2176
     18  C8         2.6150    5.9600   -1.1610 C.3   214  KDE214      0.2174
     19  O8         1.2910    5.5420   -1.4750 O.3   214  KDE214     -0.2175
@<TRIPOS>BOND
     1     8     7    1
     2     7     6    1
     3     6     5    1
     4    17    16    1
     5     5     4    1
     6    19    18    1
     7    18    16    1
     8    16    14    1
     9    15     4    1
    10    15    14    1
    11     4     2    1
    12     4     9    1
    13    14    12    1
    14     3     2   ar
    15     2     1   ar
    16     9    10    1
    17    12    10    1
    18    12    13    1
    19    10    11    1
