@<TRIPOS>MOLECULE
2r2g_EMF_A_1.pdb
 17 18 0 0 0
SMALL
GASTEIGER

@<TRIPOS>ATOM
      1  O9        16.6290   -8.0970   18.7420 O.2   601  EMF601     -0.2501
      2  C9        16.6280   -7.5940   19.8620 C.2   601  EMF601      0.3168
      3  O10       17.2610   -8.3170   20.9580 O.3   601  EMF601     -0.4485
      4  C11       18.2190   -9.3540   20.7080 C.3   601  EMF601      0.2086
      5  C12       19.4650   -8.7650   20.0680 C.3   601  EMF601      0.0513
      6  C8        15.9850   -6.2550   20.0940 C.3   601  EMF601      0.1034
      7  C14       14.8410   -6.2300   21.1040 C.3   601  EMF601      0.0163
      8  C7        16.1970   -5.6180   21.4790 C.3   601  EMF601      0.0335
      9  C1        16.3380   -4.1110   21.3620 C.ar  601  EMF601     -0.0187
     10  C2        17.4070   -3.4520   22.0350 C.ar  601  EMF601      0.0360
     11  C3        17.5550   -2.0360   21.9400 C.ar  601  EMF601      0.1771
     12  O3        18.5760   -1.3770   22.5800 O.3   601  EMF601     -0.4682
     13  C13       18.7020   -1.4010   24.0040 C.3   601  EMF601      0.2526
     14  C6        15.4110   -3.3420   20.5770 C.ar  601  EMF601     -0.0008
     15  C5        15.5230   -1.9400   20.4560 C.ar  601  EMF601      0.0449
     16  C4        16.5730   -1.2540   21.1110 C.ar  601  EMF601      0.2293
     17  O4        16.6950    0.1020   21.0040 O.3   601  EMF601     -0.2833
@<TRIPOS>BOND
     1     1     2    2
     2     2     6    1
     3     2     3    1
     4     5     4    1
     5     6     7    1
     6     6     8    1
     7    15    14   ar
     8    15    16   ar
     9    14     9   ar
    10     4     3    1
    11    17    16    1
    12     7     8    1
    13    16    11   ar
    14     9     8    1
    15     9    10   ar
    16    11    10   ar
    17    11    12    1
    18    12    13    1
