@<TRIPOS>MOLECULE
2r2g_NAP_A_1.pdb
 48 52 0 0 0
SMALL
GASTEIGER

@<TRIPOS>ATOM
      1  PA         5.4230   -6.1770   22.2940 P.3   401  NAP401      0.2189
      2  O1A        5.9080   -6.9950   21.1620 O.2   401  NAP401     -0.5170
      3  O2A        5.2660   -6.7620   23.6360 O.3   401  NAP401     -0.4371
      4  O5B        4.0780   -5.5040   21.7560 O.3   401  NAP401     -0.3112
      5  C5B        3.4980   -4.3980   22.4740 C.3   401  NAP401      0.1813
      6  C4B        2.0260   -4.4030   22.1570 C.3   401  NAP401      0.1820
      7  O4B        1.6040   -4.0890   20.7360 O.3   401  NAP401     -0.3136
      8  C3B        1.2590   -5.7150   22.2500 C.3   401  NAP401      0.2157
      9  O3B        1.0720   -6.0480   23.6070 O.3   401  NAP401     -0.2175
     10  C2B       -0.0700   -5.5040   21.4980 C.3   401  NAP401      0.2314
     11  O2B       -1.1090   -5.1000   22.3790 O.3   401  NAP401     -0.2630
     12  C1B        0.2540   -4.4170   20.4890 C.3   401  NAP401      0.3158
     13  N9A        0.1760   -4.8350   19.0880 N.pl3 401  NAP401     -0.1439
     14  C8A        0.7440   -5.9780   18.5340 C.3   401  NAP401      0.3377
     15  N7A        0.5170   -6.0990   17.2420 N.2   401  NAP401     -0.2095
     16  C5A       -0.2220   -4.9960   16.9380 C.2   401  NAP401      0.2526
     17  C6A       -0.7840   -4.5420   15.7110 C.2   401  NAP401      0.4393
     18  N6A       -0.6290   -5.2300   14.5730 N.pl3 401  NAP401      0.2180
     19  N1A       -1.4890   -3.3660   15.7400 N.2   401  NAP401      0.0021
     20  C2A       -1.6440   -2.6690   16.8990 C.3   401  NAP401      0.5254
     21  N3A       -1.1520   -3.0150   18.1220 N.2   401  NAP401     -0.0055
     22  C4A       -0.4480   -4.1960   18.0630 C.2   401  NAP401      0.3518
     23  O3         6.3720   -4.8570   22.3510 O.3   401  NAP401     -0.2703
     24  PN         7.6890   -4.8150   23.2440 P.3   401  NAP401      0.2189
     25  O1N        8.4550   -6.0790   23.0730 O.2   401  NAP401     -0.5170
     26  O2N        7.2200   -4.4850   24.6170 O.3   401  NAP401     -0.4371
     27  O5D        8.5120   -3.5620   22.7080 O.3   401  NAP401     -0.3112
     28  C5D        8.0460   -2.2040   22.8990 C.3   401  NAP401      0.1813
     29  C4D        9.1920   -1.2380   22.6720 C.3   401  NAP401      0.1799
     30  O4D       10.3130   -1.6580   23.5100 O.3   401  NAP401     -0.3327
     31  C3D        9.6580   -1.1680   21.1960 C.3   401  NAP401      0.2158
     32  O3D        9.9290    0.1580   20.7960 O.3   401  NAP401     -0.2175
     33  C2D       10.8500   -2.0830   21.2440 C.3   401  NAP401      0.2309
     34  O2D       11.7510   -1.7840   20.1920 O.3   401  NAP401     -0.2158
     35  C1D       11.4240   -1.8850   22.6210 C.3   401  NAP401      0.2263
     36  N1N       12.2660   -3.0370   23.0440 N.pl3 401  NAP401     -0.2787
     37  C2N       13.4860   -2.7260   23.6450 C.3   401  NAP401      0.1244
     38  C3N       14.2260   -3.7170   24.2970 C.2   401  NAP401      0.0544
     39  C7N       15.5130   -3.3890   25.0400 C.2   401  NAP401      0.2818
     40  O7N       16.2580   -4.3010   25.4210 O.2   401  NAP401     -0.2670
     41  N7N       15.7740   -2.0930   25.2850 N.am  401  NAP401     -0.0839
     42  C4N       13.7380   -5.0720   24.2820 C.2   401  NAP401      0.0033
     43  C5N       12.5040   -5.3710   23.6620 C.2   401  NAP401      0.0157
     44  C6N       11.7570   -4.3510   23.0590 C.2   401  NAP401      0.0633
     45  P2B       -2.6380   -5.6230   22.2870 P.3   401  NAP401      0.5328
     46  O1X       -2.6070   -7.1110   22.0400 O.3   401  NAP401     -0.1145
     47  O2X       -3.1740   -5.1810   23.6280 O.3   401  NAP401     -0.1145
     48  O3X       -3.2870   -4.8580   21.1310 O.2   401  NAP401     -0.2224
@<TRIPOS>BOND
     1    18    17    1
     2    17    19    2
     3    17    16    1
     4    19    20    1
     5    20    21    1
     6    16    15    2
     7    16    22    1
     8    15    14    1
     9    22    21    2
    10    22    13    1
    11    14    13    1
    12    13    12    1
    13    34    33    1
    14    12     7    1
    15    12    10    1
    16     7     6    1
    17    32    31    1
    18    48    45    2
    19     2     1    2
    20    31    33    1
    21    31    29    1
    22    33    35    1
    23    10     8    1
    24    10    11    1
    25     4     1    1
    26     4     5    1
    27    46    45    1
    28     6     8    1
    29     6     5    1
    30     8     9    1
    31    45    11    1
    32    45    47    1
    33     1    23    1
    34     1     3    1
    35    23    24    1
    36    35    36    1
    37    35    30    1
    38    29    28    1
    39    29    30    1
    40    27    28    1
    41    27    24    1
    42    36    44    1
    43    36    37    1
    44    44    43    2
    45    25    24    2
    46    24    26    1
    47    37    38    1
    48    43    42    1
    49    42    38    2
    50    38    39    1
    51    39    41   am
    52    39    40    2
