@<TRIPOS>MOLECULE
2r2h_KO2_B_1.pdb
 20 20 0 0 0
SMALL
GASTEIGER

@<TRIPOS>ATOM
      1  C1        -8.4480    0.4590   66.5200 C.2   212  KO2212      0.4178
      2  O1B       -8.3910   -0.7990   66.4760 O.co2 212  KO2212     -0.2401
      3  C2        -7.1460    1.2360   66.7590 C.3   212  KO2212      0.3152
      4  O6        -7.4960    2.6580   66.9100 O.3   212  KO2212     -0.3212
      5  C6        -6.3900    3.5360   67.1670 C.3   212  KO2212      0.1838
      6  C7        -6.9700    4.9110   67.5030 C.3   212  KO2212      0.2143
      7  C8        -7.8450    4.8640   68.7810 C.3   212  KO2212      0.2174
      8  O8        -6.9960    4.5030   69.8630 O.3   212  KO2212     -0.2175
      9  O7        -5.8610    5.7820   67.6780 O.3   212  KO2212     -0.2176
     10  C5        -5.5950    3.5610   65.8400 C.3   212  KO2212      0.2144
     11  O5        -6.4480    4.0050   64.7680 O.3   212  KO2212     -0.2176
     12  C4        -5.1280    2.1300   65.5650 C.3   212  KO2212      0.2203
     13  O4        -4.3750    2.1070   64.3970 O.3   212  KO2212     -0.2174
     14  C3        -6.2670    1.0830   65.5250 C.3   212  KO2212      0.2467
     15  O3        -7.0810    1.2020   64.3370 O.3   212  KO2212     -0.2144
     16  O2        -6.3820    0.7450   67.9180 O.3   212  KO2212     -0.3241
     17  C11       -7.0350   -0.1200   71.4790 C.3   212  KO2212      0.0027
     18  C10       -6.8830   -0.3470   70.1100 C.3   212  KO2212      0.0322
     19  C9        -7.1520    0.6820   69.1980 C.3   212  KO2212      0.1453
     20  O1A       -9.4670    1.1530   66.3410 O.co2 212  KO2212     -0.2401
@<TRIPOS>BOND
     1    15    14    1
     2    13    12    1
     3    11    10    1
     4    14    12    1
     5    14     3    1
     6    12    10    1
     7    10     5    1
     8    20     1   ar
     9     2     1   ar
    10     1     3    1
    11     3     4    1
    12     3    16    1
    13     4     5    1
    14     5     6    1
    15     6     9    1
    16     6     7    1
    17    16    19    1
    18     7     8    1
    19    19    18    1
    20    18    17    1
