@<TRIPOS>MOLECULE
2r2l_PB9_B_1.pdb
 40 44 0 0 0
SMALL
GASTEIGER

@<TRIPOS>ATOM
      1  C1       186.6640  131.8000   36.2340 C.ar  425  PB9425      0.0115
      2  C2       187.7640  131.0960   35.6810 C.ar  425  PB9425      0.0149
      3  C3       187.5940  130.0470   34.7140 C.ar  425  PB9425      0.0442
      4  C4       186.2700  129.6830   34.3650 C.ar  425  PB9425     -0.0067
      5  C5       185.1680  130.4420   34.8790 C.ar  425  PB9425      0.0073
      6  C6       185.3690  131.4820   35.8230 C.ar  425  PB9425      0.0682
      7  N10      188.6980  129.3870   34.1280 N.pl3 425  PB9425     -0.3011
      8  C11      188.5300  128.2550   33.1950 C.3   425  PB9425      0.1091
      9  C12      187.1690  128.1630   32.5140 C.3   425  PB9425      0.1037
     10  C13      185.9990  128.4760   33.4770 C.3   425  PB9425      0.0471
     11  C18      184.2420  132.1770   36.3980 C.1   425  PB9425      0.1004
     12  N19      183.3530  132.7170   36.9020 N.1   425  PB9425     -0.1908
     13  N20      187.0000  126.8920   31.6960 N.3   425  PB9425     -0.1535
     14  S22      187.2470  125.1880   32.2830 S.O2  425  PB9425      0.0799
     15  C23      188.9270  125.0580   32.8180 C.ar  425  PB9425      0.2030
     16  O24      187.1010  124.3280   31.1440 O.2   425  PB9425     -0.1513
     17  O25      186.3640  125.0400   33.4030 O.2   425  PB9425     -0.1513
     18  N26      189.1920  124.7230   34.1060 N.ar  425  PB9425     -0.2245
     19  C27      190.4790  124.7730   34.5510 C.ar  425  PB9425      0.1004
     20  C28      191.5540  125.1900   33.7220 C.ar  425  PB9425      0.0208
     21  C29      191.2690  125.4490   32.3590 C.ar  425  PB9425      0.0046
     22  C30      189.9400  125.3670   31.8940 C.ar  425  PB9425      0.0395
     23  C35      186.6910  127.1240   30.2910 C.3   425  PB9425      0.0959
     24  C36      185.3940  126.5740   29.7420 C.3   425  PB9425      0.0212
     25  C39      184.1100  127.1950   30.3450 C.3   425  PB9425      0.0231
     26  C40      182.8410  126.7600   29.5750 C.3   425  PB9425      0.0968
     27  N41      183.0330  126.8530   28.1100 N.am  425  PB9425     -0.2460
     28  C42      184.2450  126.2290   27.5610 C.3   425  PB9425      0.0968
     29  C43      185.4700  126.8030   28.2350 C.3   425  PB9425      0.0231
     30  C53      182.1530  127.5020   27.2830 C.2   425  PB9425      0.4050
     31  O54      182.4790  127.5380   25.9860 O.3   425  PB9425     -0.4304
     32  O55      181.1580  128.0180   27.7060 O.2   425  PB9425     -0.2262
     33  C56      181.4400  127.7420   25.0300 C.3   425  PB9425      0.2573
     34  C60      190.1030  129.7490   34.4270 C.3   425  PB9425      0.1368
     35  C61      190.7180  128.8380   35.5140 C.ar  425  PB9425      0.0778
     36  C64      190.0940  127.9250   36.3130 C.ar  425  PB9425      0.1150
     37  N65      191.0670  127.3020   37.2180 N.ar  425  PB9425     -0.2226
     38  C66      192.2470  127.8740   36.9130 C.ar  425  PB9425      0.1784
     39  N67      192.1390  128.7980   35.9150 N.ar  425  PB9425     -0.3089
     40  C68      193.1990  129.6470   35.3360 C.3   425  PB9425      0.1318
@<TRIPOS>BOND
     1    33    31    1
     2    31    30    1
     3    30    32    2
     4    30    27   am
     5    28    27    1
     6    28    29    1
     7    27    26    1
     8    29    24    1
     9    26    25    1
    10    24    23    1
    11    24    25    1
    12    23    13    1
    13    16    14    2
    14    13    14    1
    15    13     9    1
    16    22    21   ar
    17    22    15   ar
    18    14    15    1
    19    14    17    2
    20    21    20   ar
    21     9     8    1
    22     9    10    1
    23    15    18   ar
    24     8     7    1
    25    10     4    1
    26    20    19   ar
    27    18    19   ar
    28     7    34    1
    29     7     3    1
    30     4     3   ar
    31     4     5   ar
    32    34    35    1
    33     3     2   ar
    34     5     6   ar
    35    40    39    1
    36    35    39   ar
    37    35    36   ar
    38     2     1   ar
    39     6     1   ar
    40     6    11    1
    41    39    38   ar
    42    36    37   ar
    43    11    12    3
    44    38    37   ar
