@<TRIPOS>MOLECULE
2r2l_FPP_B_1.pdb
 24 23 0 0 0
SMALL
GASTEIGER

@<TRIPOS>ATOM
      1  C1       194.8000  123.4930   31.5590 C.3   424  FPP424      0.1747
      2  O1       194.6380  124.8660   32.0250 O.3   424  FPP424     -0.3089
      3  C2       193.4580  122.7790   31.5160 C.2   424  FPP424     -0.0024
      4  C3       192.6980  122.6870   30.4040 C.2   424  FPP424     -0.0454
      5  C4       193.0530  123.4820   29.1700 C.3   424  FPP424      0.0261
      6  C5       191.4650  121.7880   30.3490 C.3   424  FPP424      0.0264
      7  C6       190.6500  121.8700   31.6610 C.3   424  FPP424      0.0297
      8  C7       189.3740  121.0540   31.5360 C.2   424  FPP424     -0.0342
      9  C8       188.4390  121.0030   32.5060 C.2   424  FPP424     -0.0478
     10  C10      188.6370  121.7240   33.8220 C.3   424  FPP424      0.0260
     11  C9       187.1570  120.2190   32.3040 C.3   424  FPP424      0.0263
     12  C11      186.0070  121.1710   31.9700 C.3   424  FPP424      0.0297
     13  C12      184.7150  120.3910   31.9010 C.2   424  FPP424     -0.0342
     14  C13      183.6990  120.7410   31.0940 C.2   424  FPP424     -0.0478
     15  C14      182.4500  119.8940   31.0350 C.3   424  FPP424      0.0260
     16  C15      183.7950  121.9840   30.2410 C.3   424  FPP424      0.0260
     17  PA       195.7390  125.4830   32.9630 P.3   424  FPP424      0.2233
     18  O1A      195.6570  126.9760   33.0420 O.3   424  FPP424     -0.4370
     19  O2A      197.0860  124.9960   32.3600 O.2   424  FPP424     -0.5169
     20  O3A      195.6300  124.8060   34.3730 O.3   424  FPP424     -0.2261
     21  PB       196.5460  123.8220   35.1660 P.3   424  FPP424      0.5373
     22  O1B      197.9150  124.5360   35.2500 O.3   424  FPP424     -0.1143
     23  O2B      195.9890  123.4910   36.5180 O.3   424  FPP424     -0.1143
     24  O3B      196.6780  122.5840   34.2440 O.2   424  FPP424     -0.2221
@<TRIPOS>BOND
     1     5     4    1
     2    16    14    1
     3     6     4    1
     4     6     7    1
     5     4     3    2
     6    15    14    1
     7    14    13    2
     8     3     1    1
     9     8     7    1
    10     8     9    2
    11     1     2    1
    12    13    12    1
    13    12    11    1
    14     2    17    1
    15    11     9    1
    16    19    17    2
    17     9    10    1
    18    17    18    1
    19    17    20    1
    20    24    21    2
    21    20    21    1
    22    21    22    1
    23    21    23    1
