@<TRIPOS>MOLECULE
2r2m_I50_B_1.pdb
 30 31 0 0 0
SMALL
GASTEIGER

@<TRIPOS>ATOM
      1  C1        11.2820  -11.8930   24.1440 C.cat 5000  I505000     0.5748
      2  O5        12.8320  -10.8210   22.8090 O.2   5000  I505000    -0.3064
      3  C7        13.5960  -11.6280   20.7120 C.3   5000  I505000     0.1672
      4  C9        15.9110  -12.6250   20.6430 C.2   5000  I505000     0.2460
      5  C11       17.4290  -12.4680   20.7380 C.3   5000  I505000     0.1162
      6  C12       18.0500  -13.6860   21.4320 C.ar  5000  I505000     0.0263
      7  C13       17.3890  -14.3750   22.4770 C.ar  5000  I505000     0.1521
      8  C14       18.0100  -15.4820   23.0830 C.ar  5000  I505000     0.0926
      9  C15       19.2980  -15.9110   22.6540 C.ar  5000  I505000     0.0192
     10  C16       19.9610  -15.2270   21.6180 C.ar  5000  I505000     0.0126
     11  C21       17.9920  -17.4000   24.6850 C.3   5000  I505000     0.1829
     12  C24       18.5950  -17.1030   26.0710 C.3   5000  I505000     0.3022
     13  C27       22.2290  -15.9830   25.3400 C.ar  5000  I505000    -0.0002
     14  C30       19.7770  -14.8320   26.1720 C.ar  5000  I505000     0.0010
     15  N2        11.0940  -10.7580   24.6540 N.pl3 5000  I505000     0.1387
     16  N3        10.3040  -12.9490   24.3330 N.pl3 5000  I505000     0.1387
     17  N4        12.3530  -12.0830   23.1850 N.pl3 5000  I505000     0.1306
     18  C6        12.9150  -10.4740   21.4530 C.3   5000  I505000     0.2827
     19  N8        15.0380  -11.4860   20.8980 N.am  5000  I505000    -0.2010
     20  O10       15.4670  -13.6050   20.1460 O.2   5000  I505000    -0.2730
     21  C17       19.3340  -14.1170   21.0090 C.ar  5000  I505000     0.0564
     22 CL18       20.1610  -13.2430   19.6960 Cl    5000  I505000    -0.0825
     23  F19       16.1630  -13.9770   22.9160 F     5000  I505000    -0.2031
     24  N20       17.3490  -16.1960   24.1720 N.pl3 5000  I505000    -0.2292
     25  C25       19.8580  -16.2290   25.9150 C.ar  5000  I505000     0.0395
     26  C26       21.0880  -16.7970   25.4930 C.ar  5000  I505000     0.0010
     27  C28       22.1470  -14.5890   25.5970 C.ar  5000  I505000    -0.0000
     28  C29       20.9160  -14.0200   26.0160 C.ar  5000  I505000    -0.0002
     29  F31       17.6690  -16.4360   26.8250 F     5000  I505000    -0.1976
     30  F32       18.8830  -18.3030   26.6480 F     5000  I505000    -0.1976
@<TRIPOS>BOND
     1    22    21    1
     2    20     4    2
     3     4     5    1
     4     4    19   am
     5     3    19    1
     6     3    18    1
     7     5     6    1
     8    21     6   ar
     9    21    10   ar
    10     6     7   ar
    11    18     2    1
    12    10     9   ar
    13     7    23    1
    14     7     8   ar
    15     9     8   ar
    16     2    17    1
    17     8    24    1
    18    17     1    2
    19     1    16    1
    20     1    15    1
    21    24    11    1
    22    11    12    1
    23    13    26   ar
    24    13    27   ar
    25    26    25   ar
    26    27    28   ar
    27    25    12    1
    28    25    14   ar
    29    28    14   ar
    30    12    30    1
    31    12    29    1
