@<TRIPOS>MOLECULE
2r2n_KYN_A_1.pdb
 15 15 0 0 0
SMALL
GASTEIGER

@<TRIPOS>ATOM
      1  C          6.0820   17.7120   51.3480 C.2   427  KYN427      0.3823
      2  N          4.5760   16.2310   52.2830 N.3   427  KYN427     -0.1203
      3  OXT        6.9880   18.8170   51.6560 O.co2 427  KYN427     -0.2440
      4  C1         7.0510   14.4080   52.8920 C.2   427  KYN427      0.1764
      5  N1         9.0480   12.8490   52.0210 N.pl3 427  KYN427     -0.1280
      6  O2         6.2620   13.5310   53.1760 O.2   427  KYN427     -0.2912
      7  CA         5.9640   16.6130   52.3260 C.3   427  KYN427      0.2020
      8  CB         6.7890   15.4400   51.8200 C.3   427  KYN427      0.0997
      9  CG         9.3420   13.6480   53.0680 C.ar  427  KYN427      0.0918
     10  CZ         9.8690   15.3110   55.1920 C.ar  427  KYN427      0.0002
     11  CD1       10.6030   13.6480   53.6290 C.ar  427  KYN427      0.0181
     12  CD2        8.3670   14.4540   53.5640 C.ar  427  KYN427      0.0515
     13  CE1       10.8630   14.4860   54.6960 C.ar  427  KYN427      0.0014
     14  CE2        8.6110   15.2980   54.6190 C.ar  427  KYN427      0.0042
     15  O          5.3410   17.6470   50.3590 O.co2 427  KYN427     -0.2440
@<TRIPOS>BOND
     1    15     1   ar
     2     1     3   ar
     3     1     7    1
     4     8     7    1
     5     8     4    1
     6     5     9    1
     7     2     7    1
     8     4     6    2
     9     4    12    1
    10     9    12   ar
    11     9    11   ar
    12    12    14   ar
    13    11    13   ar
    14    14    10   ar
    15    13    10   ar
