@<TRIPOS>MOLECULE
2r2n_PMP_A_1.pdb
 16 16 0 0 0
SMALL
GASTEIGER

@<TRIPOS>ATOM
      1  N1        24.5100  -10.3040   49.5740 N.ar  426  PMP426     -0.2452
      2  C2        24.7870  -11.6120   49.9660 C.ar  426  PMP426      0.0978
      3  C2A       25.8610  -12.4400   49.3230 C.3   426  PMP426      0.0555
      4  C3        24.0610  -12.1970   51.0070 C.ar  426  PMP426      0.2063
      5  O3        24.3780  -13.4810   51.4010 O.3   426  PMP426     -0.2856
      6  C4        23.0310  -11.4700   51.6390 C.ar  426  PMP426      0.0369
      7  C4A       22.1580  -12.1180   52.6950 C.3   426  PMP426      0.1386
      8  N4A       22.3190  -13.5560   52.6520 N.3   426  PMP426     -0.1261
      9  C5        22.7560  -10.1580   51.2520 C.ar  426  PMP426      0.0275
     10  C6        23.5230   -9.5710   50.2310 C.ar  426  PMP426      0.0965
     11  C5A       21.5660   -9.4350   51.8950 C.3   426  PMP426      0.1816
     12  O4P       22.0360   -8.6960   53.0090 O.3   426  PMP426     -0.2653
     13  P         21.1990   -7.5260   53.7820 P.3   426  PMP426      0.5329
     14  O1P       20.4390   -8.2550   54.8680 O.3   426  PMP426     -0.1145
     15  O2P       20.1550   -6.8320   52.9700 O.2   426  PMP426     -0.2224
     16  O3P       22.2780   -6.6620   54.3950 O.3   426  PMP426     -0.1145
@<TRIPOS>BOND
     1     3     2    1
     2     1     2   ar
     3     1    10   ar
     4     2     4   ar
     5    10     9   ar
     6     4     5    1
     7     4     6   ar
     8     9     6   ar
     9     9    11    1
    10     6     7    1
    11    11    12    1
    12     8     7    1
    13    15    13    2
    14    12    13    1
    15    13    16    1
    16    13    14    1
