@<TRIPOS>MOLECULE
2r2w_4PG_U_1.pdb
 19 20 0 0 0
SMALL
GASTEIGER

@<TRIPOS>ATOM
      1  C1        33.8740    4.6450   27.8850 C.cat 300  4PG300      0.5393
      2  C2        31.9330    5.9770   28.4410 C.ar  300  4PG300      0.1592
      3  C3        31.3210    5.1850   29.4660 C.ar  300  4PG300      0.0368
      4  C7        31.1760    6.9990   27.8130 C.ar  300  4PG300      0.0368
      5  C8        27.7360    6.6410   29.7020 C.3   300  4PG300      0.0954
      6  C9        27.0800    7.9250   29.2180 C.2   300  4PG300      0.1774
      7  C10       27.1470    9.2390   30.0010 C.ar  300  4PG300      0.0350
      8  C11       26.5040   10.4070   29.4820 C.ar  300  4PG300      0.0029
      9  C12       26.5540   11.6400   30.1920 C.ar  300  4PG300      0.0001
     10  C13       27.2480   11.7220   31.4370 C.ar  300  4PG300      0.0000
     11  C14       27.8900   10.5710   31.9660 C.ar  300  4PG300      0.0001
     12  C15       27.8410    9.3350   31.2560 C.ar  300  4PG300      0.0029
     13  N1        33.2440    5.7690   28.0740 N.pl3 300  4PG300     -0.0605
     14  N2        35.1060    4.7490   27.5640 N.pl3 300  4PG300      0.1358
     15  N3        33.3760    3.4690   28.0040 N.pl3 300  4PG300      0.1358
     16  C4        29.9760    5.4160   29.8510 C.ar  300  4PG300     -0.0008
     17  C5        29.2020    6.4390   29.2310 C.ar  300  4PG300     -0.0143
     18  C6        29.8190    7.2340   28.1990 C.ar  300  4PG300     -0.0008
     19  O1        26.4770    7.8860   28.1520 O.2   300  4PG300     -0.2910
@<TRIPOS>BOND
     1    14     1    1
     2     4    18   ar
     3     4     2   ar
     4     1    15    1
     5     1    13    2
     6    13     2    1
     7    19     6    2
     8    18    17   ar
     9     2     3   ar
    10     6     5    1
    11     6     7    1
    12    17     5    1
    13    17    16   ar
    14     3    16   ar
    15     8     7   ar
    16     8     9   ar
    17     7    12   ar
    18     9    10   ar
    19    12    11   ar
    20    10    11   ar
