@<TRIPOS>MOLECULE
2r38_G4G_B_1.pdb
 45 49 0 0 0
SMALL
GASTEIGER

@<TRIPOS>ATOM
      1  C1         9.0910  -15.6380  -14.4700 C.ar  2501  G4G2501     0.0060
      2  O2        17.0880  -24.4640  -22.0150 O.2   2501  G4G2501    -0.2667
      3  N2         5.5910  -14.9370  -15.3750 N.am  2501  G4G2501    -0.0837
      4  C2        14.4900  -23.7450  -21.2580 C.ar  2501  G4G2501     0.0060
      5  O1         7.3040  -13.5910  -14.8850 O.2   2501  G4G2501    -0.2667
      6  N1        17.4820  -25.6230  -20.1460 N.am  2501  G4G2501    -0.0837
      7  C3         7.5230  -17.0750  -15.7590 C.ar  2501  G4G2501     0.0060
      8  C4         7.8340  -15.8330  -15.1470 C.ar  2501  G4G2501     0.0567
      9  C5        15.1830  -24.2720  -18.9590 C.ar  2501  G4G2501     0.0060
     10  C6        15.4290  -24.2640  -20.3520 C.ar  2501  G4G2501     0.0567
     11  C7        13.4650  -18.7130  -15.2480 C.3   2501  G4G2501     0.1221
     12  C8        16.7330  -24.7990  -20.8980 C.2   2501  G4G2501     0.2842
     13  S8        10.8400  -19.3140  -14.9990 S.O2  2501  G4G2501     0.0636
     14  C9         6.8880  -14.7080  -15.1350 C.2   2501  G4G2501     0.2842
     15  S9        11.4550  -22.5440  -18.7730 S.O2  2501  G4G2501     0.0636
     16  O10       10.2440  -20.5080  -15.5810 O.2   2501  G4G2501    -0.1528
     17  O11       11.4530  -22.7950  -17.3490 O.2   2501  G4G2501    -0.1528
     18  C12       14.3370  -19.9700  -15.1960 C.ar  2501  G4G2501    -0.0045
     19  C13       13.7750  -21.2360  -14.8290 C.ar  2501  G4G2501    -0.0029
     20  C14       15.7290  -19.8980  -15.5270 C.ar  2501  G4G2501    -0.0029
     21  C17       10.0240  -16.7160  -14.4420 C.ar  2501  G4G2501     0.0201
     22  C18       13.2560  -23.2270  -20.8000 C.ar  2501  G4G2501     0.0201
     23  C19        8.4590  -18.1500  -15.6960 C.ar  2501  G4G2501     0.0201
     24  C20       13.9410  -23.7450  -18.5020 C.ar  2501  G4G2501     0.0201
     25  C21       12.5480  -17.7440  -18.1340 C.3   2501  G4G2501     0.1079
     26  N22       13.9080  -18.1870  -18.5630 N.3   2501  G4G2501    -0.2150
     27  C23       11.9170  -18.9640  -17.4310 C.3   2501  G4G2501     0.1149
     28  C24       12.6710  -20.2210  -18.0330 C.3   2501  G4G2501     0.1149
     29  C25       13.9840  -19.6560  -18.6380 C.3   2501  G4G2501     0.1079
     30  C26        9.7200  -17.9720  -15.0360 C.ar  2501  G4G2501     0.1222
     31  C27       12.9930  -23.2100  -19.4050 C.ar  2501  G4G2501     0.1222
     32  N28       12.1900  -18.9500  -15.9490 N.3   2501  G4G2501    -0.1496
     33  C29       14.6280  -22.3830  -14.8010 C.ar  2501  G4G2501    -0.0003
     34  C30       16.5830  -21.0400  -15.4640 C.ar  2501  G4G2501    -0.0003
     35  C31       16.0200  -22.2980  -15.0980 C.ar  2501  G4G2501    -0.0000
     36  N32       11.8070  -20.8900  -19.0730 N.3   2501  G4G2501    -0.1496
     37  C33       11.2780  -20.2790  -20.3230 C.3   2501  G4G2501     0.1221
     38  C34        9.9940  -19.4760  -20.1590 C.ar  2501  G4G2501    -0.0045
     39  C35        9.0510  -19.8620  -19.1850 C.ar  2501  G4G2501    -0.0029
     40  C36        7.8680  -19.0780  -19.0800 C.ar  2501  G4G2501    -0.0003
     41  C37        7.6650  -17.9450  -19.9230 C.ar  2501  G4G2501    -0.0000
     42  C38        9.7850  -18.3620  -21.0180 C.ar  2501  G4G2501    -0.0029
     43  C39        8.6190  -17.5620  -20.9020 C.ar  2501  G4G2501    -0.0003
     44  O40       10.4790  -22.9790  -19.7570 O.2   2501  G4G2501    -0.1528
     45  O41       11.2960  -19.4340  -13.5890 O.2   2501  G4G2501    -0.1528
@<TRIPOS>BOND
     1     2    12    2
     2     4    22   ar
     3     4    10   ar
     4    42    43   ar
     5    42    38   ar
     6    43    41   ar
     7    12    10    1
     8    12     6   am
     9    22    31   ar
    10    10     9   ar
    11    37    38    1
    12    37    36    1
    13    38    39   ar
    14    41    40   ar
    15    44    15    2
    16    31    15    1
    17    31    24   ar
    18    39    40   ar
    19    36    15    1
    20    36    28    1
    21     9    24   ar
    22    15    17    2
    23    29    26    1
    24    29    28    1
    25    26    25    1
    26    25    27    1
    27    28    27    1
    28    27    32    1
    29    32    11    1
    30    32    13    1
    31     7    23   ar
    32     7     8   ar
    33    23    30   ar
    34    16    13    2
    35    20    34   ar
    36    20    18   ar
    37    34    35   ar
    38     3    14   am
    39    11    18    1
    40    18    19   ar
    41     8    14    1
    42     8     1   ar
    43    14     5    2
    44    35    33   ar
    45    30    13    1
    46    30    21   ar
    47    13    45    2
    48    19    33   ar
    49     1    21   ar
