@<TRIPOS>MOLECULE
2r3a_SAM_A_1.pdb
 27 29 0 0 0
SMALL
GASTEIGER

@<TRIPOS>ATOM
      1  N         33.0830   38.6110   50.1000 N.3   304  SAM304     -0.1208
      2  CA        33.2040   37.1500   50.3410 C.3   304  SAM304      0.1952
      3  C         34.6680   36.7140   50.5560 C.2   304  SAM304      0.3819
      4  O         35.5710   37.5150   50.7140 O.co2 304  SAM304     -0.2441
      5  OXT       34.9970   35.5490   50.5780 O.co2 304  SAM304     -0.2441
      6  CB        32.4780   36.3560   49.2630 C.3   304  SAM304      0.0414
      7  CG        30.9890   36.1380   49.5290 C.3   304  SAM304      0.0503
      8  SD        30.6090   35.3440   51.1270 S.3   304  SAM304     -0.1761
      9  CE        29.4180   34.1730   50.3960 C.3   304  SAM304      0.0590
     10  C5'       29.5060   36.5360   51.9560 C.3   304  SAM304      0.0806
     11  C4'       30.2660   37.5400   52.8440 C.3   304  SAM304      0.1622
     12  O4'       30.8550   38.5470   52.0260 O.3   304  SAM304     -0.3153
     13  C3'       29.4340   38.2720   53.8640 C.3   304  SAM304      0.2168
     14  O3'       29.3830   37.6510   55.1240 O.3   304  SAM304     -0.2175
     15  C2'       30.1530   39.6000   53.9730 C.3   304  SAM304      0.2569
     16  O2'       31.3190   39.4570   54.7450 O.3   304  SAM304     -0.2130
     17  C1'       30.6710   39.8370   52.5680 C.3   304  SAM304      0.3185
     18  N9        29.6620   40.5600   51.7560 N.pl3 304  SAM304     -0.1439
     19  C8        28.9960   40.0890   50.6500 C.3   304  SAM304      0.3377
     20  N7        28.1810   41.0440   50.1970 N.2   304  SAM304     -0.2095
     21  C5        28.3110   42.1250   50.9740 C.2   304  SAM304      0.2526
     22  C6        27.6960   43.3860   50.9680 C.2   304  SAM304      0.4393
     23  N6        26.7950   43.7430   50.0360 N.pl3 304  SAM304      0.2180
     24  N1        28.0710   44.2820   51.9590 N.2   304  SAM304      0.0021
     25  C2        28.9900   43.9690   52.9310 C.3   304  SAM304      0.5254
     26  N3        29.5990   42.7340   52.9190 N.2   304  SAM304     -0.0055
     27  C4        29.2420   41.8270   51.9710 C.2   304  SAM304      0.3518
@<TRIPOS>BOND
     1     6     7    1
     2     6     2    1
     3     7     8    1
     4    23    22    1
     5     1     2    1
     6    20    19    1
     7    20    21    2
     8     2     3    1
     9     9     8    1
    10     3     5   ar
    11     3     4   ar
    12    19    18    1
    13    22    21    1
    14    22    24    2
    15    21    27    1
    16     8    10    1
    17    18    27    1
    18    18    17    1
    19    10    11    1
    20    24    25    1
    21    27    26    2
    22    12    17    1
    23    12    11    1
    24    17    15    1
    25    11    13    1
    26    26    25    1
    27    13    15    1
    28    13    14    1
    29    15    16    1
