@<TRIPOS>MOLECULE
2r3f_SC8_A_1.pdb
 25 28 0 0 0
SMALL
GASTEIGER

@<TRIPOS>ATOM
      1  C01       -0.5430   31.2880    8.0500 C.3   501  SC8501      0.1553
      2  C02        0.0220   30.0200    8.3790 C.2   501  SC8501      0.2813
      3  N03        1.2750   29.9830    7.6510 N.pl3 501  SC8501     -0.0342
      4  N04        1.4750   31.1120    6.9180 N.2   501  SC8501     -0.0839
      5  C05        0.4140   31.9190    7.1880 C.2   501  SC8501      0.1282
      6  N06       -0.4140   28.9930    9.1660 N.2   501  SC8501     -0.3708
      7  C07        0.3850   27.9270    9.2360 C.2   501  SC8501      0.1257
      8  C08        1.6690   27.8320    8.5880 C.3   501  SC8501      0.1783
      9  C09        2.1090   28.8990    7.7780 C.2   501  SC8501      0.3319
     10  N10        3.3240   28.9410    7.1360 N.2   501  SC8501     -0.0615
     11  C11       -0.0330   26.8450   10.1610 C.ar  501  SC8501      0.0375
     12  C12        4.3450   27.9960    7.5410 C.3   501  SC8501      0.2896
     13  C13        4.4690   26.8600    6.5880 C.ar  501  SC8501      0.0339
     14  C14        4.3760   25.5440    7.0440 C.ar  501  SC8501      0.0207
     15  C15        4.4810   24.5020    6.1000 C.ar  501  SC8501      0.0987
     16  N16        4.6460   24.7110    4.7810 N.ar  501  SC8501     -0.2423
     17  C17        4.7570   25.9950    4.3600 C.ar  501  SC8501      0.0987
     18  C18        4.6540   27.0980    5.2270 C.ar  501  SC8501      0.0207
     19  C19       -0.2800   27.2010   11.4940 C.ar  501  SC8501      0.0031
     20  C20       -0.7300   26.2580   12.4020 C.ar  501  SC8501      0.0010
     21  C21       -0.9080   24.9430   12.0010 C.ar  501  SC8501      0.0122
     22  C22       -0.6710   24.5830   10.6740 C.ar  501  SC8501      0.0683
     23  C23       -0.2370   25.5210    9.7470 C.ar  501  SC8501      0.0703
     24 CL24        0.0400   25.0550    8.1620 Cl    501  SC8501     -0.0813
     25 CL25       -0.9480   22.9790   10.2060 Cl    501  SC8501     -0.0814
@<TRIPOS>BOND
     1    17    16   ar
     2    17    18   ar
     3    16    15   ar
     4    18    13   ar
     5    15    14   ar
     6    13    14   ar
     7    13    12    1
     8     4     5    2
     9     4     3    1
    10    10    12    1
    11    10     9    2
    12     5     1    1
    13     3     9    1
    14     3     2    1
    15     9     8    1
    16     1     2    1
    17    24    23    1
    18     2     6    2
    19     8     7    1
    20     6     7    2
    21     7    11    1
    22    23    11   ar
    23    23    22   ar
    24    11    19   ar
    25    25    22    1
    26    22    21   ar
    27    19    20   ar
    28    21    20   ar
