@<TRIPOS>MOLECULE
2r3g_SC9_A_1.pdb
 24 27 0 0 0
SMALL
GASTEIGER

@<TRIPOS>ATOM
      1  C01        4.7510   27.2600    5.3530 C.ar  501  SC9501      0.0984
      2  N02        3.7760   27.4230    6.3150 N.ar  501  SC9501     -0.3001
      3  C03        3.9450   26.4550    7.2380 C.ar  501  SC9501      0.1904
      4  N04        4.9810   25.6520    6.9200 N.ar  501  SC9501     -0.2215
      5  C05        5.4770   26.1650    5.7680 C.ar  501  SC9501      0.1193
      6  C06        2.7330   28.2840    6.3950 C.3   501  SC9501      0.1666
      7  C07        1.8740   28.2380    7.4880 C.2   501  SC9501      0.1357
      8  N08        2.0480   27.2650    8.4510 N.2   501  SC9501     -0.3847
      9  C09        3.0300   26.3890    8.3660 C.2   501  SC9501      0.2334
     10  N10        3.2530   25.4020    9.2840 N.pl3 501  SC9501     -0.2023
     11  C11        2.4150   25.4500   10.4870 C.3   501  SC9501      0.1428
     12  C12        1.2100   24.5860   10.2840 C.ar  501  SC9501      0.0186
     13  C13        1.3300   23.1920   10.1360 C.ar  501  SC9501      0.0006
     14  C14        0.1680   22.4290    9.9360 C.ar  501  SC9501      0.0204
     15  C15       -1.0640   23.0910    9.8770 C.ar  501  SC9501      0.0989
     16  N16       -1.2010   24.4290   10.0340 N.ar  501  SC9501     -0.2426
     17  C17       -0.0800   25.1360   10.2260 C.ar  501  SC9501      0.0963
     18  C18        0.7830   29.2310    7.7520 C.ar  501  SC9501      0.0548
     19  C19        0.6870   30.5270    7.1360 C.ar  501  SC9501      0.1423
     20  C20       -0.3160   31.4220    7.5130 C.ar  501  SC9501      0.0297
     21  C21       -1.2280   31.0940    8.5240 C.ar  501  SC9501      0.0023
     22  C22       -1.1560   29.8350    9.1290 C.ar  501  SC9501      0.0002
     23  C23       -0.1470   28.9270    8.7600 C.ar  501  SC9501      0.0045
     24  F24        1.5020   30.9250    6.1820 F     501  SC9501     -0.2041
@<TRIPOS>BOND
     1     1     5   ar
     2     1     2   ar
     3     5     4   ar
     4    24    19    1
     5     2     6    1
     6     2     3   ar
     7     6     7    1
     8     4     3   ar
     9    19    20   ar
    10    19    18   ar
    11     3     9    1
    12     7    18    1
    13     7     8    2
    14    20    21   ar
    15    18    23   ar
    16     9     8    2
    17     9    10    1
    18    21    22   ar
    19    23    22   ar
    20    10    11    1
    21    15    14   ar
    22    15    16   ar
    23    14    13   ar
    24    16    17   ar
    25    13    12   ar
    26    17    12   ar
    27    12    11    1
