@<TRIPOS>MOLECULE
2r3h_SCE_A_1.pdb
 18 20 0 0 0
SMALL
GASTEIGER

@<TRIPOS>ATOM
      1  C01       -0.2280   30.4830    7.8410 C.ar  501  SCE501      0.0624
      2  N02        0.4500   29.2650    8.0110 N.ar  501  SCE501     -0.2888
      3  C03        1.6890   29.3660    7.2990 C.ar  501  SCE501      0.1811
      4  N04        1.7920   30.5860    6.6620 N.ar  501  SCE501     -0.2226
      5  C05        0.6420   31.2990    7.0400 C.ar  501  SCE501      0.1137
      6  C06        0.1480   28.1080    8.7120 C.ar  501  SCE501      0.1020
      7  C07        1.0660   27.0600    8.6860 C.ar  501  SCE501      0.1195
      8  N08        2.2670   27.0760    8.0280 N.ar  501  SCE501     -0.2233
      9  C09        2.6020   28.2010    7.3410 C.ar  501  SCE501      0.1829
     10  N10        3.7900   28.3030    6.6450 N.pl3 501  SCE501     -0.2129
     11  C11        4.8130   27.2760    6.7850 C.3   501  SCE501      0.1404
     12  C12        4.8740   26.3270    5.6150 C.ar  501  SCE501      0.0025
     13  C13        4.7030   24.9460    5.8130 C.ar  501  SCE501      0.0181
     14  C14        4.7650   24.0920    4.6930 C.ar  501  SCE501      0.0986
     15  N15        4.9920   24.5330    3.4300 N.ar  501  SCE501     -0.2423
     16  C16        5.1530   25.8610    3.2610 C.ar  501  SCE501      0.0986
     17  C17        5.0980   26.7910    4.3180 C.ar  501  SCE501      0.0181
     18  C18       -1.5460   30.7980    8.4130 C.3   501  SCE501      0.0521
@<TRIPOS>BOND
     1    16    15   ar
     2    16    17   ar
     3    15    14   ar
     4    17    12   ar
     5    14    13   ar
     6    12    13   ar
     7    12    11    1
     8    10    11    1
     9    10     9    1
    10     4     5   ar
    11     4     3   ar
    12     5     1   ar
    13     3     9   ar
    14     3     2   ar
    15     9     8   ar
    16     1     2   ar
    17     1    18    1
    18     2     6   ar
    19     8     7   ar
    20     7     6   ar
