@<TRIPOS>MOLECULE
2r3i_SCF_A_1.pdb
 24 27 0 0 0
SMALL
GASTEIGER

@<TRIPOS>ATOM
      1  C01       -0.4540   31.5250    8.0940 C.3   501  SCF501      0.1553
      2  C02        0.0870   30.2500    8.2840 C.2   501  SCF501      0.2818
      3  N03        1.2260   30.1960    7.4700 N.pl3 501  SCF501     -0.0324
      4  N04        1.4580   31.3630    6.8360 N.2   501  SCF501     -0.0837
      5  C05        0.4510   32.1780    7.2150 C.2   501  SCF501      0.1282
      6  N06       -0.3280   29.2050    9.0170 N.2   501  SCF501     -0.3667
      7  C07        0.4500   28.1340    8.9830 C.2   501  SCF501      0.1444
      8  C08        1.6660   28.0510    8.2540 C.2   501  SCF501      0.1216
      9  C09        2.0470   29.1240    7.4950 C.2   501  SCF501      0.3423
     10  N10        3.1980   29.2270    6.7960 N.pl3 501  SCF501     -0.0290
     11  C11        0.0700   26.9870    9.8140 C.ar  501  SCF501      0.0574
     12  C12        4.3530   28.4500    7.1930 C.3   501  SCF501      0.2776
     13  C13        4.5950   27.3370    6.2500 C.ar  501  SCF501      0.0316
     14  C14        4.5140   26.0190    6.6900 C.ar  501  SCF501      0.0205
     15  C15        4.7570   24.9860    5.7550 C.ar  501  SCF501      0.0987
     16  N16        5.0310   25.2190    4.4510 N.ar  501  SCF501     -0.2423
     17  C17        5.0990   26.5090    4.0500 C.ar  501  SCF501      0.0987
     18  C18        4.8550   27.5940    4.9100 C.ar  501  SCF501      0.0205
     19  C19        0.0210   25.6890    9.2610 C.ar  501  SCF501      0.0048
     20  C20       -0.3660   24.5800   10.0230 C.ar  501  SCF501      0.0002
     21  C21       -0.7010   24.7620   11.3620 C.ar  501  SCF501      0.0023
     22  C22       -0.6320   26.0240   11.9530 C.ar  501  SCF501      0.0297
     23  C23       -0.2700   27.1600   11.1820 C.ar  501  SCF501      0.1425
     24  F24       -0.2260   28.4050   11.8130 F     501  SCF501     -0.2041
@<TRIPOS>BOND
     1    17    16   ar
     2    17    18   ar
     3    16    15   ar
     4    18    13   ar
     5    15    14   ar
     6    13    14   ar
     7    13    12    1
     8    10    12    1
     9    10     9    1
    10     4     5    2
    11     4     3    1
    12     5     1    1
    13     3     9    1
    14     3     2    1
    15     9     8    2
    16     1     2    1
    17     8     7    1
    18     2     6    2
    19     7     6    2
    20     7    11    1
    21    19    11   ar
    22    19    20   ar
    23    11    23   ar
    24    20    21   ar
    25    23    24    1
    26    23    22   ar
    27    21    22   ar
