@<TRIPOS>MOLECULE
2r3j_SCJ_A_1.pdb
 24 27 0 0 0
SMALL
GASTEIGER

@<TRIPOS>ATOM
      1  C01       -0.2650   32.0710    8.5400 C.3   501  SCJ501      0.1955
      2  C02        0.2890   30.8530    8.8530 C.2   501  SCJ501      0.2918
      3  N03        1.4490   30.7730    8.1420 N.pl3 501  SCJ501     -0.0316
      4  N04        1.6550   31.9170    7.3860 N.2   501  SCJ501     -0.0828
      5  C05        0.6190   32.7020    7.6570 C.2   501  SCJ501      0.1388
      6  N06       -0.1960   29.8790    9.6960 N.2   501  SCJ501     -0.3661
      7  C07        0.5330   28.7870    9.8010 C.2   501  SCJ501      0.1423
      8  C08        1.7580   28.6500    9.0780 C.2   501  SCJ501      0.1215
      9  C09        2.2420   29.6580    8.2470 C.2   501  SCJ501      0.3423
     10  N10        3.4080   29.6340    7.5070 N.pl3 501  SCJ501     -0.0289
     11  C11        0.0480   27.7290   10.6980 C.ar  501  SCJ501      0.0300
     12  C12        4.4700   28.6680    7.8500 C.3   501  SCJ501      0.2791
     13  C13        4.6130   27.6790    6.7200 C.ar  501  SCJ501      0.0477
     14  C14        4.5850   26.2910    6.9300 C.ar  501  SCJ501      0.0987
     15  N15        4.7050   25.3750    5.9610 N.ar  501  SCJ501     -0.2425
     16  C16        4.8670   25.8290    4.7140 C.ar  501  SCJ501      0.0989
     17  C17        4.9280   27.1820    4.3920 C.ar  501  SCJ501      0.0205
     18  C18        4.7860   28.1190    5.4110 C.ar  501  SCJ501      0.0030
     19  C19       -0.4940   28.0580   11.9460 C.ar  501  SCJ501      0.0025
     20  C20       -0.9570   27.0610   12.8220 C.ar  501  SCJ501      0.0001
     21  C21       -0.8640   25.7210   12.4640 C.ar  501  SCJ501      0.0000
     22  C22       -0.3000   25.3730   11.2320 C.ar  501  SCJ501      0.0001
     23  C23        0.1480   26.3680   10.3580 C.ar  501  SCJ501      0.0025
     24 BR24       -1.8400   32.7670    9.2150 Br    501  SCJ501     -0.0633
@<TRIPOS>BOND
     1    17    16   ar
     2    17    18   ar
     3    16    15   ar
     4    18    13   ar
     5    15    14   ar
     6    13    14   ar
     7    13    12    1
     8     4     5    2
     9     4     3    1
    10    10    12    1
    11    10     9    1
    12     5     1    1
    13     3     9    1
    14     3     2    1
    15     9     8    2
    16     1     2    1
    17     1    24    1
    18     2     6    2
    19     8     7    1
    20     6     7    2
    21     7    11    1
    22    23    11   ar
    23    23    22   ar
    24    11    19   ar
    25    22    21   ar
    26    19    20   ar
    27    21    20   ar
