@<TRIPOS>MOLECULE
2r3k_SCQ_A_1.pdb
 24 27 0 0 0
SMALL
GASTEIGER

@<TRIPOS>ATOM
      1  C01       -0.3820   31.7800    8.6640 C.ar  501  SCQ501      0.0731
      2  C02        0.1670   30.5590    8.9710 C.ar  501  SCQ501      0.0920
      3  N03        1.3800   30.5110    8.3510 N.ar  501  SCQ501     -0.2141
      4  N04        1.6120   31.6870    7.6480 N.ar  501  SCQ501     -0.1618
      5  C05        0.5380   32.4470    7.8470 C.ar  501  SCQ501      0.1287
      6  C06       -0.3240   29.4720    9.7700 C.ar  501  SCQ501      0.0198
      7  C07        0.4650   28.3660    9.8910 C.ar  501  SCQ501      0.0043
      8  C08        1.7410   28.3370    9.2260 C.ar  501  SCQ501      0.0358
      9  C09        2.1990   29.4130    8.4560 C.ar  501  SCQ501      0.1492
     10  N10        3.4130   29.4610    7.8030 N.pl3 501  SCQ501     -0.2153
     11  C11        0.0270   27.1920   10.6960 C.ar  501  SCQ501      0.0001
     12  C12        4.4530   28.5030    8.1630 C.3   501  SCQ501      0.1432
     13  C13        4.5160   27.4910    7.0730 C.ar  501  SCQ501      0.0378
     14  C14        4.7150   27.8440    5.7340 C.ar  501  SCQ501      0.0996
     15  N15        4.7440   26.9450    4.7500 N.ar  501  SCQ501     -0.2227
     16  C16        4.5650   25.6710    5.1210 C.ar  501  SCQ501      0.1989
     17  N17        4.3350   25.2060    6.3620 N.ar  501  SCQ501     -0.2227
     18  C18        4.3210   26.1300    7.3300 C.ar  501  SCQ501      0.0996
     19  C19       -0.1020   27.2750   12.0940 C.ar  501  SCQ501      0.0000
     20  C20       -0.5260   26.1620   12.8350 C.ar  501  SCQ501      0.0000
     21  C21       -0.8220   24.9620   12.1870 C.ar  501  SCQ501      0.0000
     22  C22       -0.6960   24.8760   10.7980 C.ar  501  SCQ501      0.0000
     23  C23       -0.2780   25.9880   10.0610 C.ar  501  SCQ501      0.0000
     24 BR24       -2.0210   32.3970    9.2230 Br    501  SCQ501     -0.0457
@<TRIPOS>BOND
     1    15    16   ar
     2    15    14   ar
     3    16    17   ar
     4    14    13   ar
     5    17    18   ar
     6    13    18   ar
     7    13    12    1
     8     4     5   ar
     9     4     3   ar
    10    10    12    1
    11    10     9    1
    12     5     1   ar
    13     3     9   ar
    14     3     2   ar
    15     9     8   ar
    16     1     2   ar
    17     1    24    1
    18     2     6   ar
    19     8     7   ar
    20     6     7   ar
    21     7    11    1
    22    23    11   ar
    23    23    22   ar
    24    11    19   ar
    25    22    21   ar
    26    19    20   ar
    27    21    20   ar
