@<TRIPOS>MOLECULE
2r3l_SCW_A_1.pdb
 24 27 0 0 0
SMALL
GASTEIGER

@<TRIPOS>ATOM
      1  C01       -0.2380   32.4840    8.9900 C.ar  501  SCW501      0.1195
      2  N02        0.3290   31.2830    9.2310 N.ar  501  SCW501     -0.2825
      3  C03        1.4830   31.2310    8.5100 C.ar  501  SCW501      0.1631
      4  N04        1.6860   32.3760    7.7960 N.ar  501  SCW501     -0.2230
      5  C05        0.6140   33.1620    8.1100 C.ar  501  SCW501      0.1250
      6  C06       -0.1050   30.2270   10.0320 C.ar  501  SCW501      0.0819
      7  C07        0.6450   29.0810   10.1100 C.ar  501  SCW501      0.0190
      8  C08        1.8580   28.9920    9.3700 C.ar  501  SCW501      0.0207
      9  C09        2.3060   30.0460    8.5660 C.ar  501  SCW501      0.1001
     10  N10        3.4780   30.0760    7.8630 N.pl3 501  SCW501     -0.2297
     11  C11        0.2280   27.9800   11.0170 C.ar  501  SCW501      0.0015
     12  C12        4.5170   29.0810    8.1980 C.3   501  SCW501      0.1417
     13  C13        4.5630   28.0330    7.1280 C.ar  501  SCW501      0.0377
     14  C14        4.4060   26.6620    7.4060 C.ar  501  SCW501      0.0996
     15  N15        4.4410   25.7230    6.4390 N.ar  501  SCW501     -0.2227
     16  C16        4.6710   26.1820    5.1890 C.ar  501  SCW501      0.1989
     17  N17        4.8420   27.4550    4.8090 N.ar  501  SCW501     -0.2227
     18  C18        4.7840   28.3680    5.7850 C.ar  501  SCW501      0.0996
     19  C19       -0.3740   28.2700   12.2510 C.ar  501  SCW501      0.0000
     20  C20       -0.7540   27.2360   13.1210 C.ar  501  SCW501      0.0000
     21  C21       -0.5090   25.9080   12.7800 C.ar  501  SCW501      0.0000
     22  C22        0.1190   25.6050   11.5630 C.ar  501  SCW501      0.0000
     23  C23        0.4850   26.6340   10.6880 C.ar  501  SCW501      0.0000
     24 BR24       -1.8380   33.0930    9.6980 Br    501  SCW501     -0.0279
@<TRIPOS>BOND
     1    17    16   ar
     2    17    18   ar
     3    16    15   ar
     4    18    13   ar
     5    15    14   ar
     6    13    14   ar
     7    13    12    1
     8     4     5   ar
     9     4     3   ar
    10    10    12    1
    11    10     9    1
    12     5     1   ar
    13     3     9   ar
    14     3     2   ar
    15     9     8   ar
    16     1     2   ar
    17     1    24    1
    18     2     6   ar
    19     8     7   ar
    20     6     7   ar
    21     7    11    1
    22    23    11   ar
    23    23    22   ar
    24    11    19   ar
    25    22    21   ar
    26    19    20   ar
    27    21    20   ar
