@<TRIPOS>MOLECULE
2r3m_SCX_A_1.pdb
 28 31 0 0 0
SMALL
GASTEIGER

@<TRIPOS>ATOM
      1  C01       -0.6750   31.1570    8.2220 C.3   501  SCX501      0.1393
      2  C02       -0.1090   29.9570    8.6070 C.2   501  SCX501      0.2809
      3  N03        1.1270   29.8800    7.9750 N.pl3 501  SCX501     -0.0325
      4  N04        1.3770   30.9910    7.1940 N.2   501  SCX501     -0.0837
      5  C05        0.2940   31.7540    7.3650 C.2   501  SCX501      0.1272
      6  N06       -0.5640   28.9690    9.4520 N.2   501  SCX501     -0.3666
      7  C07        0.2110   27.9490    9.6250 C.2   501  SCX501      0.1466
      8  C08        1.5520   27.7780    8.9910 C.2   501  SCX501      0.1217
      9  C09        1.9960   28.7820    8.1990 C.2   501  SCX501      0.3422
     10  N10        3.2400   28.8300    7.5860 N.pl3 501  SCX501     -0.0292
     11  C11       -0.2180   26.8670   10.5410 C.ar  501  SCX501      0.0848
     12  C12        4.4410   28.0740    7.8790 C.3   501  SCX501      0.2769
     13  C13        4.5400   26.8800    7.0050 C.2   501  SCX501      0.0513
     14  C14        4.5030   25.6060    7.5170 C.3   501  SCX501      0.1654
     15  N15        4.5570   24.4960    6.7580 N.2   501  SCX501     -0.2006
     16  C16        4.6320   24.6840    5.4280 C.1   501  SCX501      0.1286
     17  N17        4.6710   25.8800    4.8190 N.2   501  SCX501     -0.1783
     18  C18        4.6060   26.9530    5.6180 C.2   501  SCX501      0.1084
     19  C19       -0.3360   27.1440   11.9000 C.ar  501  SCX501      0.1447
     20  C20       -0.7560   26.1690   12.8100 C.ar  501  SCX501      0.0299
     21  C21       -1.0380   24.8760   12.3640 C.ar  501  SCX501      0.0046
     22  C22       -0.9130   24.5770   11.0080 C.ar  501  SCX501      0.0299
     23  C23       -0.5110   25.5750   10.1050 C.ar  501  SCX501      0.1447
     24  C24       -1.9940   31.7000    8.6330 C.3   501  SCX501      0.0171
     25  N25        4.6680   23.5820    4.6420 N.pl3 501  SCX501     -0.0461
     26  C26       -3.1350   30.7520    8.3120 C.3   501  SCX501      0.0010
     27  F27       -0.0790   28.3540   12.3720 F     501  SCX501     -0.2040
     28  F28       -0.4140   25.2420    8.8070 F     501  SCX501     -0.2040
@<TRIPOS>BOND
     1    25    16    1
     2    17    16    2
     3    17    18    1
     4    16    15    2
     5    18    13    2
     6    15    14    1
     7    13    14    1
     8    13    12    1
     9     4     5    2
    10     4     3    1
    11     5     1    1
    12    10    12    1
    13    10     9    1
    14     3     9    1
    15     3     2    1
    16     9     8    2
    17     1     2    1
    18     1    24    1
    19    26    24    1
    20     2     6    2
    21    28    23    1
    22     8     7    1
    23     6     7    2
    24     7    11    1
    25    23    11   ar
    26    23    22   ar
    27    11    19   ar
    28    22    21   ar
    29    19    27    1
    30    19    20   ar
    31    21    20   ar
