@<TRIPOS>MOLECULE
2r3n_SCZ_A_1.pdb
 26 30 0 0 0
SMALL
GASTEIGER

@<TRIPOS>ATOM
      1  C01       -0.1700   30.5250    8.2710 C.3   501  SCZ501      0.1392
      2  C02        0.5290   29.3480    8.5070 C.2   501  SCZ501      0.2804
      3  N03        1.7200   29.4750    7.7820 N.pl3 501  SCZ501     -0.0343
      4  N04        1.7760   30.6710    7.0870 N.2   501  SCZ501     -0.0839
      5  C05        0.6430   31.2910    7.4170 C.2   501  SCZ501      0.1272
      6  N06        0.2670   28.2140    9.2250 N.2   501  SCZ501     -0.3709
      7  C07        1.2050   27.2610    9.2090 C.2   501  SCZ501      0.1248
      8  C08        2.4650   27.3180    8.4680 C.3   501  SCZ501      0.1783
      9  C09        2.7000   28.4550    7.7780 C.2   501  SCZ501      0.3319
     10  N10        3.8180   28.6980    7.0510 N.2   501  SCZ501     -0.0615
     11  C11        0.9730   26.0060    9.9700 C.ar  501  SCZ501      0.0261
     12  C12        5.0880   27.9970    7.0580 C.3   501  SCZ501      0.2910
     13  C13        5.1230   26.8410    6.0960 C.ar  501  SCZ501      0.0500
     14  C14        5.1070   27.0660    4.7330 C.ar  501  SCZ501      0.0989
     15  N15        5.1780   26.0770    3.7970 N.ar  501  SCZ501     -0.2425
     16  C16        5.2540   24.8120    4.2580 C.ar  501  SCZ501      0.0989
     17  C17        5.2490   24.4800    5.6030 C.ar  501  SCZ501      0.0205
     18  C18        5.1790   25.5120    6.5360 C.ar  501  SCZ501      0.0032
     19  C19       -0.3180   25.7130   10.3910 C.ar  501  SCZ501      0.0022
     20  C20       -0.5890   24.5440   11.1080 C.ar  501  SCZ501      0.0001
     21  C21        0.4480   23.6800   11.4450 C.ar  501  SCZ501      0.0000
     22  C22        1.7570   23.9690   11.0290 C.ar  501  SCZ501      0.0001
     23  C23        2.0210   25.1330   10.2880 C.ar  501  SCZ501      0.0022
     24  C24       -1.5310   30.9660    8.7550 C.3   501  SCZ501      0.0162
     25  C25       -2.5240   29.9570    9.2420 C.3   501  SCZ501      0.0009
     26  C26       -1.8880   30.9270   10.2160 C.3   501  SCZ501      0.0009
@<TRIPOS>BOND
     1    15    16   ar
     2    15    14   ar
     3    16    17   ar
     4    14    13   ar
     5    17    18   ar
     6    13    18   ar
     7    13    12    1
     8    10    12    1
     9    10     9    2
    10     4     5    2
    11     4     3    1
    12     5     1    1
    13     9     3    1
    14     9     8    1
    15     3     2    1
    16     1     2    1
    17     1    24    1
    18     8     7    1
    19     2     6    2
    20    24    25    1
    21    24    26    1
    22     7     6    2
    23     7    11    1
    24    25    26    1
    25    11    23   ar
    26    11    19   ar
    27    23    22   ar
    28    19    20   ar
    29    22    21   ar
    30    20    21   ar
