@<TRIPOS>MOLECULE
2r3o_2SC_A_1.pdb
 25 28 0 0 0
SMALL
GASTEIGER

@<TRIPOS>ATOM
      1  C01       -0.0540   30.2160    7.7490 C.3   501  2SC501      0.1720
      2  C02        0.6020   28.9950    7.8950 C.2   501  2SC501      0.2835
      3  N03        1.7780   29.0840    7.1770 N.pl3 501  2SC501     -0.0324
      4  N04        1.9170   30.3150    6.5840 N.2   501  2SC501     -0.0837
      5  C05        0.8220   30.9850    6.9580 C.2   501  2SC501      0.1299
      6  N06        0.2480   27.8560    8.5870 N.2   501  2SC501     -0.3667
      7  C07        1.0980   26.8520    8.5280 C.2   501  2SC501      0.1423
      8  C08        2.3780   26.8690    7.7730 C.2   501  2SC501      0.1215
      9  C09        2.6950   28.0040    7.1190 C.2   501  2SC501      0.3423
     10  N10        3.8440   28.2050    6.3850 N.pl3 501  2SC501     -0.0289
     11  C11        0.8040   25.5880    9.2790 C.ar  501  2SC501      0.0300
     12  C12        5.0900   27.4830    6.4370 C.3   501  2SC501      0.2791
     13  C13        5.1650   26.4260    5.3850 C.ar  501  2SC501      0.0477
     14  C14        5.4210   26.7710    4.0640 C.ar  501  2SC501      0.0987
     15  N15        5.5310   25.8790    3.0490 N.ar  501  2SC501     -0.2425
     16  C16        5.3490   24.5760    3.3650 C.ar  501  2SC501      0.0989
     17  C17        5.0690   24.1300    4.6540 C.ar  501  2SC501      0.0205
     18  C18        5.0000   25.0710    5.6700 C.ar  501  2SC501      0.0030
     19  C19       -0.5290   25.2590    9.5360 C.ar  501  2SC501      0.0025
     20  C20       -0.8380   24.0870   10.2480 C.ar  501  2SC501      0.0001
     21  C21        0.1860   23.2520   10.7070 C.ar  501  2SC501      0.0000
     22  C22        1.5250   23.5760   10.4510 C.ar  501  2SC501      0.0001
     23  C23        1.8350   24.7470    9.7380 C.ar  501  2SC501      0.0025
     24  C24       -1.3830   30.6080    8.2920 C.3   501  2SC501      0.1991
     25  O25       -1.3460   30.9080    9.6870 O.3   501  2SC501     -0.2194
@<TRIPOS>BOND
     1    15    16   ar
     2    15    14   ar
     3    16    17   ar
     4    14    13   ar
     5    17    18   ar
     6    13    18   ar
     7    13    12    1
     8    10    12    1
     9    10     9    1
    10     4     5    2
    11     4     3    1
    12     5     1    1
    13     9     3    1
    14     9     8    2
    15     3     2    1
    16     1     2    1
    17     1    24    1
    18     8     7    1
    19     2     6    2
    20    24    25    1
    21     7     6    2
    22     7    11    1
    23    11    19   ar
    24    11    23   ar
    25    19    20   ar
    26    23    22   ar
    27    20    21   ar
    28    22    21   ar
