@<TRIPOS>MOLECULE
2r3p_3SC_A_1.pdb
 28 31 0 0 0
SMALL
GASTEIGER

@<TRIPOS>ATOM
      1  C01       -0.5810   31.1270    8.0390 C.3   501  3SC501      0.2001
      2  C02       -0.0020   29.9290    8.3680 C.2   501  3SC501      0.2922
      3  N03        1.2540   29.9240    7.7520 N.pl3 501  3SC501     -0.0315
      4  N04        1.4920   31.0930    7.0480 N.2   501  3SC501     -0.0828
      5  C05        0.3720   31.8130    7.2310 C.2   501  3SC501      0.1393
      6  N06       -0.4570   28.8830    9.1120 N.2   501  3SC501     -0.3661
      7  C07        0.3260   27.8810    9.2430 C.2   501  3SC501      0.1431
      8  C08        1.6890   27.7740    8.6560 C.2   501  3SC501      0.1216
      9  C09        2.1180   28.8340    7.9120 C.2   501  3SC501      0.3423
     10  N10        3.3520   28.9230    7.2900 N.pl3 501  3SC501     -0.0290
     11  C11       -0.0920   26.7310   10.0770 C.ar  501  3SC501      0.0413
     12  C12        4.5130   28.1090    7.5410 C.3   501  3SC501      0.2776
     13  C13        4.5340   26.9870    6.5510 C.ar  501  3SC501      0.0316
     14  C14        4.6210   27.2420    5.1860 C.ar  501  3SC501      0.0205
     15  C15        4.6350   26.1670    4.3250 C.ar  501  3SC501      0.0987
     16  N16        4.5740   24.8620    4.7160 N.ar  501  3SC501     -0.2423
     17  C17        4.4890   24.6380    6.0300 C.ar  501  3SC501      0.0987
     18  C18        4.4700   25.6540    6.9830 C.ar  501  3SC501      0.0205
     19  C19       -0.3660   26.8890   11.4490 C.ar  501  3SC501      0.0706
     20  C20       -0.7420   25.7770   12.2100 C.ar  501  3SC501      0.0683
     21  C21       -0.8360   24.5290   11.6070 C.ar  501  3SC501      0.0122
     22  C22       -0.5690   24.3790   10.2520 C.ar  501  3SC501      0.0010
     23  C23       -0.1860   25.4750    9.4780 C.ar  501  3SC501      0.0034
     24  S24       -2.1600   31.7240    8.5020 S.3   501  3SC501     -0.0196
     25  C25       -2.8430   30.3170    9.2150 C.1   501  3SC501      0.1344
     26  N26       -3.2780   29.3170    9.7170 N.1   501  3SC501     -0.1837
     27 CL27       -0.2490   28.4220   12.1690 Cl    501  3SC501     -0.0813
     28 CL28       -1.0860   25.8570   13.9010 Cl    501  3SC501     -0.0814
@<TRIPOS>BOND
     1    15    16   ar
     2    15    14   ar
     3    16    17   ar
     4    14    13   ar
     5    17    18   ar
     6    13    18   ar
     7    13    12    1
     8     4     5    2
     9     4     3    1
    10     5     1    1
    11    10    12    1
    12    10     9    1
    13     3     9    1
    14     3     2    1
    15     9     8    2
    16     1     2    1
    17     1    24    1
    18     2     6    2
    19    24    25    1
    20     8     7    1
    21     6     7    2
    22    25    26    3
    23     7    11    1
    24    23    11   ar
    25    23    22   ar
    26    11    19   ar
    27    22    21   ar
    28    19    27    1
    29    19    20   ar
    30    21    20   ar
    31    20    28    1
