@<TRIPOS>MOLECULE
2r3q_5SC_A_1.pdb
 26 29 0 0 0
SMALL
GASTEIGER

@<TRIPOS>ATOM
      1  C01       -0.2370   31.0000    8.0770 C.3   501  5SC501      0.1955
      2  C02        0.2020   29.6990    8.1840 C.2   501  5SC501      0.2918
      3  N03        1.3180   29.6200    7.4580 N.pl3 501  5SC501     -0.0316
      4  N04        1.6310   30.8070    6.8420 N.2   501  5SC501     -0.0828
      5  C05        0.6920   31.6560    7.2300 C.2   501  5SC501      0.1388
      6  N06       -0.3120   28.6450    8.9120 N.2   501  5SC501     -0.3661
      7  C07        0.4000   27.5460    8.8760 C.2   501  5SC501      0.1420
      8  C08        1.6410   27.4720    8.2200 C.2   501  5SC501      0.1215
      9  C09        2.1110   28.5350    7.4970 C.2   501  5SC501      0.3423
     10  N10        3.3190   28.6340    6.8490 N.pl3 501  5SC501     -0.0288
     11  C11       -0.0800   26.3840    9.6180 C.ar  501  5SC501      0.0260
     12  C12        4.4270   27.6780    7.1880 C.3   501  5SC501      0.2837
     13  C13        4.5980   26.6550    6.0640 C.ar  501  5SC501      0.0996
     14  C14        4.6330   27.0320    4.7470 C.ar  501  5SC501      0.3014
     15  N15        4.7700   26.0870    3.6380 N.ar  501  5SC501     -0.1521
     16  C16        4.8810   24.6830    4.0160 C.ar  501  5SC501      0.3017
     17  C17        4.8550   24.2860    5.3310 C.ar  501  5SC501      0.0770
     18  C18        4.7210   25.2540    6.3680 C.ar  501  5SC501      0.0124
     19  C19       -0.3750   26.4590   11.0010 C.ar  501  5SC501     -0.0194
     20  C20       -0.8250   25.2960   11.6590 C.ar  501  5SC501     -0.0042
     21  C21       -0.9450   24.1100   10.9720 C.ar  501  5SC501     -0.0003
     22  C22       -0.6870   24.0340    9.6050 C.ar  501  5SC501      0.0001
     23  C23       -0.2320   25.1720    8.9290 C.ar  501  5SC501      0.0022
     24 BR24       -1.7060   31.7800    8.9430 Br    501  5SC501     -0.0633
     25  C25       -0.2430   27.7460   11.7900 C.3   501  5SC501      0.0311
     26  O26        4.7330   26.4830    2.3760 O.co2 501  5SC501     -0.6187
@<TRIPOS>UNITY_ATOM_ATTR
15 1
charge 1
26 1
charge -1
@<TRIPOS>BOND
     1    26    15    1
     2    15    16   ar
     3    15    14   ar
     4    16    17   ar
     5    14    13   ar
     6    17    18   ar
     7    13    18   ar
     8    13    12    1
     9     4     5    2
    10     4     3    1
    11    10    12    1
    12    10     9    1
    13     5     1    1
    14     3     9    1
    15     3     2    1
    16     9     8    2
    17     1     2    1
    18     1    24    1
    19     2     6    2
    20     8     7    1
    21     7     6    2
    22     7    11    1
    23    23    22   ar
    24    23    11   ar
    25    22    21   ar
    26    11    19   ar
    27    21    20   ar
    28    19    20   ar
    29    19    25    1
