@<TRIPOS>MOLECULE
2r3r_6SC_A_1.pdb
 24 27 0 0 0
SMALL
GASTEIGER

@<TRIPOS>ATOM
      1  C01       -0.0480   30.9950    8.0220 C.3   501  6SC501      0.1954
      2  C02        0.5350   29.7100    8.1800 C.2   501  6SC501      0.2913
      3  N03        1.7450   29.7920    7.4370 N.pl3 501  6SC501     -0.0334
      4  N04        1.9020   30.9820    6.8240 N.2   501  6SC501     -0.0830
      5  C05        0.8910   31.7290    7.1910 C.2   501  6SC501      0.1388
      6  N06        0.1680   28.5730    8.8850 N.2   501  6SC501     -0.3702
      7  C07        1.0520   27.5520    8.8600 C.2   501  6SC501      0.1248
      8  C08        2.2900   27.5940    8.1610 C.3   501  6SC501      0.1783
      9  C09        2.6550   28.7570    7.4660 C.2   501  6SC501      0.3320
     10  N10        3.8160   28.8950    6.7690 N.2   501  6SC501     -0.0615
     11  C11        0.7140   26.2820    9.5520 C.ar  501  6SC501      0.0261
     12  C12        4.8550   27.9230    6.9900 C.3   501  6SC501      0.2896
     13  C13        4.9540   26.9310    5.9010 C.ar  501  6SC501      0.0339
     14  C14        5.1040   27.3520    4.6020 C.ar  501  6SC501      0.0207
     15  C15        5.2330   26.3940    3.5820 C.ar  501  6SC501      0.0987
     16  N16        5.1690   25.0660    3.8100 N.ar  501  6SC501     -0.2423
     17  C17        5.0040   24.6740    5.0790 C.ar  501  6SC501      0.0987
     18  C18        4.9040   25.5610    6.1650 C.ar  501  6SC501      0.0207
     19  C19       -0.6150   25.9790    9.8430 C.ar  501  6SC501      0.0022
     20  C20       -0.9340   24.7950   10.5130 C.ar  501  6SC501      0.0001
     21  C21        0.0560   23.8810   10.8370 C.ar  501  6SC501      0.0000
     22  C22        1.4010   24.1580   10.5330 C.ar  501  6SC501      0.0001
     23  C23        1.7330   25.3610    9.8820 C.ar  501  6SC501      0.0022
     24 BR24       -1.6330   31.6170    8.6600 Br    501  6SC501     -0.0633
@<TRIPOS>BOND
     1    15    16   ar
     2    15    14   ar
     3    16    17   ar
     4    14    13   ar
     5    17    18   ar
     6    13    18   ar
     7    13    12    1
     8    10    12    1
     9    10     9    2
    10     4     5    2
    11     4     3    1
    12     5     1    1
    13     3     9    1
    14     3     2    1
    15     9     8    1
    16     1     2    1
    17     1    24    1
    18     8     7    1
    19     2     6    2
    20     7     6    2
    21     7    11    1
    22    11    19   ar
    23    11    23   ar
    24    19    20   ar
    25    23    22   ar
    26    20    21   ar
    27    22    21   ar
