@<TRIPOS>MOLECULE
2r3t_G4G_B_1.pdb
 45 49 0 0 0
SMALL
GASTEIGER

@<TRIPOS>ATOM
      1  C1        -8.8560   15.2040  -14.5190 C.ar  2501  G4G2501     0.0060
      2  O2       -16.6750   24.2070  -22.0810 O.2   2501  G4G2501    -0.2667
      3  N2        -5.3090   14.6220  -15.4730 N.am  2501  G4G2501    -0.0837
      4  C2       -14.0280   23.7510  -21.1890 C.ar  2501  G4G2501     0.0060
      5  O1        -6.9840   13.1880  -15.0080 O.2   2501  G4G2501    -0.2667
      6  N1       -17.1320   25.4280  -20.2760 N.am  2501  G4G2501    -0.0837
      7  C3        -7.2560   16.7100  -15.6670 C.ar  2501  G4G2501     0.0060
      8  C4        -7.5770   15.4330  -15.1340 C.ar  2501  G4G2501     0.0567
      9  C5       -15.0750   23.7590  -18.9610 C.ar  2501  G4G2501     0.0060
     10  C6       -15.0980   24.0630  -20.3340 C.ar  2501  G4G2501     0.0567
     11  C7       -13.2480   18.2880  -15.1280 C.3   2501  G4G2501     0.1221
     12  C8       -16.3710   24.5780  -20.9630 C.2   2501  G4G2501     0.2842
     13  S8       -10.5910   18.8980  -14.8950 S.O2  2501  G4G2501     0.0636
     14  C9        -6.6000   14.3370  -15.2080 C.2   2501  G4G2501     0.2842
     15  S9       -11.3000   22.2570  -18.5320 S.O2  2501  G4G2501     0.0636
     16  O10      -10.0180   20.0970  -15.4980 O.2   2501  G4G2501    -0.1528
     17  O11      -11.4040   22.5550  -17.1220 O.2   2501  G4G2501    -0.1528
     18  C12      -14.0340   19.6180  -14.9870 C.ar  2501  G4G2501    -0.0045
     19  C13      -13.3550   20.7890  -14.5110 C.ar  2501  G4G2501    -0.0029
     20  C14      -15.4240   19.6830  -15.3130 C.ar  2501  G4G2501    -0.0029
     21  C17       -9.8060   16.2640  -14.4470 C.ar  2501  G4G2501     0.0201
     22  C18      -12.8310   23.2050  -20.6520 C.ar  2501  G4G2501     0.0201
     23  C19       -8.2030   17.7640  -15.5770 C.ar  2501  G4G2501     0.0201
     24  C20      -13.8760   23.2230  -18.4170 C.ar  2501  G4G2501     0.0201
     25  C21      -12.3390   17.4940  -18.1480 C.3   2501  G4G2501     0.1079
     26  N22      -13.7340   17.9410  -18.4250 N.3   2501  G4G2501    -0.2150
     27  C23      -11.7160   18.6200  -17.3100 C.3   2501  G4G2501     0.1149
     28  C24      -12.4380   19.9220  -17.8440 C.3   2501  G4G2501     0.1149
     29  C25      -13.7880   19.4270  -18.4500 C.3   2501  G4G2501     0.1079
     30  C26       -9.4750   17.5470  -14.9670 C.ar  2501  G4G2501     0.1222
     31  C27      -12.7730   22.9430  -19.2640 C.ar  2501  G4G2501     0.1222
     32  N28      -11.9680   18.5480  -15.8340 N.3   2501  G4G2501    -0.1496
     33  C29      -14.1250   21.9950  -14.4160 C.ar  2501  G4G2501    -0.0003
     34  C30      -16.1880   20.8870  -15.2230 C.ar  2501  G4G2501    -0.0003
     35  C31      -15.5070   22.0490  -14.7570 C.ar  2501  G4G2501    -0.0000
     36  N32      -11.5950   20.6110  -18.8790 N.3   2501  G4G2501    -0.1496
     37  C33      -11.1050   19.9900  -20.1360 C.3   2501  G4G2501     0.1221
     38  C34       -9.7930   19.2250  -20.0450 C.ar  2501  G4G2501    -0.0045
     39  C35       -8.8670   19.5250  -19.0210 C.ar  2501  G4G2501    -0.0029
     40  C36       -7.6590   18.7640  -18.9940 C.ar  2501  G4G2501    -0.0003
     41  C37       -7.4070   17.7830  -19.9920 C.ar  2501  G4G2501    -0.0000
     42  C38       -9.5610   18.2190  -21.0240 C.ar  2501  G4G2501    -0.0029
     43  C39       -8.3600   17.4650  -20.9910 C.ar  2501  G4G2501    -0.0003
     44  O40      -10.2400   22.7050  -19.4280 O.2   2501  G4G2501    -0.1528
     45  O41      -11.0080   18.9390  -13.4720 O.2   2501  G4G2501    -0.1528
@<TRIPOS>BOND
     1     2    12    2
     2     4    22   ar
     3     4    10   ar
     4    42    43   ar
     5    42    38   ar
     6    43    41   ar
     7    12    10    1
     8    12     6   am
     9    22    31   ar
    10    10     9   ar
    11    37    38    1
    12    37    36    1
    13    38    39   ar
    14    41    40   ar
    15    44    15    2
    16    31    15    1
    17    31    24   ar
    18    39    40   ar
    19     9    24   ar
    20    36    15    1
    21    36    28    1
    22    15    17    2
    23    29    26    1
    24    29    28    1
    25    26    25    1
    26    25    27    1
    27    28    27    1
    28    27    32    1
    29    32    11    1
    30    32    13    1
    31     7    23   ar
    32     7     8   ar
    33    23    30   ar
    34    16    13    2
    35     3    14   am
    36    20    34   ar
    37    20    18   ar
    38    34    35   ar
    39    14     8    1
    40    14     5    2
    41     8     1   ar
    42    11    18    1
    43    18    19   ar
    44    30    13    1
    45    30    21   ar
    46    13    45    2
    47    35    33   ar
    48     1    21   ar
    49    19    33   ar
