@<TRIPOS>MOLECULE
2r3w_G3G_A_1.pdb
 41 45 0 0 0
SMALL
GASTEIGER

@<TRIPOS>ATOM
      1  C2       -14.3310  -23.7390   21.5950 C.ar  2501  G3G2501     0.0194
      2  C6       -15.3530  -24.1980   20.7420 C.ar  2501  G3G2501     0.0892
      3  C5       -15.1890  -24.1640   19.3370 C.ar  2501  G3G2501     0.0194
      4  C20      -13.9890  -23.6390   18.7890 C.ar  2501  G3G2501     0.0213
      5  C27      -12.9540  -23.1730   19.6370 C.ar  2501  G3G2501     0.1223
      6  C18      -13.1220  -23.2360   21.0450 C.ar  2501  G3G2501     0.0213
      7  S9       -11.4530  -22.5260   18.9190 S.O2  2501  G3G2501     0.0636
      8  O40      -10.4410  -22.9580   19.8640 O.2   2501  G3G2501    -0.1528
      9  O11      -11.4620  -22.8280   17.4980 O.2   2501  G3G2501    -0.1528
     10  N32      -11.7850  -20.8490   19.1690 N.3   2501  G3G2501    -0.1496
     11  C33      -11.3140  -20.2390   20.4480 C.3   2501  G3G2501     0.1221
     12  C34      -10.0190  -19.4370   20.3320 C.ar  2501  G3G2501    -0.0045
     13  C38       -9.7610  -18.3880   21.2570 C.ar  2501  G3G2501    -0.0029
     14  C39       -8.5750  -17.6190   21.1800 C.ar  2501  G3G2501    -0.0003
     15  C37       -7.6360  -17.9210   20.1580 C.ar  2501  G3G2501    -0.0000
     16  C36       -7.8860  -18.9840   19.2400 C.ar  2501  G3G2501    -0.0003
     17  C35       -9.0850  -19.7410   19.3130 C.ar  2501  G3G2501    -0.0029
     18  C24      -12.7230  -20.1930   18.1790 C.3   2501  G3G2501     0.1149
     19  C25      -13.9960  -19.5630   18.7900 C.3   2501  G3G2501     0.1079
     20  N22      -13.9390  -18.0960   18.5460 N.3   2501  G3G2501    -0.2150
     21  C21      -12.5240  -17.7280   18.2390 C.3   2501  G3G2501     0.1079
     22  C23      -11.9750  -18.9730   17.4930 C.3   2501  G3G2501     0.1149
     23  N28      -12.2670  -18.8910   16.0220 N.3   2501  G3G2501    -0.1496
     24  C7       -13.5820  -18.7510   15.3710 C.3   2501  G3G2501     0.1221
     25  C12      -14.4510  -20.0070   15.3450 C.ar  2501  G3G2501    -0.0045
     26  C14      -15.8720  -19.8700   15.4540 C.ar  2501  G3G2501    -0.0029
     27  C30      -16.7360  -21.0020   15.4180 C.ar  2501  G3G2501    -0.0003
     28  C31      -16.1640  -22.3050   15.2970 C.ar  2501  G3G2501    -0.0000
     29  C29      -14.7490  -22.4520   15.2100 C.ar  2501  G3G2501    -0.0003
     30  C13      -13.8860  -21.3130   15.2250 C.ar  2501  G3G2501    -0.0029
     31  S8       -10.9520  -19.2580   15.0260 S.O2  2501  G3G2501     0.0636
     32  C26       -9.8450  -17.8890   15.0500 C.ar  2501  G3G2501     0.1223
     33  C17      -10.0740  -16.6150   14.4640 C.ar  2501  G3G2501     0.0213
     34  C1        -9.1040  -15.5650   14.5650 C.ar  2501  G3G2501     0.0194
     35  C4        -7.8480  -15.8000   15.2330 C.ar  2501  G3G2501     0.0892
     36  C3        -7.6070  -17.0790   15.8220 C.ar  2501  G3G2501     0.0194
     37  C19       -8.6140  -18.0850   15.7680 C.ar  2501  G3G2501     0.0213
     38  O41      -11.4410  -19.4500   13.6470 O.2   2501  G3G2501    -0.1528
     39  O10      -10.2500  -20.4100   15.6160 O.2   2501  G3G2501    -0.1528
     40  N42       -6.8850  -14.8540   15.3160 N.pl3 2501  G3G2501    -0.1281
     41  N43      -16.4950  -24.6810   21.2640 N.pl3 2501  G3G2501    -0.1281
@<TRIPOS>BOND
     1    38    31    2
     2    33    34   ar
     3    33    32   ar
     4    34    35   ar
     5    31    32    1
     6    31    39    2
     7    31    23    1
     8    32    37   ar
     9    29    30   ar
    10    29    28   ar
    11    30    25   ar
    12    35    40    1
    13    35    36   ar
    14    28    27   ar
    15    25    24    1
    16    25    26   ar
    17    24    23    1
    18    27    26   ar
    19    37    36   ar
    20    23    22    1
    21    22    18    1
    22    22    21    1
    23     9     7    2
    24    18    19    1
    25    18    10    1
    26    21    20    1
    27    20    19    1
    28     4     3   ar
    29     4     5   ar
    30     7    10    1
    31     7     5    1
    32     7     8    2
    33    10    11    1
    34    16    17   ar
    35    16    15   ar
    36    17    12   ar
    37     3     2   ar
    38     5     6   ar
    39    15    14   ar
    40    12    11    1
    41    12    13   ar
    42     2    41    1
    43     2     1   ar
    44     6     1   ar
    45    14    13   ar
