@<TRIPOS>MOLECULE
2r3x_GTX_A_1.pdb
 26 25 0 0 0
SMALL
GASTEIGER

@<TRIPOS>ATOM
      1  N1        25.6450    6.6200   13.2280 N.3   5100  GTX5100    -0.1208
      2  CA1       26.5560    7.6480   12.6730 C.3   5100  GTX5100     0.1948
      3  C1        27.0710    7.1570   11.3380 C.2   5100  GTX5100     0.3819
      4  O11       27.3810    7.9290   10.4320 O.co2 5100  GTX5100    -0.2441
      5  O12       27.1520    5.9400   11.0910 O.co2 5100  GTX5100    -0.2441
      6  CB1       27.6540    7.9750   13.6850 C.3   5100  GTX5100     0.0402
      7  CG1       28.5310    9.1510   13.2410 C.3   5100  GTX5100     0.0889
      8  CD1       29.5310    9.5020   14.3510 C.2   5100  GTX5100     0.2418
      9  OE1       29.4300    8.8980   15.5900 O.2   5100  GTX5100    -0.2733
     10  N2        30.4900   10.3860   14.0900 N.am  5100  GTX5100    -0.1969
     11  CA2       31.3960   10.8560   15.1070 C.3   5100  GTX5100     0.1834
     12  C2        31.1070   12.3180   15.3490 C.2   5100  GTX5100     0.2626
     13  O2        30.9290   13.0970   14.2220 O.2   5100  GTX5100    -0.2714
     14  CB2       32.8320   10.6720   14.6630 C.3   5100  GTX5100     0.0886
     15  SG2       33.2030    8.9310   14.2910 S.3   5100  GTX5100    -0.1379
     16  C1S       34.8070    9.0050   15.1430 C.3   5100  GTX5100     0.0576
     17  C2S       35.5380    7.6780   14.9540 C.3   5100  GTX5100     0.0116
     18  C3S       36.8610    7.6590   15.7250 C.3   5100  GTX5100     0.0009
     19  C4S       37.1400    6.2210   16.1380 C.3   5100  GTX5100     0.0000
     20  C5S       37.2940    6.0600   17.6420 C.3   5100  GTX5100     0.0000
     21  C6S       37.3610    4.5670   17.9660 C.3   5100  GTX5100     0.0000
     22  N3        31.1000   12.7690   16.5950 N.am  5100  GTX5100    -0.1917
     23  CA3       30.8610   14.1690   16.9500 C.3   5100  GTX5100     0.2285
     24  C3        29.5720   14.3290   17.7080 C.2   5100  GTX5100     0.3865
     25  O31       29.3060   15.3990   18.3300 O.co2 5100  GTX5100    -0.2437
     26  O32       28.7480   13.3850   17.7550 O.co2 5100  GTX5100    -0.2437
@<TRIPOS>BOND
     1     4     3   ar
     2     5     3   ar
     3     3     2    1
     4     2     1    1
     5     2     6    1
     6     7     6    1
     7     7     8    1
     8    10     8   am
     9    10    11    1
    10    13    12    2
    11    15    14    1
    12    15    16    1
    13     8     9    2
    14    14    11    1
    15    17    16    1
    16    17    18    1
    17    11    12    1
    18    12    22   am
    19    18    19    1
    20    19    20    1
    21    22    23    1
    22    23    24    1
    23    20    21    1
    24    24    26   ar
    25    24    25   ar
