@<TRIPOS>MOLECULE
2r3y_III_D_1.pdb
 45 48 0 0 0
SMALL
GASTEIGER

@<TRIPOS>ATOM
      1  N         78.5220   24.1470   12.9790 N.3   407  VAL407     -0.1231
      2  CA        79.7540   24.0550   13.8150 C.3   407  VAL407      0.1692
      3  C         80.9240   23.5490   12.9780 C.2   407  VAL407      0.2592
      4  O         80.8340   22.4980   12.3420 O.2   407  VAL407     -0.2718
      5  CB        79.5480   23.0960   15.0090 C.3   407  VAL407      0.0266
      6  CG1       80.7680   23.1210   15.9160 C.3   407  VAL407      0.0020
      7  CG2       78.3000   23.4910   15.7810 C.3   407  VAL407      0.0020
      8  N         82.0190   24.3040   12.9830 N.am  408  TYR408     -0.1962
      9  CA        83.2110   23.9410   12.2220 C.3   408  TYR408      0.1771
     10  C         84.4250   23.6950   13.1200 C.2   408  TYR408      0.2620
     11  O         84.4140   24.0240   14.3090 O.2   408  TYR408     -0.2715
     12  CB        83.5430   25.0420   11.2030 C.3   408  TYR408      0.0574
     13  CG        82.6270   25.1020    9.9930 C.ar  408  TYR408     -0.0198
     14  CD1       82.8510   26.0310    8.9760 C.ar  408  TYR408     -0.0009
     15  CD2       81.5510   24.2230    9.8510 C.ar  408  TYR408     -0.0009
     16  CE1       82.0310   26.0820    7.8480 C.ar  408  TYR408      0.0417
     17  CE2       80.7240   24.2670    8.7270 C.ar  408  TYR408      0.0417
     18  CZ        80.9710   25.1990    7.7310 C.ar  408  TYR408      0.1957
     19  OH        80.1630   25.2490    6.6180 O.3   408  TYR408     -0.2866
     20  N         85.4680   23.1060   12.5400 N.am  409  TRP409     -0.1960
     21  CA        86.7040   22.8220   13.2630 C.3   409  TRP409      0.1768
     22  C         87.9290   23.0480   12.3710 C.2   409  TRP409      0.2620
     23  O         88.4880   22.1070   11.8090 O.2   409  TRP409     -0.2715
     24  CB        86.6990   21.3810   13.8110 C.3   409  TRP409      0.0553
     25  CG        86.2650   20.2980   12.8360 C.2   409  TRP409     -0.0136
     26  CD1       86.4290   20.2950   11.4810 C.2   409  TRP409      0.0907
     27  CD2       85.6600   19.0380   13.1650 C.3   409  TRP409      0.0819
     28  NE1       85.9690   19.1160   10.9440 N.2   409  TRP409     -0.2482
     29  CE2       85.4900   18.3260   11.9550 C.2   409  TRP409      0.0665
     30  CE3       85.2450   18.4410   14.3640 C.2   409  TRP409     -0.0164
     31  CZ2       84.9250   17.0460   11.9100 C.2   409  TRP409      0.0153
     32  CZ3       84.6830   17.1660   14.3190 C.2   409  TRP409     -0.0038
     33  CH2       84.5290   16.4850   13.0980 C.2   409  TRP409      0.0009
     34  N         88.3450   24.3060   12.2480 N.am  410  PHE410     -0.1938
     35  CA        89.4950   24.6590   11.4190 C.3   410  PHE410      0.2021
     36  C         90.7870   24.7930   12.2170 C.2   410  PHE410      0.3845
     37  O         91.2480   25.9360   12.4120 O.co2 410  PHE410     -0.2437
     38  CB        89.2140   25.9590   10.6620 C.3   410  PHE410      0.0596
     39  CG        88.1760   25.8190    9.5870 C.ar  410  PHE410     -0.0199
     40  CD1       86.9140   25.3170    9.8830 C.ar  410  PHE410     -0.0042
     41  CD2       88.4610   26.1840    8.2770 C.ar  410  PHE410     -0.0042
     42  CE1       85.9520   25.1790    8.8890 C.ar  410  PHE410     -0.0003
     43  CE2       87.5040   26.0500    7.2730 C.ar  410  PHE410     -0.0003
     44  CZ        86.2460   25.5470    7.5810 C.ar  410  PHE410     -0.0000
     45  OXT       91.3210   23.7480   12.6400 O.co2 410  PHE410     -0.2437
@<TRIPOS>BOND
     1    19    18    1
     2    43    44   ar
     3    43    41   ar
     4    44    42   ar
     5    18    16   ar
     6    18    17   ar
     7    16    14   ar
     8    41    39   ar
     9    17    15   ar
    10    42    40   ar
    11    14    13   ar
    12    39    40   ar
    13    39    38    1
    14    15    13   ar
    15    13    12    1
    16    38    35    1
    17    28    26    1
    18    28    29    2
    19    12     9    1
    20    35    36    1
    21    35    34    1
    22    26    25    2
    23    23    22    2
    24    31    29    1
    25    31    33    2
    26    29    27    1
    27    36    37   ar
    28    36    45   ar
    29     9     8    1
    30     9    10    1
    31    34    22   am
    32     4     3    2
    33    22    21    1
    34    20    10   am
    35    20    21    1
    36    25    27    1
    37    25    24    1
    38     3     8   am
    39     3     2    1
    40     1     2    1
    41    33    32    1
    42    10    11    2
    43    27    30    1
    44    21    24    1
    45     2     5    1
    46    32    30    2
    47     5     7    1
    48     5     6    1
