@<TRIPOS>MOLECULE
2r40_20E_D_1.pdb
 34 37 0 0 0
SMALL
GASTEIGER

@<TRIPOS>ATOM
      1  C19       26.0060  -10.9400   -2.7090 C.3   9001  20E9001     0.0008
      2  C10       27.3590  -10.2280   -2.6850 C.3   9001  20E9001     0.0130
      3  C1        28.4200  -11.2510   -3.1630 C.3   9001  20E9001     0.0363
      4  C2        29.8350  -10.6710   -3.0590 C.3   9001  20E9001     0.1821
      5  O2        30.7950  -11.6560   -3.4760 O.3   9001  20E9001    -0.2204
      6  C3        30.1650  -10.1840   -1.6370 C.3   9001  20E9001     0.1825
      7  O3        30.2940  -11.2930   -0.7730 O.3   9001  20E9001    -0.2204
      8  C4        29.0940   -9.2270   -1.0660 C.3   9001  20E9001     0.0432
      9  C5        27.6470   -9.7500   -1.2370 C.3   9001  20E9001     0.0649
     10  C6        26.7740   -8.5630   -0.8080 C.2   9001  20E9001     0.1722
     11  O6        26.5570   -8.3930    0.3970 O.2   9001  20E9001    -0.2914
     12  C7        26.2970   -7.6380   -1.7540 C.2   9001  20E9001     0.0313
     13  C8        26.5310   -7.7880   -3.1260 C.2   9001  20E9001    -0.0146
     14  C9        27.3860   -8.9750   -3.6580 C.3   9001  20E9001     0.0212
     15  C11       27.0730   -9.3350   -5.1630 C.3   9001  20E9001     0.0042
     16  C12       26.6110   -8.1550   -6.0710 C.3   9001  20E9001     0.0031
     17  C13       25.4550   -7.3540   -5.4470 C.3   9001  20E9001     0.0316
     18  C18       24.2220   -8.2660   -5.2070 C.3   9001  20E9001     0.0028
     19  C14       26.0160   -6.7390   -4.1540 C.3   9001  20E9001     0.1417
     20  O14       27.1790   -5.9510   -4.4520 O.3   9001  20E9001    -0.2215
     21  C15       24.9300   -5.7740   -3.7270 C.3   9001  20E9001     0.0344
     22  C16       24.4830   -5.1460   -5.0730 C.3   9001  20E9001     0.0055
     23  C17       25.0800   -6.0190   -6.2080 C.3   9001  20E9001     0.0332
     24  C20       24.1640   -6.0520   -7.5180 C.3   9001  20E9001     0.1545
     25  O20       23.0050   -6.8380   -7.3290 O.3   9001  20E9001    -0.2231
     26  C21       24.8670   -6.6820   -8.7200 C.3   9001  20E9001     0.0356
     27  C22       23.6550   -4.5920   -7.8860 C.3   9001  20E9001     0.1797
     28  O22       22.6330   -4.6150   -8.9430 O.3   9001  20E9001    -0.2205
     29  C23       24.7720   -3.5690   -8.2680 C.3   9001  20E9001     0.0380
     30  C24       24.1230   -2.2730   -8.8350 C.3   9001  20E9001     0.0331
     31  C25       25.0870   -1.0740   -8.9570 C.3   9001  20E9001     0.1269
     32  C26       25.3740   -0.4480   -7.5780 C.3   9001  20E9001     0.0329
     33  C27       24.4650   -0.0360   -9.8970 C.3   9001  20E9001     0.0329
     34  O25       26.3290   -1.5260   -9.5210 O.3   9001  20E9001    -0.2257
@<TRIPOS>BOND
     1    33    31    1
     2    34    31    1
     3    31    30    1
     4    31    32    1
     5    28    27    1
     6    30    29    1
     7    26    24    1
     8    29    27    1
     9    27    24    1
    10    24    25    1
    11    24    23    1
    12    23    17    1
    13    23    22    1
    14    16    17    1
    15    16    15    1
    16    17    18    1
    17    17    19    1
    18    15    14    1
    19    22    21    1
    20    20    19    1
    21    19    21    1
    22    19    13    1
    23    14    13    1
    24    14     2    1
    25     5     4    1
    26     3     4    1
    27     3     2    1
    28    13    12    2
    29     4     6    1
    30     1     2    1
    31     2     9    1
    32    12    10    1
    33     6     8    1
    34     6     7    1
    35     9     8    1
    36     9    10    1
    37    10    11    2
