@<TRIPOS>MOLECULE
2r40_EPH_A_1.pdb
 49 48 0 0 0
SMALL
GASTEIGER

@<TRIPOS>ATOM
      1  C1        25.3590   10.5840  -41.6160 C.3   600  EPH600      0.2543
      2  C2        24.3090   11.1350  -40.6750 C.3   600  EPH600      0.2420
      3  C4        25.2360    9.1500  -43.5000 C.2   600  EPH600      0.3171
      4  O2        24.5930   10.0310  -42.6890 O.3   600  EPH600     -0.4444
      5  O4        26.4450    9.2600  -43.7240 O.2   600  EPH600     -0.2501
      6  C18       24.4040    8.0240  -44.1320 C.3   600  EPH600      0.1096
      7  C19       25.0780    6.6480  -43.9850 C.3   600  EPH600      0.0116
      8  C20       25.0540    6.1500  -42.5410 C.3   600  EPH600      0.0006
      9  C21       26.0300    4.9870  -42.3500 C.3   600  EPH600      0.0000
     10  C22       25.8040    4.2720  -41.0090 C.3   600  EPH600      0.0000
     11  C23       24.8880    3.0410  -41.1330 C.3   600  EPH600      0.0000
     12  C24       23.4030    3.4170  -40.9350 C.3   600  EPH600      0.0000
     13  C25       22.5950    2.2540  -40.3560 C.3   600  EPH600      0.0000
     14  C26       21.1390    2.2330  -40.8640 C.3   600  EPH600      0.0000
     15  C27       20.5730    0.7990  -40.9210 C.3   600  EPH600      0.0000
     16  C28       21.6140   -0.1830  -41.4970 C.3   600  EPH600      0.0000
     17  C29       20.9860   -1.5020  -41.9420 C.3   600  EPH600      0.0000
     18  C30       21.7020   -2.7020  -41.3160 C.3   600  EPH600      0.0000
     19  C31       21.0090   -3.1400  -40.0200 C.3   600  EPH600      0.0000
     20  C32       22.0190   -3.7280  -39.0360 C.3   600  EPH600      0.0000
     21  C33       21.5690   -3.5070  -37.5920 C.3   600  EPH600      0.0000
     22  C34       21.9490   -4.7050  -36.7240 C.3   600  EPH600      0.0000
     23  C37       24.8410   12.4060  -40.0110 C.3   600  EPH600      0.1964
     24  O5        23.8640   12.9140  -39.0830 O.3   600  EPH600     -0.3100
     25  C3        22.6520    9.9700  -39.3720 C.2   600  EPH600      0.3171
     26  O1        23.9760   10.1500  -39.6640 O.3   600  EPH600     -0.4457
     27  O3        21.8050   10.7980  -39.6960 O.2   600  EPH600     -0.2501
     28  C5        22.2210    8.7200  -38.6180 C.3   600  EPH600      0.1096
     29  C6        22.6190    7.4630  -39.3910 C.3   600  EPH600      0.0116
     30  C7        21.9960    6.2240  -38.7680 C.3   600  EPH600      0.0006
     31  C8        23.0150    5.5010  -37.8910 C.3   600  EPH600      0.0000
     32  C9        22.3810    4.2730  -37.2280 C.3   600  EPH600      0.0000
     33  C10       23.4500    3.2380  -36.8800 C.3   600  EPH600      0.0000
     34  C11       22.9090    2.2110  -35.8980 C.3   600  EPH600      0.0000
     35  C12       23.2290    0.7890  -36.3400 C.3   600  EPH600      0.0000
     36  C13       24.6710    0.3970  -35.9900 C.3   600  EPH600      0.0000
     37  C14       24.9610   -1.0640  -36.3570 C.3   600  EPH600      0.0000
     38  C15       24.5480   -1.3920  -37.8040 C.3   600  EPH600      0.0000
     39  C16       25.7390   -1.8110  -38.6600 C.3   600  EPH600      0.0000
     40  C17       26.4660   -0.5840  -39.2030 C.3   600  EPH600      0.0000
     41  C35       27.7680   -0.3520  -38.4380 C.3   600  EPH600      0.0000
     42  C36       28.3470    1.0020  -38.8180 C.3   600  EPH600      0.0000
     43  P1        24.2580   13.7420  -37.7470 P.3   600  EPH600      0.2141
     44  O6        23.0020   13.9750  -36.9950 O.3   600  EPH600     -0.4373
     45  O7        25.1280   14.8940  -38.1150 O.2   600  EPH600     -0.5172
     46  O8        25.1620   12.6540  -36.9210 O.3   600  EPH600     -0.3125
     47  C38       25.6440   12.9300  -35.5900 C.3   600  EPH600      0.1696
     48  C39       27.1670   13.1380  -35.5960 C.3   600  EPH600      0.1417
     49  N1        27.8350   11.9780  -36.2110 N.3   600  EPH600     -0.1286
@<TRIPOS>BOND
     1     6     7    1
     2     6     3    1
     3     7     8    1
     4     5     3    2
     5     3     4    1
     6     4     1    1
     7     8     9    1
     8     9    10    1
     9    17    16    1
    10    17    18    1
    11     1     2    1
    12    16    15    1
    13    18    19    1
    14    11    10    1
    15    11    12    1
    16    12    13    1
    17    15    14    1
    18    14    13    1
    19     2    23    1
    20     2    26    1
    21    19    20    1
    22    23    24    1
    23    27    25    2
    24    26    25    1
    25    29    30    1
    26    29    28    1
    27    25    28    1
    28    40    39    1
    29    40    41    1
    30    24    43    1
    31    20    21    1
    32    42    41    1
    33    30    31    1
    34    39    38    1
    35    45    43    2
    36    31    32    1
    37    38    37    1
    38    43    44    1
    39    43    46    1
    40    21    22    1
    41    32    33    1
    42    46    47    1
    43    33    34    1
    44    37    36    1
    45    35    36    1
    46    35    34    1
    47    49    48    1
    48    48    47    1
