@<TRIPOS>MOLECULE
2r42_FPS_A_1.pdb
 20 19 0 0 0
SMALL
GASTEIGER

@<TRIPOS>ATOM
      1  C1        38.3650   27.6690   14.7710 C.3   400  FPS400      0.0690
      2  S1        37.1500   26.7250   15.2980 S.3   400  FPS400     -0.0268
      3  C2        38.0680   29.1230   15.0130 C.3   400  FPS400      0.0122
      4  C3        37.8410   29.8580   16.1880 C.3   400  FPS400      0.0009
      5  C4        38.3310   29.3580   17.5700 C.3   400  FPS400      0.0000
      6  C5        37.0990   31.2110   16.0980 C.3   400  FPS400      0.0000
      7  C6        35.6050   31.0210   15.9430 C.3   400  FPS400      0.0000
      8  C7        34.7600   31.8780   16.9700 C.3   400  FPS400      0.0000
      9  C8        34.0190   33.0990   16.5780 C.3   400  FPS400      0.0000
     10  C10       32.5570   33.2530   17.0100 C.3   400  FPS400      0.0000
     11  C9        34.7170   34.1960   15.7480 C.3   400  FPS400      0.0000
     12  C11       32.2980   34.4090   18.0260 C.3   400  FPS400      0.0000
     13  C12       31.3110   33.9540   19.1150 C.3   400  FPS400      0.0000
     14  C13       31.7440   33.8530   20.4850 C.3   400  FPS400      0.0000
     15  C14       31.7480   35.1150   21.3820 C.3   400  FPS400      0.0000
     16  C15       32.2000   32.4590   21.0590 C.3   400  FPS400      0.0000
     17  PA        35.9180   26.5150   14.0920 P.3   400  FPS400      0.4453
     18  O1A       34.6000   26.3200   14.7710 O.3   400  FPS400     -0.1297
     19  O2A       35.7610   27.7910   13.0800 O.2   400  FPS400     -0.2412
     20  O3A       36.3250   25.2770   13.2200 O.3   400  FPS400     -0.1297
@<TRIPOS>BOND
     1    19    17    2
     2    20    17    1
     3    17    18    1
     4    17     2    1
     5     1     3    1
     6     1     2    1
     7     3     4    1
     8    11     9    1
     9     7     6    1
    10     7     8    1
    11     6     4    1
    12     4     5    1
    13     9     8    1
    14     9    10    1
    15    10    12    1
    16    12    13    1
    17    13    14    1
    18    14    16    1
    19    14    15    1
