@<TRIPOS>MOLECULE
2r43_G3G_B_1.pdb
 41 45 0 0 0
SMALL
GASTEIGER

@<TRIPOS>ATOM
      1  C2       -14.7450   23.7500   -1.7310 C.ar  2501  G3G2501     0.0194
      2  C6       -13.6670   24.2220   -2.5000 C.ar  2501  G3G2501     0.0892
      3  C5       -13.7640   24.1920   -3.9170 C.ar  2501  G3G2501     0.0194
      4  C20      -14.9510   23.6710   -4.5060 C.ar  2501  G3G2501     0.0213
      5  C27      -16.0300   23.1860   -3.7250 C.ar  2501  G3G2501     0.1223
      6  C18      -15.9300   23.2320   -2.3150 C.ar  2501  G3G2501     0.0213
      7  S9       -17.4600   22.5520   -4.5940 S.O2  2501  G3G2501     0.0636
      8  O40      -18.6040   22.9310   -3.7680 O.2   2501  G3G2501    -0.1528
      9  O11      -17.2910   22.9710   -5.9610 O.2   2501  G3G2501    -0.1528
     10  N32      -17.1540   20.8760   -4.3050 N.3   2501  G3G2501    -0.1496
     11  C33      -17.7290   20.2290   -3.0980 C.3   2501  G3G2501     0.1221
     12  C34      -19.0190   19.4400   -3.1260 C.ar  2501  G3G2501    -0.0045
     13  C38      -19.1290   18.2920   -2.2790 C.ar  2501  G3G2501    -0.0029
     14  C39      -20.3230   17.5290   -2.2340 C.ar  2501  G3G2501    -0.0003
     15  C37      -21.3980   17.8800   -3.0880 C.ar  2501  G3G2501    -0.0000
     16  C36      -21.2870   19.0090   -3.9460 C.ar  2501  G3G2501    -0.0003
     17  C35      -20.1010   19.7880   -3.9640 C.ar  2501  G3G2501    -0.0029
     18  C24      -16.2480   20.1720   -5.2950 C.3   2501  G3G2501     0.1149
     19  C25      -14.8920   19.7440   -4.6940 C.3   2501  G3G2501     0.1079
     20  N22      -14.8090   18.2760   -4.7020 N.3   2501  G3G2501    -0.2150
     21  C21      -16.1220   17.7040   -5.1150 C.3   2501  G3G2501     0.1079
     22  C23      -16.9180   18.8290   -5.8220 C.3   2501  G3G2501     0.1149
     23  N28      -16.7490   18.7960   -7.3160 N.3   2501  G3G2501    -0.1496
     24  C7       -15.4620   18.5460   -8.0060 C.3   2501  G3G2501     0.1221
     25  C12      -14.5810   19.7990   -8.1370 C.ar  2501  G3G2501    -0.0045
     26  C14      -13.2100   19.7570   -7.7470 C.ar  2501  G3G2501    -0.0029
     27  C30      -12.3640   20.8990   -7.8520 C.ar  2501  G3G2501    -0.0003
     28  C31      -12.9090   22.1110   -8.3690 C.ar  2501  G3G2501    -0.0000
     29  C29      -14.2780   22.1660   -8.7600 C.ar  2501  G3G2501    -0.0003
     30  C13      -15.1140   21.0200   -8.6480 C.ar  2501  G3G2501    -0.0029
     31  S8       -18.1070   19.1180   -8.2690 S.O2  2501  G3G2501     0.0636
     32  C26      -19.2780   17.7950   -8.2320 C.ar  2501  G3G2501     0.1223
     33  C17      -19.0610   16.5280   -8.8520 C.ar  2501  G3G2501     0.0213
     34  C1       -20.0550   15.5170   -8.7770 C.ar  2501  G3G2501     0.0194
     35  C4       -21.2950   15.7600   -8.0740 C.ar  2501  G3G2501     0.0892
     36  C3       -21.5230   17.0260   -7.4520 C.ar  2501  G3G2501     0.0194
     37  C19      -20.4990   18.0220   -7.5380 C.ar  2501  G3G2501     0.0213
     38  O41      -17.6280   19.1870   -9.6680 O.2   2501  G3G2501    -0.1528
     39  O10      -18.8090   20.2830   -7.6770 O.2   2501  G3G2501    -0.1528
     40  N42      -22.2450   14.8010   -7.9900 N.pl3 2501  G3G2501    -0.1281
     41  N43      -12.5570   24.7170   -1.9050 N.pl3 2501  G3G2501    -0.1281
@<TRIPOS>BOND
     1    38    31    2
     2    33    34   ar
     3    33    32   ar
     4    34    35   ar
     5    29    30   ar
     6    29    28   ar
     7    30    25   ar
     8    28    27   ar
     9    31    32    1
    10    31    39    2
    11    31    23    1
    12    32    37   ar
    13    25    24    1
    14    25    26   ar
    15    35    40    1
    16    35    36   ar
    17    24    23    1
    18    27    26   ar
    19    37    36   ar
    20    23    22    1
    21     9     7    2
    22    22    18    1
    23    22    21    1
    24    18    19    1
    25    18    10    1
    26    21    20    1
    27    20    19    1
    28     7    10    1
    29     7     8    2
    30     7     5    1
    31     4     3   ar
    32     4     5   ar
    33    10    11    1
    34    17    16   ar
    35    17    12   ar
    36    16    15   ar
    37     3     2   ar
    38     5     6   ar
    39    12    11    1
    40    12    13   ar
    41    15    14   ar
    42     2    41    1
    43     2     1   ar
    44     6     1   ar
    45    13    14   ar
