@<TRIPOS>MOLECULE
2r45_2PG_A_1.pdb
 11 10 0 0 0
SMALL
GASTEIGER

@<TRIPOS>ATOM
      1  C1        24.5900  -35.7400   35.9610 C.2   700  2PG700      0.4249
      2  C2        23.4140  -34.9580   36.6680 C.2   700  2PG700      0.2701
      3  C3        22.6180  -35.8600   37.7010 C.2   700  2PG700      0.2782
      4  P         21.7040  -33.5240   34.5770 P.3   700  2PG700      0.5890
      5  O1        25.7890  -35.9520   36.5700 O.co2 700  2PG700     -0.2370
      6  O2        24.2610  -36.1020   34.7800 O.co2 700  2PG700     -0.2370
      7  O3        23.1040  -37.2110   38.1990 O.2   700  2PG700     -0.2795
      8  O1P       22.6740  -33.8500   35.8790 O.2   700  2PG700     -0.3895
      9  O2P       21.1360  -32.1080   34.4650 O.3   700  2PG700     -0.1039
     10  O3P       20.5790  -34.5040   34.5380 O.3   700  2PG700     -0.1039
     11  O4P       22.5450  -33.4460   33.2840 O.2   700  2PG700     -0.2114
@<TRIPOS>BOND
     1    11     4    2
     2     9     4    1
     3    10     4    1
     4     4     8    1
     5     6     1   ar
     6     8     2    1
     7     1     5   ar
     8     1     2    1
     9     2     3    2
    10     3     7    1
