@<TRIPOS>MOLECULE
2r45_T3A_A_1.pdb
 15 14 0 0 0
SMALL
GASTEIGER

@<TRIPOS>ATOM
      1  S1        28.2270  -18.3960    7.1800 S.3   7066  T3A7066    -0.1960
      2  O1        29.5620  -18.7090    6.6680 O.3   7066  T3A7066    -0.3075
      3  O2        27.5510  -17.6790    6.0660 O.3   7066  T3A7066    -0.3075
      4  O3        27.5000  -19.6170    7.4990 O.3   7066  T3A7066    -0.3075
      5  C1        28.3080  -17.3520    8.4680 C.3   7066  T3A7066     0.1067
      6  C2        29.1070  -16.1340    8.0170 C.3   7066  T3A7066     0.0403
      7  C3        29.3080  -15.1860    9.1920 C.3   7066  T3A7066     0.0906
      8  N1        30.2770  -14.1750    8.8560 N.3   7066  T3A7066    -0.2130
      9  C4        30.6330  -13.1420    9.8430 C.3   7066  T3A7066     0.1507
     10  C5        31.9250  -12.4600    9.3010 C.3   7066  T3A7066     0.2031
     11  O5        32.1590  -11.0940    9.6670 O.3   7066  T3A7066    -0.2187
     12  C6        30.7850  -13.9160   11.1460 C.3   7066  T3A7066     0.2031
     13  O6        31.9700  -14.6860   11.1000 O.3   7066  T3A7066    -0.2187
     14  C7        29.5940  -12.0330   10.1160 C.3   7066  T3A7066     0.2031
     15  O7        28.5460  -11.8960    9.1190 O.3   7066  T3A7066    -0.2187
@<TRIPOS>BOND
     1     3     1    1
     2     2     1    1
     3     1     4    1
     4     1     5    1
     5     6     5    1
     6     6     7    1
     7     8     7    1
     8     8     9    1
     9    15    14    1
    10    10    11    1
    11    10     9    1
    12     9    14    1
    13     9    12    1
    14    13    12    1
