@<TRIPOS>MOLECULE
2r46_T3A_A_1.pdb
 15 14 0 0 0
SMALL
GASTEIGER

@<TRIPOS>ATOM
      1  S1        28.7640  -38.5060    7.0770 S.3   7066  T3A7066    -0.1960
      2  O1        27.5230  -37.8220    6.9610 O.3   7066  T3A7066    -0.3075
      3  O2        29.3840  -39.1270    5.9490 O.3   7066  T3A7066    -0.3075
      4  O3        29.7670  -37.4930    7.5920 O.3   7066  T3A7066    -0.3075
      5  C1        28.6930  -39.6880    8.4390 C.3   7066  T3A7066     0.1067
      6  C2        27.6880  -40.7680    8.0700 C.3   7066  T3A7066     0.0403
      7  C3        27.5890  -41.7880    9.1900 C.3   7066  T3A7066     0.0906
      8  N1        26.5640  -42.7780    8.7980 N.3   7066  T3A7066    -0.2130
      9  C4        26.3680  -43.8190    9.8490 C.3   7066  T3A7066     0.1507
     10  C5        25.2400  -44.7520    9.3500 C.3   7066  T3A7066     0.2031
     11  O5        24.9690  -45.7850   10.3010 O.3   7066  T3A7066    -0.2187
     12  C6        25.9700  -43.1630   11.1940 C.3   7066  T3A7066     0.2031
     13  O6        24.8220  -42.3290   11.0370 O.3   7066  T3A7066    -0.2187
     14  C7        27.6350  -44.6810   10.0640 C.3   7066  T3A7066     0.2031
     15  O7        28.0360  -45.3010    8.8330 O.3   7066  T3A7066    -0.2187
@<TRIPOS>BOND
     1     3     1    1
     2     2     1    1
     3     1     4    1
     4     1     5    1
     5     6     5    1
     6     6     7    1
     7     8     7    1
     8     8     9    1
     9    15    14    1
    10    10     9    1
    11    10    11    1
    12     9    14    1
    13     9    12    1
    14    13    12    1
