@<TRIPOS>MOLECULE
2r46_PEP_A_1.pdb
 10 9 0 0 0
SMALL
GASTEIGER

@<TRIPOS>ATOM
      1  C1        32.4310  -21.3530   35.9480 C.2   700  PEP700      0.3919
      2  O1        32.6850  -21.0210   34.7570 O.co2 700  PEP700     -0.2429
      3  O2'       31.2170  -21.0420   36.5680 O.co2 700  PEP700     -0.2429
      4  C2        33.7580  -22.1460   36.3580 C.3   700  PEP700      0.2285
      5  C3        34.1980  -22.4580   37.8210 C.3   700  PEP700      0.0450
      6  O2        34.0490  -23.3790   35.5810 O.3   700  PEP700     -0.2611
      7  P         35.2010  -23.4930   34.4670 P.3   700  PEP700      0.5330
      8  O1P       35.8970  -24.8620   34.3160 O.3   700  PEP700     -0.1145
      9  O2P       36.1050  -22.3430   34.6480 O.3   700  PEP700     -0.1145
     10  O3P       34.3780  -23.4330   33.1800 O.2   700  PEP700     -0.2224
@<TRIPOS>BOND
     1    10     7    2
     2     8     7    1
     3     7     9    1
     4     7     6    1
     5     2     1   ar
     6     6     4    1
     7     1     4    1
     8     1     3   ar
     9     4     5    1
