@<TRIPOS>MOLECULE
2r4b_GW7_A_1.pdb
 28 31 0 0 0
SMALL
GASTEIGER

@<TRIPOS>ATOM
      1  F1       -21.2290   16.9550   -0.2150 F       1  GW71       -0.2042
      2  C1       -20.8290   18.2330   -0.2870 C.ar    1  GW71        0.1399
      3  C2       -21.6050   19.1790   -0.9250 C.ar    1  GW71        0.0296
      4  C3       -21.1630   20.4860   -0.9790 C.ar    1  GW71        0.0021
      5  C4       -19.9550   20.8300   -0.4030 C.ar    1  GW71       -0.0005
      6  C5       -19.1840   19.8810    0.2340 C.ar    1  GW71        0.0234
      7  C6       -17.8790   20.2610    0.8450 C.3     1  GW71        0.2321
      8  O1       -17.2180   19.0910    1.3200 O.3     1  GW71       -0.4698
      9  C7       -16.3390   18.5630    0.3720 C.ar    1  GW71        0.1497
     10  C8       -15.9390   19.2400   -0.7650 C.ar    1  GW71        0.0414
     11  C9       -15.0580   18.6330   -1.6400 C.ar    1  GW71        0.0476
     12  C10      -14.5650   17.3600   -1.4110 C.ar    1  GW71        0.1841
     13  N1       -13.6590   16.7620   -2.3130 N.pl3   1  GW71       -0.0089
     14  C11      -13.7950   15.4760   -2.8640 C.2     1  GW71        0.3546
     15  N2       -14.8450   14.6680   -2.6620 N.2     1  GW71       -0.0358
     16  C12      -14.8470   13.4680   -3.2520 C.3     1  GW71        0.3914
     17  N3       -13.9320   12.9160   -4.0530 N.2     1  GW71       -0.2216
     18  C13      -12.8820   13.7240   -4.2560 C.2     1  GW71        0.0805
     19  C14      -11.7560   13.4190   -5.0570 C.2     1  GW71        0.0220
     20  C15      -10.8210   14.4240   -5.0960 C.2     1  GW71        0.0273
     21  C16       -9.5310   14.4680   -5.8100 C.2     1  GW71        0.0062
     22  C17       -9.0530   15.7030   -6.1790 C.2     1  GW71        0.0005
     23  S1       -11.3370   15.7550   -4.1410 S.3     1  GW71       -0.0962
     24  C18      -12.7990   14.9820   -3.6790 C.3     1  GW71        0.2005
     25  C19      -14.9700   16.7000   -0.2700 C.ar    1  GW71        0.0588
     26  C20      -15.8480   17.2940    0.6090 C.ar    1  GW71        0.0951
     27 CL1       -16.3200   16.4120    2.0130 Cl      1  GW71       -0.0790
     28  C21      -19.6300   18.5780    0.2910 C.ar    1  GW71        0.0289
@<TRIPOS>BOND
     1    22    21    2
     2    21    20    1
     3    20    19    2
     4    20    23    1
     5    19    18    1
     6    18    17    2
     7    18    24    1
     8    23    24    1
     9    17    16    1
    10    24    14    1
    11    16    15    1
    12    14    15    2
    13    14    13    1
    14    13    12    1
    15    11    12   ar
    16    11    10   ar
    17    12    25   ar
    18     4     3   ar
    19     4     5   ar
    20     3     2   ar
    21    10     9   ar
    22     5     6   ar
    23     2     1    1
    24     2    28   ar
    25    25    26   ar
    26     6    28   ar
    27     6     7    1
    28     9    26   ar
    29     9     8    1
    30    26    27    1
    31     7     8    1
