@<TRIPOS>MOLECULE
2r4e_T3A_A_1.pdb
 15 14 0 0 0
SMALL
GASTEIGER

@<TRIPOS>ATOM
      1  S1        28.6120   38.4400   -7.1460 S.3   7066  T3A7066    -0.1960
      2  O1        27.2520   38.1250   -6.5950 O.3   7066  T3A7066    -0.3075
      3  O2        29.3770   39.1570   -6.0930 O.3   7066  T3A7066    -0.3075
      4  O3        29.3800   37.2240   -7.4850 O.3   7066  T3A7066    -0.3075
      5  C1        28.4870   39.4340   -8.4620 C.3   7066  T3A7066     0.1067
      6  C2        27.7720   40.7100   -8.0180 C.3   7066  T3A7066     0.0403
      7  C3        27.6080   41.6350   -9.2210 C.3   7066  T3A7066     0.0906
      8  N1        26.7030   42.7210   -8.9250 N.3   7066  T3A7066    -0.2130
      9  C4        26.3350   43.7470   -9.8850 C.3   7066  T3A7066     0.1507
     10  C5        25.2540   44.4910   -9.0990 C.3   7066  T3A7066     0.2031
     11  O5        24.7630   45.6190   -9.7980 O.3   7066  T3A7066    -0.2187
     12  C6        25.8830   43.0780  -11.1780 C.3   7066  T3A7066     0.2031
     13  O6        24.9560   42.0340  -10.9180 O.3   7066  T3A7066    -0.2187
     14  C7        27.4390   44.7520  -10.2720 C.3   7066  T3A7066     0.2031
     15  O7        28.3400   44.9420   -9.1550 O.3   7066  T3A7066    -0.2187
@<TRIPOS>BOND
     1    12    13    1
     2    12     9    1
     3    14     9    1
     4    14    15    1
     5     9    10    1
     6     9     8    1
     7    11    10    1
     8     7     8    1
     9     7     6    1
    10     5     6    1
    11     5     1    1
    12     4     1    1
    13     1     2    1
    14     1     3    1
