@<TRIPOS>MOLECULE
2r4e_13P_A_1.pdb
 10 9 0 0 0
SMALL
GASTEIGER

@<TRIPOS>ATOM
      1  P         35.2580   23.3300  -34.8250 P.3   1955  13P1955     0.5327
      2  O1P       36.0340   22.2000  -34.2990 O.3   1955  13P1955    -0.1145
      3  O2P       35.8050   24.7290  -34.2780 O.3   1955  13P1955    -0.1145
      4  O3P       33.8100   23.3510  -35.1480 O.2   1955  13P1955    -0.2224
      5  O1        35.4130   22.8500  -36.4240 O.3   1955  13P1955    -0.2674
      6  C1        34.4530   22.2880  -37.4440 C.3   1955  13P1955     0.1892
      7  C2        33.6920   20.8810  -37.2870 C.3   1955  13P1955     0.2147
      8  O2        33.9650   19.8480  -38.0720 O.3   1955  13P1955    -0.2176
      9  C3        32.4930   20.8150  -36.2200 C.3   1955  13P1955     0.2174
     10  O3        31.0850   20.8810  -36.8080 O.3   1955  13P1955    -0.2175
@<TRIPOS>BOND
     1     8     7    1
     2     6     7    1
     3     6     5    1
     4     7     9    1
     5    10     9    1
     6     5     1    1
     7     4     1    2
     8     1     2    1
     9     1     3    1
