@<TRIPOS>MOLECULE
2r4f_RIE_A_1.pdb
 38 40 0 0 0
SMALL
GASTEIGER

@<TRIPOS>ATOM
      1  N3        77.2520    8.4100   -5.4310 N.ar  876  RIE876     -0.2339
      2  C4        78.4760    8.0650   -5.0140 C.ar  876  RIE876      0.0582
      3  C5        79.2990    9.2900   -5.2960 C.ar  876  RIE876      0.0149
      4  C6        80.7470    9.5420   -5.0530 C.3   876  RIE876      0.0252
      5  C7        78.9000    6.7480   -4.3960 C.3   876  RIE876      0.0482
      6  C8        78.9040    6.9250   -2.8790 C.3   876  RIE876      0.0392
      7  C10       78.5790    5.7710   -0.6750 C.3   876  RIE876      0.0663
      8  C13       80.9610    9.9660   -3.6050 C.3   876  RIE876      0.0048
      9  C15       74.6670    5.9850   -6.4020 C.ar  876  RIE876      0.0312
     10  C17       80.8230   12.7310   -9.0530 C.ar  876  RIE876     -0.0027
     11  C20       82.0780   13.0370   -9.5800 C.ar  876  RIE876     -0.0003
     12  C21       75.2880    7.6550   -4.2930 C.ar  876  RIE876      0.0214
     13  C24       74.1390    6.8690   -4.2320 C.ar  876  RIE876      0.0312
     14  C26       80.5270   15.0500   -8.4400 C.ar  876  RIE876     -0.0027
     15  O2        79.1490   12.3740   -5.4810 O.2   876  RIE876     -0.2682
     16  C3        78.6650   11.6430   -6.3330 C.2   876  RIE876      0.2684
     17  N2        78.3910   12.0680   -7.5770 N.am  876  RIE876     -0.2709
     18  C1        78.6950   13.4720   -7.9060 C.3   876  RIE876      0.0983
     19  C16       77.6180   14.0590   -8.8260 C.3   876  RIE876      0.0264
     20  C32       80.0430   13.7380   -8.4800 C.ar  876  RIE876     -0.0043
     21  C23       81.7790   15.3590   -8.9680 C.ar  876  RIE876     -0.0003
     22  C29       82.5530   14.3480   -9.5370 C.ar  876  RIE876     -0.0000
     23  C14       77.7850   11.2370   -8.6200 C.3   876  RIE876      0.1155
     24  C2        78.3300   10.2530   -5.9080 C.ar  876  RIE876      0.1517
     25  C12       81.6150    8.3370   -5.4120 C.3   876  RIE876      0.0048
     26  C27       76.1650    7.6350   -5.3830 C.ar  876  RIE876      0.0826
     27  C18       75.8100    6.7820   -6.4350 C.ar  876  RIE876      0.0214
     28  C30       73.8270    6.0300   -5.2970 C.ar  876  RIE876      0.1402
     29  F1        72.7240    5.2660   -5.2570 F     876  RIE876     -0.2042
     30  N4        77.1070    9.6900   -5.9560 N.ar  876  RIE876     -0.1611
     31  C9        79.0210    5.6010   -2.1290 C.3   876  RIE876      0.1549
     32  O4        80.3890    5.1760   -2.1370 O.3   876  RIE876     -0.2230
     33  C11       77.0630    5.8210   -0.4980 C.3   876  RIE876      0.1658
     34  O3        76.4760    4.5520   -0.8200 O.3   876  RIE876     -0.2225
     35  C35       76.7500    6.1750    0.9520 C.3   876  RIE876      0.1469
     36  C36       75.2880    6.5290    1.1060 C.2   876  RIE876      0.3674
     37  O6        74.8970    7.6570    0.7310 O.co2 876  RIE876     -0.2456
     38  O7        74.5220    5.6800    1.6130 O.co2 876  RIE876     -0.2456
@<TRIPOS>BOND
     1    11    22   ar
     2    11    10   ar
     3    22    21   ar
     4    10    20   ar
     5    21    14   ar
     6    19    18    1
     7    23    17    1
     8    20    14   ar
     9    20    18    1
    10    18    17    1
    11    17    16   am
    12    27     9   ar
    13    27    26   ar
    14     9    28   ar
    15    16    24    1
    16    16    15    2
    17    30    24   ar
    18    30     1   ar
    19    24     3   ar
    20     1    26    1
    21     1     2   ar
    22    25     4    1
    23    26    12   ar
    24    28    29    1
    25    28    13   ar
    26     3     4    1
    27     3     2   ar
    28     4     8    1
    29     2     5    1
    30     5     6    1
    31    12    13   ar
    32     6    31    1
    33    32    31    1
    34    31     7    1
    35    34    33    1
    36     7    33    1
    37    33    35    1
    38    37    36   ar
    39    35    36    1
    40    36    38   ar
