@<TRIPOS>MOLECULE
2r4h_HIS_A_1.pdb
 10 10 0 0 0
SMALL
GASTEIGER

@<TRIPOS>ATOM
      1  N          5.5210   -0.2440   -6.2960 N.3    91  HIS91      -0.1241
      2  CA         4.8730   -0.8320   -5.1260 C.3    91  HIS91       0.1618
      3  C          3.8130    0.0860   -4.6180 C.2    91  HIS91       0.2264
      4  O          3.6790    1.2070   -5.0890 O.2    91  HIS91      -0.2867
      5  CB         5.8860   -1.1340   -4.0350 C.3    91  HIS91       0.0704
      6  CG         6.8620   -2.1920   -4.4260 C.2    91  HIS91       0.0649
      7  ND1        7.8100   -1.9940   -5.4030 N.2    91  HIS91      -0.2310
      8  CD2        7.0410   -3.4520   -3.9720 C.3    91  HIS91       0.1683
      9  CE1        8.5480   -3.0800   -5.5210 C.2    91  HIS91       0.1939
     10  NE2        8.0850   -3.9900   -4.6810 N.2    91  HIS91      -0.2440
@<TRIPOS>BOND
     1     1     2    1
     2     9     7    1
     3     9    10    2
     4     7     6    2
     5     2     3    1
     6     2     5    1
     7     4     3    2
     8    10     8    1
     9     6     5    1
    10     6     8    1
