@<TRIPOS>MOLECULE
2r4j_13P_A_1.pdb
 10 9 0 0 0
SMALL
GASTEIGER

@<TRIPOS>ATOM
      1  P         21.6690   33.7120   61.9750 P.3   1968  13P1968     0.5327
      2  O1P       20.8910   34.8410   62.5020 O.3   1968  13P1968    -0.1145
      3  O2P       21.1230   32.3120   62.5200 O.3   1968  13P1968    -0.1145
      4  O3P       23.1170   33.6930   61.6530 O.2   1968  13P1968    -0.2224
      5  O1        21.5150   34.1940   60.3760 O.3   1968  13P1968    -0.2674
      6  C1        22.4750   34.7580   59.3580 C.3   1968  13P1968     0.1892
      7  C2        23.2340   36.1660   59.5170 C.3   1968  13P1968     0.2147
      8  O2        22.9600   37.1990   58.7330 O.3   1968  13P1968    -0.2176
      9  C3        24.4320   36.2320   60.5850 C.3   1968  13P1968     0.2174
     10  O3        25.8410   36.1680   59.9980 O.3   1968  13P1968    -0.2175
@<TRIPOS>BOND
     1     8     7    1
     2     6     7    1
     3     6     5    1
     4     7     9    1
     5    10     9    1
     6     5     1    1
     7     4     1    2
     8     1     2    1
     9     1     3    1
