@<TRIPOS>MOLECULE
2r4t_250_A_1.pdb
 17 17 0 0 0
SMALL
GASTEIGER

@<TRIPOS>ATOM
      1  O1         4.5710  -38.6010  -49.3680 O.3   503  250503     -0.3074
      2  S1         4.0560  -37.3540  -48.7670 S.3   503  250503     -0.1934
      3  O2         3.7760  -36.3840  -49.8500 O.3   503  250503     -0.3074
      4  O3         2.8150  -37.6480  -48.0150 O.3   503  250503     -0.3074
      5  C1         5.1600  -36.6550  -47.7320 C.3   503  250503      0.1394
      6  C2         5.6560  -37.5970  -46.6290 C.3   503  250503      0.1876
      7  O4         5.9320  -38.9080  -47.1480 O.3   503  250503     -0.2199
      8  C3         4.6820  -37.6670  -45.4510 C.3   503  250503      0.1071
      9  N1         5.5500  -38.0120  -44.3330 N.3   503  250503     -0.2681
     10  C7         5.3190  -39.2270  -43.5460 C.3   503  250503      0.0897
     11  C6         5.8360  -39.0090  -42.1190 C.3   503  250503      0.0897
     12  N2         7.1750  -38.4270  -42.2090 N.3   503  250503     -0.2681
     13  C5         7.7340  -38.0840  -43.4990 C.3   503  250503      0.0897
     14  C4         6.6730  -37.1380  -44.0400 C.3   503  250503      0.0897
     15  C8         7.9650  -38.1440  -41.0170 C.3   503  250503      0.1081
     16  C9         7.4650  -39.1020  -39.9470 C.3   503  250503      0.1993
     17  O5         8.5700  -39.8920  -39.5070 O.3   503  250503     -0.2189
@<TRIPOS>BOND
     1     3     2    1
     2     1     2    1
     3     2     4    1
     4     2     5    1
     5     5     6    1
     6     7     6    1
     7     6     8    1
     8     8     9    1
     9     9    14    1
    10     9    10    1
    11    14    13    1
    12    10    11    1
    13    13    12    1
    14    12    11    1
    15    12    15    1
    16    15    16    1
    17    16    17    1
