@<TRIPOS>MOLECULE
2r4t_GLC_A_1.pdb
 12 12 0 0 0
SMALL
GASTEIGER

@<TRIPOS>ATOM
      1  C1         8.3700  -43.3190  -39.5350 C.3   502  GLC502      0.3024
      2  C2         7.5870  -44.4370  -38.8370 C.3   502  GLC502      0.2434
      3  C3         7.8790  -44.5350  -37.3400 C.3   502  GLC502      0.2199
      4  C4         9.3590  -44.3040  -37.0300 C.3   502  GLC502      0.2144
      5  C5         9.8070  -42.9820  -37.6260 C.3   502  GLC502      0.1836
      6  C6        11.2700  -42.6890  -37.2780 C.3   502  GLC502      0.2142
      7  O1         7.6260  -42.1290  -39.4900 O.3   502  GLC502     -0.1869
      8  O2         6.1910  -44.2940  -39.1070 O.3   502  GLC502     -0.2148
      9  O3         7.5260  -45.8160  -36.8750 O.3   502  GLC502     -0.2174
     10  O4         9.5840  -44.3010  -35.6330 O.3   502  GLC502     -0.2176
     11  O5         9.6780  -43.0950  -39.0250 O.3   502  GLC502     -0.3236
     12  O6        12.1360  -43.6360  -37.8780 O.3   502  GLC502     -0.2176
@<TRIPOS>BOND
     1     1     7    1
     2     1    11    1
     3     1     2    1
     4     8     2    1
     5    11     5    1
     6     2     3    1
     7    12     6    1
     8     5     6    1
     9     5     4    1
    10     3     4    1
    11     3     9    1
    12     4    10    1
