@<TRIPOS>MOLECULE
2r4t_ADP_A_1.pdb
 27 29 0 0 0
SMALL
GASTEIGER

@<TRIPOS>ATOM
      1  PB         5.4230  -41.4440  -36.7950 P.3   501  ADP501      0.5373
      2  O1B        4.9020  -42.5350  -37.7050 O.2   501  ADP501     -0.2221
      3  O2B        4.5510  -40.2140  -36.5970 O.3   501  ADP501     -0.1143
      4  O3B        6.8630  -41.0280  -37.3290 O.3   501  ADP501     -0.1143
      5  PA         6.7740  -42.0180  -34.2320 P.3   501  ADP501      0.2231
      6  O1A        8.0500  -42.6310  -34.7350 O.2   501  ADP501     -0.5169
      7  O2A        6.1530  -42.5410  -32.9670 O.3   501  ADP501     -0.4370
      8  O3A        5.6130  -42.1230  -35.3440 O.3   501  ADP501     -0.2261
      9  O5'        7.0400  -40.4380  -34.0380 O.3   501  ADP501     -0.3111
     10  C5'        6.0190  -39.4770  -33.8150 C.3   501  ADP501      0.1813
     11  C4'        6.6830  -38.2570  -33.1880 C.3   501  ADP501      0.1821
     12  O4'        5.8420  -37.1190  -33.3780 O.3   501  ADP501     -0.3135
     13  C3'        6.8030  -38.4170  -31.6880 C.3   501  ADP501      0.2184
     14  O3'        7.8160  -37.5070  -31.2240 O.3   501  ADP501     -0.2174
     15  C2'        5.4500  -37.9340  -31.2150 C.3   501  ADP501      0.2570
     16  O2'        5.4900  -37.5290  -29.8480 O.3   501  ADP501     -0.2130
     17  C1'        5.2440  -36.7500  -32.1420 C.3   501  ADP501      0.3186
     18  N9         3.8340  -36.4000  -32.4210 N.pl3 501  ADP501     -0.1439
     19  C8         2.9700  -37.0660  -33.2140 C.3   501  ADP501      0.3377
     20  N7         1.7900  -36.3960  -33.2150 N.2   501  ADP501     -0.2095
     21  C5         1.9370  -35.2990  -32.4350 C.2   501  ADP501      0.2526
     22  C6         1.0940  -34.2470  -32.0710 C.2   501  ADP501      0.4393
     23  N6        -0.1800  -34.1970  -32.5380 N.pl3 501  ADP501      0.2180
     24  N1         1.5640  -33.2770  -31.2450 N.2   501  ADP501      0.0021
     25  C2         2.8290  -33.3120  -30.7820 C.3   501  ADP501      0.5254
     26  N3         3.6660  -34.3180  -31.1200 N.2   501  ADP501     -0.0055
     27  C4         3.2380  -35.3080  -31.9440 C.2   501  ADP501      0.3518
@<TRIPOS>BOND
     1     2     1    2
     2     4     1    1
     3     1     3    1
     4     1     8    1
     5     8     5    1
     6     6     5    2
     7     5     9    1
     8     5     7    1
     9     9    10    1
    10    10    11    1
    11    12    11    1
    12    12    17    1
    13    20    19    1
    14    20    21    2
    15    19    18    1
    16    11    13    1
    17    23    22    1
    18    21    22    1
    19    21    27    1
    20    18    17    1
    21    18    27    1
    22    17    15    1
    23    22    24    2
    24    27    26    2
    25    13    14    1
    26    13    15    1
    27    24    25    1
    28    15    16    1
    29    26    25    1
