@<TRIPOS>MOLECULE
2r4u_250_A_1.pdb
 17 17 0 0 0
SMALL
GASTEIGER

@<TRIPOS>ATOM
      1  O1         4.4770  -38.2880  -49.1910 O.3   503  250503     -0.3074
      2  S1         4.0160  -37.0720  -48.4890 S.3   503  250503     -0.1934
      3  O2         3.7190  -36.0170  -49.4850 O.3   503  250503     -0.3074
      4  O3         2.7930  -37.3960  -47.7240 O.3   503  250503     -0.3074
      5  C1         5.1800  -36.4670  -47.4500 C.3   503  250503      0.1394
      6  C2         5.6420  -37.3780  -46.2940 C.3   503  250503      0.1876
      7  O4         5.8760  -38.7250  -46.7310 O.3   503  250503     -0.2199
      8  C3         4.6930  -37.3160  -45.0880 C.3   503  250503      0.1071
      9  N1         5.4230  -37.7590  -43.8940 N.3   503  250503     -0.2681
     10  C7         4.9440  -38.9280  -43.1460 C.3   503  250503      0.0897
     11  C6         6.0970  -39.9330  -43.0500 C.3   503  250503      0.0897
     12  N2         7.2950  -39.1830  -42.6540 N.3   503  250503     -0.2681
     13  C5         7.7570  -38.0050  -43.3890 C.3   503  250503      0.0897
     14  C4         6.5920  -37.0210  -43.4150 C.3   503  250503      0.0897
     15  C8         8.0720  -39.6380  -41.5120 C.3   503  250503      0.1081
     16  C9         7.6880  -38.7460  -40.3320 C.3   503  250503      0.1993
     17  O5         8.4080  -39.2310  -39.1990 O.3   503  250503     -0.2189
@<TRIPOS>BOND
     1     3     2    1
     2     1     2    1
     3     2     4    1
     4     2     5    1
     5     5     6    1
     6     7     6    1
     7     6     8    1
     8     8     9    1
     9     9    14    1
    10     9    10    1
    11    14    13    1
    12    13    12    1
    13    10    11    1
    14    11    12    1
    15    12    15    1
    16    15    16    1
    17    16    17    1
