@<TRIPOS>MOLECULE
2r4u_GLC_A_1.pdb
 12 12 0 0 0
SMALL
GASTEIGER

@<TRIPOS>ATOM
      1  C1         8.4650  -43.0520  -39.3870 C.3   502  GLC502      0.3024
      2  C2         7.6200  -44.1570  -38.7390 C.3   502  GLC502      0.2434
      3  C3         7.8740  -44.3020  -37.2220 C.3   502  GLC502      0.2199
      4  C4         9.3490  -44.0740  -36.8320 C.3   502  GLC502      0.2144
      5  C5         9.8500  -42.7760  -37.4570 C.3   502  GLC502      0.1836
      6  C6        11.3080  -42.4680  -37.1460 C.3   502  GLC502      0.2142
      7  O1         7.8520  -41.7890  -39.2860 O.3   502  GLC502     -0.1869
      8  O2         6.2410  -43.9750  -39.0640 O.3   502  GLC502     -0.2148
      9  O3         7.4460  -45.5700  -36.7710 O.3   502  GLC502     -0.2174
     10  O4         9.5110  -44.0140  -35.4300 O.3   502  GLC502     -0.2176
     11  O5         9.7710  -42.9790  -38.8420 O.3   502  GLC502     -0.3236
     12  O6        12.1460  -43.4170  -37.7650 O.3   502  GLC502     -0.2176
@<TRIPOS>BOND
     1     1     7    1
     2     1    11    1
     3     1     2    1
     4     8     2    1
     5    11     5    1
     6     2     3    1
     7    12     6    1
     8     5     6    1
     9     5     4    1
    10     3     4    1
    11     3     9    1
    12     4    10    1
