@<TRIPOS>MOLECULE
2r4u_ADP_A_1.pdb
 27 29 0 0 0
SMALL
GASTEIGER

@<TRIPOS>ATOM
      1  PB         5.4200  -41.2170  -36.7500 P.3   501  ADP501      0.5373
      2  O1B        4.9400  -42.3640  -37.6240 O.2   501  ADP501     -0.2221
      3  O2B        4.5350  -39.9980  -36.5500 O.3   501  ADP501     -0.1143
      4  O3B        6.8830  -40.8030  -37.1990 O.3   501  ADP501     -0.1143
      5  PA         6.7300  -41.8120  -34.1540 P.3   501  ADP501      0.2231
      6  O1A        8.0060  -42.4330  -34.5990 O.2   501  ADP501     -0.5169
      7  O2A        6.0160  -42.3260  -32.9190 O.3   501  ADP501     -0.4370
      8  O3A        5.5920  -41.9240  -35.2950 O.3   501  ADP501     -0.2261
      9  O5'        7.0010  -40.2370  -34.0100 O.3   501  ADP501     -0.3111
     10  C5'        5.9790  -39.3070  -33.7280 C.3   501  ADP501      0.1813
     11  C4'        6.6730  -38.0920  -33.1440 C.3   501  ADP501      0.1821
     12  O4'        5.8460  -36.9610  -33.4090 O.3   501  ADP501     -0.3135
     13  C3'        6.7710  -38.2040  -31.6290 C.3   501  ADP501      0.2184
     14  O3'        7.8180  -37.3430  -31.1500 O.3   501  ADP501     -0.2174
     15  C2'        5.4150  -37.6860  -31.1810 C.3   501  ADP501      0.2570
     16  O2'        5.3930  -37.2280  -29.8220 O.3   501  ADP501     -0.2130
     17  C1'        5.2150  -36.5590  -32.1870 C.3   501  ADP501      0.3186
     18  N9         3.8010  -36.2260  -32.4400 N.pl3 501  ADP501     -0.1439
     19  C8         2.9130  -36.9010  -33.2000 C.3   501  ADP501      0.3377
     20  N7         1.7390  -36.2320  -33.1570 N.2   501  ADP501     -0.2095
     21  C5         1.9200  -35.1280  -32.3870 C.2   501  ADP501      0.2526
     22  C6         1.1050  -34.0720  -31.9800 C.2   501  ADP501      0.4393
     23  N6        -0.1780  -34.0020  -32.3940 N.pl3 501  ADP501      0.2180
     24  N1         1.6170  -33.1100  -31.1690 N.2   501  ADP501      0.0021
     25  C2         2.8950  -33.1460  -30.7520 C.3   501  ADP501      0.5254
     26  N3         3.7040  -34.1520  -31.1180 N.2   501  ADP501     -0.0055
     27  C4         3.2320  -35.1400  -31.9320 C.2   501  ADP501      0.3518
@<TRIPOS>BOND
     1     2     1    2
     2     4     1    1
     3     1     3    1
     4     1     8    1
     5     8     5    1
     6     6     5    2
     7     5     9    1
     8     5     7    1
     9     9    10    1
    10    10    11    1
    11    12    11    1
    12    12    17    1
    13    19    20    1
    14    19    18    1
    15    20    21    2
    16    11    13    1
    17    18    17    1
    18    18    27    1
    19    23    22    1
    20    21    22    1
    21    21    27    1
    22    17    15    1
    23    22    24    2
    24    27    26    2
    25    13    15    1
    26    13    14    1
    27    15    16    1
    28    24    25    1
    29    26    25    1
