@<TRIPOS>MOLECULE
2r4v_GSH_A_1.pdb
 20 19 0 0 0
SMALL
GASTEIGER

@<TRIPOS>ATOM
      1  N1        -3.9990   11.6180   14.6440 N.3   248  GSH248     -0.1208
      2  CA1       -3.3820   10.6490   13.7530 C.3   248  GSH248      0.1948
      3  C1        -3.4130   11.1350   12.3130 C.2   248  GSH248      0.3819
      4  O11       -4.4060   10.9190   11.5690 O.co2 248  GSH248     -0.2441
      5  O12       -2.4580   11.7650   11.8090 O.co2 248  GSH248     -0.2441
      6  CB1       -1.9730   10.3990   14.2840 C.3   248  GSH248      0.0402
      7  CG1       -1.8780    9.1390   15.1540 C.3   248  GSH248      0.0889
      8  CD1       -0.9050    8.1650   14.5270 C.2   248  GSH248      0.2418
      9  OE1       -0.3700    8.4340   13.2490 O.2   248  GSH248     -0.2733
     10  N2        -0.5850    7.0710   15.2200 N.am  248  GSH248     -0.1968
     11  CA2        0.0780    5.9180   14.6040 C.3   248  GSH248      0.1843
     12  C2         0.3500    4.7110   15.4840 C.2   248  GSH248      0.2627
     13  O2         1.2220    3.7270   14.9820 O.2   248  GSH248     -0.2714
     14  CB2        1.4010    6.3760   14.0050 C.3   248  GSH248      0.0997
     15  SG2        1.2510    6.7890   12.2410 S.3   248  GSH248     -0.0797
     16  N3        -0.2250    4.5540   16.6890 N.am  248  GSH248     -0.1917
     17  CA3       -0.2780    3.2390   17.3190 C.3   248  GSH248      0.2285
     18  C3        -0.1970    3.2520   18.8370 C.2   248  GSH248      0.3865
     19  O31        0.5050    2.3770   19.4040 O.co2 248  GSH248     -0.2437
     20  O32       -0.8190    4.0960   19.5450 O.co2 248  GSH248     -0.2437
@<TRIPOS>BOND
     1     4     3   ar
     2     5     3   ar
     3    15    14    1
     4     3     2    1
     5     9     8    2
     6     2     6    1
     7     2     1    1
     8    14    11    1
     9     6     7    1
    10     8     7    1
    11     8    10   am
    12    11    10    1
    13    11    12    1
    14    13    12    2
    15    12    16   am
    16    16    17    1
    17    17    18    1
    18    18    19   ar
    19    18    20   ar
