@<TRIPOS>MOLECULE
2r4w_HEM_A_1.pdb
 43 50 0 0 0
SMALL
GASTEIGER

@<TRIPOS>ATOM
      1 FE         42.7950   -2.2880   20.2070 Fe    147  HEM147      0.0000
      2  CHA       41.8770   -0.6020   17.3190 C.2   147  HEM147      0.0000
      3  CHB       39.5570   -2.0880   21.3260 C.2   147  HEM147      0.0000
      4  CHC       43.8540   -3.4600   23.2590 C.2   147  HEM147      0.0000
      5  CHD       45.9770   -2.6770   18.9870 C.2   147  HEM147      0.0000
      6  NA        41.0760   -1.5020   19.4630 N.2   147  HEM147      0.0000
      7  C1A       40.8870   -0.8430   18.2660 C.2   147  HEM147      0.0000
      8  C2A       39.4900   -0.4650   18.1190 C.2   147  HEM147      0.0000
      9  C3A       38.8310   -0.8880   19.2280 C.2   147  HEM147      0.0000
     10  C4A       39.8150   -1.5200   20.0770 C.2   147  HEM147      0.0000
     11  CMA       37.3330   -0.7190   19.5160 C.3   147  HEM147      0.0000
     12  CAA       38.9110    0.1920   16.8780 C.3   147  HEM147      0.0000
     13  CBA       38.6500   -0.8690   15.8150 C.3   147  HEM147      0.0000
     14  CGA       38.5310   -0.2800   14.4270 C.2   147  HEM147      0.0000
     15  O1A       37.8020    0.7200   14.2690 O.co2 147  HEM147      0.0000
     16  O2A       39.1670   -0.8190   13.4970 O.co2 147  HEM147      0.0000
     17  NB        41.8870   -2.7630   21.8970 N.ar  147  HEM147      0.0000
     18  C1B       40.5260   -2.6910   22.1580 C.ar  147  HEM147      0.0000
     19  C2B       40.2490   -3.2140   23.4780 C.ar  147  HEM147      0.0000
     20  C3B       41.4500   -3.5210   24.0720 C.ar  147  HEM147      0.0000
     21  C4B       42.4720   -3.2390   23.0730 C.ar  147  HEM147      0.0000
     22  CMB       38.8550   -3.4300   24.0610 C.3   147  HEM147      0.0000
     23  CAB       41.6910   -4.0640   25.3340 C.3   147  HEM147      0.0000
     24  CBB       41.1170   -3.5960   26.5620 C.3   147  HEM147      0.0000
     25  NC        44.5550   -2.9200   20.9890 N.2   147  HEM147      0.0000
     26  C1C       44.8030   -3.3120   22.2710 C.2   147  HEM147      0.0000
     27  C2C       46.2370   -3.5650   22.4560 C.2   147  HEM147      0.0000
     28  C3C       46.8330   -3.3750   21.2440 C.2   147  HEM147      0.0000
     29  C4C       45.7810   -3.0170   20.3200 C.2   147  HEM147      0.0000
     30  CMC       46.8590   -3.8980   23.8100 C.3   147  HEM147      0.0000
     31  CAC       48.2050   -3.4350   20.9080 C.3   147  HEM147      0.0000
     32  CBC       49.2260   -4.1950   21.6010 C.3   147  HEM147      0.0000
     33  ND        43.7080   -1.7660   18.5070 N.ar  147  HEM147      0.0000
     34  C1D       45.0270   -2.0500   18.1560 C.ar  147  HEM147      0.0000
     35  C2D       45.3570   -1.4460   16.8880 C.ar  147  HEM147      0.0000
     36  C3D       44.2460   -0.8010   16.4390 C.ar  147  HEM147      0.0000
     37  C4D       43.2000   -1.0280   17.4350 C.ar  147  HEM147      0.0000
     38  CMD       46.7060   -1.5120   16.1790 C.3   147  HEM147      0.0000
     39  CAD       44.1560    0.0190   15.1590 C.3   147  HEM147      0.0000
     40  CBD       44.3070    1.4980   15.4480 C.3   147  HEM147      0.0000
     41  CGD       44.0100    2.3640   14.2350 C.2   147  HEM147      0.0000
     42  O1D       44.8210    2.3740   13.2860 O.co2 147  HEM147      0.0000
     43  O2D       42.9550    3.0300   14.2350 O.co2 147  HEM147      0.0000
@<TRIPOS>BOND
     1    42    41   ar
     2    16    14   ar
     3    43    41   ar
     4    41    40    1
     5    15    14   ar
     6    14    13    1
     7    39    40    1
     8    39    36    1
     9    13    12    1
    10    38    35    1
    11    36    35   ar
    12    36    37   ar
    13    12     8    1
    14    35    34   ar
    15     2    37    2
    16     2     7    1
    17    37    33   ar
    18     8     7    1
    19     8     9    2
    20    34    33   ar
    21    34     5    2
    22     7     6    2
    23    33     1    1
    24     5    29    1
    25     9    11    1
    26     9    10    1
    27     6    10    1
    28     6     1    1
    29    10     3    2
    30     1    25    1
    31     1    17    1
    32    29    25    2
    33    29    28    1
    34    31    28    1
    35    31    32    1
    36    25    26    1
    37    28    27    2
    38     3    18    1
    39    17    18   ar
    40    17    21   ar
    41    18    19   ar
    42    26    27    1
    43    26     4    2
    44    27    30    1
    45    21     4    1
    46    21    20   ar
    47    19    22    1
    48    19    20   ar
    49    20    23    1
    50    23    24    1
