@<TRIPOS>MOLECULE
2r4x_HEM_A_1.pdb
 43 50 0 0 0
SMALL
GASTEIGER

@<TRIPOS>ATOM
      1 FE         18.1970    7.9290   20.7250 Fe    147  HEM147      0.0000
      2  CHA       17.0980    9.7220   17.9710 C.2   147  HEM147      0.0000
      3  CHB       15.0420    8.0430   22.0840 C.2   147  HEM147      0.0000
      4  CHC       19.4190    6.4810   23.6040 C.2   147  HEM147      0.0000
      5  CHD       21.2550    7.5210   19.2390 C.2   147  HEM147      0.0000
      6  NA        16.4570    8.7040   20.1650 N.2   147  HEM147      0.0000
      7  C1A       16.1610    9.4200   18.9780 C.2   147  HEM147      0.0000
      8  C2A       14.7710    9.8220   18.9850 C.2   147  HEM147      0.0000
      9  C3A       14.2140    9.3480   20.1080 C.2   147  HEM147      0.0000
     10  C4A       15.2490    8.6800   20.8690 C.2   147  HEM147      0.0000
     11  CMA       12.7360    9.4480   20.4600 C.3   147  HEM147      0.0000
     12  CAA       14.0400   10.7640   18.0530 C.3   147  HEM147      0.0000
     13  CBA       13.2170   10.1220   16.9540 C.3   147  HEM147      0.0000
     14  CGA       14.0730    9.4400   15.9060 C.2   147  HEM147      0.0000
     15  O1A       14.7270   10.1440   15.0960 O.co2 147  HEM147      0.0000
     16  O2A       14.0950    8.1890   15.8980 O.co2 147  HEM147      0.0000
     17  NB        17.3880    7.2660   22.4040 N.ar  147  HEM147      0.0000
     18  C1B       16.0420    7.3670   22.7940 C.ar  147  HEM147      0.0000
     19  C2B       15.8460    6.8120   24.1320 C.ar  147  HEM147      0.0000
     20  C3B       17.0780    6.4530   24.6190 C.ar  147  HEM147      0.0000
     21  C4B       18.0350    6.7210   23.5180 C.ar  147  HEM147      0.0000
     22  CMB       14.4810    6.6140   24.7760 C.3   147  HEM147      0.0000
     23  CAB       17.4430    6.0200   25.9100 C.3   147  HEM147      0.0000
     24  CBB       16.6670    5.2080   26.8250 C.3   147  HEM147      0.0000
     25  NC        19.9610    7.1870   21.3090 N.2   147  HEM147      0.0000
     26  C1C       20.3140    6.7170   22.5730 C.2   147  HEM147      0.0000
     27  C2C       21.7230    6.3980   22.6380 C.2   147  HEM147      0.0000
     28  C3C       22.2470    6.6400   21.3880 C.2   147  HEM147      0.0000
     29  C4C       21.1380    7.1120   20.5670 C.2   147  HEM147      0.0000
     30  CMC       22.4470    5.8490   23.8640 C.3   147  HEM147      0.0000
     31  CAC       23.5530    6.4660   20.9310 C.3   147  HEM147      0.0000
     32  CBC       24.7180    6.0700   21.6760 C.3   147  HEM147      0.0000
     33  ND        18.9930    8.4880   18.9810 N.ar  147  HEM147      0.0000
     34  C1D       20.2730    8.2030   18.5250 C.ar  147  HEM147      0.0000
     35  C2D       20.5490    8.8760   17.2660 C.ar  147  HEM147      0.0000
     36  C3D       19.4320    9.5900   16.9430 C.ar  147  HEM147      0.0000
     37  C4D       18.4360    9.3080   17.9940 C.ar  147  HEM147      0.0000
     38  CMD       21.8490    8.8040   16.4600 C.3   147  HEM147      0.0000
     39  CAD       19.3140   10.5180   15.7320 C.3   147  HEM147      0.0000
     40  CBD       19.3220   11.9770   16.1480 C.3   147  HEM147      0.0000
     41  CGD       19.0600   12.9210   14.9910 C.2   147  HEM147      0.0000
     42  O1D       19.9340   13.0330   14.1000 O.co2 147  HEM147      0.0000
     43  O2D       17.9760   13.5470   14.9760 O.co2 147  HEM147      0.0000
@<TRIPOS>BOND
     1    42    41   ar
     2    43    41   ar
     3    41    40    1
     4    15    14   ar
     5    39    40    1
     6    39    36    1
     7    16    14   ar
     8    14    13    1
     9    38    35    1
    10    36    35   ar
    11    36    37   ar
    12    13    12    1
    13    35    34   ar
    14     2    37    2
    15     2     7    1
    16    37    33   ar
    17    12     8    1
    18    34    33   ar
    19    34     5    2
    20     7     8    1
    21     7     6    2
    22    33     1    1
    23     8     9    2
    24     5    29    1
    25     9    11    1
    26     9    10    1
    27     6     1    1
    28     6    10    1
    29    29    25    2
    30    29    28    1
    31     1    25    1
    32     1    17    1
    33    10     3    2
    34    31    28    1
    35    31    32    1
    36    25    26    1
    37    28    27    2
    38     3    18    1
    39    17    18   ar
    40    17    21   ar
    41    26    27    1
    42    26     4    2
    43    27    30    1
    44    18    19   ar
    45    21     4    1
    46    21    20   ar
    47    19    20   ar
    48    19    22    1
    49    20    23    1
    50    23    24    1
