@<TRIPOS>MOLECULE
2r4y_HEM_A_1.pdb
 43 50 0 0 0
SMALL
GASTEIGER

@<TRIPOS>ATOM
      1 FE         18.0320    7.8400   20.5600 Fe    147  HEM147      0.0000
      2  CHA       17.0030    9.8280   17.9440 C.2   147  HEM147      0.0000
      3  CHB       15.0200    8.3700   22.0890 C.2   147  HEM147      0.0000
      4  CHC       19.3320    6.7400   23.5380 C.2   147  HEM147      0.0000
      5  CHD       21.1370    7.6040   19.1360 C.2   147  HEM147      0.0000
      6  NA        16.3580    8.7960   20.0930 N.2   147  HEM147      0.0000
      7  C1A       16.0710    9.5310   18.9380 C.2   147  HEM147      0.0000
      8  C2A       14.6660    9.8970   18.8800 C.2   147  HEM147      0.0000
      9  C3A       14.1100    9.4270   20.0190 C.2   147  HEM147      0.0000
     10  C4A       15.1660    8.8140   20.7910 C.2   147  HEM147      0.0000
     11  CMA       12.6260    9.4660   20.3630 C.3   147  HEM147      0.0000
     12  CAA       13.9190   10.7160   17.8260 C.3   147  HEM147      0.0000
     13  CBA       13.1520    9.9290   16.7790 C.3   147  HEM147      0.0000
     14  CGA       14.0500    9.2730   15.7440 C.2   147  HEM147      0.0000
     15  O1A       14.6800   10.0040   14.9460 O.co2 147  HEM147      0.0000
     16  O2A       14.1260    8.0250   15.7310 O.co2 147  HEM147      0.0000
     17  NB        17.3070    7.4950   22.3850 N.ar  147  HEM147      0.0000
     18  C1B       16.0210    7.7280   22.8350 C.ar  147  HEM147      0.0000
     19  C2B       15.8350    7.2200   24.1940 C.ar  147  HEM147      0.0000
     20  C3B       17.0530    6.7720   24.6190 C.ar  147  HEM147      0.0000
     21  C4B       17.9640    6.9690   23.4870 C.ar  147  HEM147      0.0000
     22  CMB       14.4840    7.0900   24.9090 C.3   147  HEM147      0.0000
     23  CAB       17.4040    6.2260   25.8680 C.3   147  HEM147      0.0000
     24  CBB       16.8260    6.5640   27.1440 C.3   147  HEM147      0.0000
     25  NC        19.8370    7.2670   21.1850 N.2   147  HEM147      0.0000
     26  C1C       20.2130    6.8940   22.4720 C.2   147  HEM147      0.0000
     27  C2C       21.6230    6.5920   22.5420 C.2   147  HEM147      0.0000
     28  C3C       22.1400    6.7600   21.2860 C.2   147  HEM147      0.0000
     29  C4C       21.0150    7.1720   20.4520 C.2   147  HEM147      0.0000
     30  CMC       22.3710    6.2090   23.8210 C.3   147  HEM147      0.0000
     31  CAC       23.4620    6.6350   20.8430 C.3   147  HEM147      0.0000
     32  CBC       24.6320    6.3270   21.6150 C.3   147  HEM147      0.0000
     33  ND        18.8740    8.5440   18.8960 N.ar  147  HEM147      0.0000
     34  C1D       20.1670    8.3060   18.4430 C.ar  147  HEM147      0.0000
     35  C2D       20.4320    8.9880   17.1980 C.ar  147  HEM147      0.0000
     36  C3D       19.2890    9.6410   16.8730 C.ar  147  HEM147      0.0000
     37  C4D       18.3170    9.3560   17.9280 C.ar  147  HEM147      0.0000
     38  CMD       21.7670    9.0630   16.4490 C.3   147  HEM147      0.0000
     39  CAD       19.1110   10.5580   15.6600 C.3   147  HEM147      0.0000
     40  CBD       19.2270   12.0210   16.0550 C.3   147  HEM147      0.0000
     41  CGD       18.9980   12.9630   14.8880 C.2   147  HEM147      0.0000
     42  O1D       19.8370   12.9860   13.9610 O.co2 147  HEM147      0.0000
     43  O2D       17.9770   13.6790   14.8970 O.co2 147  HEM147      0.0000
@<TRIPOS>BOND
     1    42    41   ar
     2    41    43   ar
     3    41    40    1
     4    15    14   ar
     5    39    40    1
     6    39    36    1
     7    16    14   ar
     8    14    13    1
     9    38    35    1
    10    13    12    1
    11    36    35   ar
    12    36    37   ar
    13    35    34   ar
    14    12     8    1
    15    37     2    2
    16    37    33   ar
    17     2     7    1
    18    34    33   ar
    19    34     5    2
    20     8     7    1
    21     8     9    2
    22    33     1    1
    23     7     6    2
    24     5    29    1
    25     9    11    1
    26     9    10    1
    27     6     1    1
    28     6    10    1
    29    29    25    2
    30    29    28    1
    31     1    25    1
    32     1    17    1
    33    10     3    2
    34    31    28    1
    35    31    32    1
    36    25    26    1
    37    28    27    2
    38     3    18    1
    39    17    18   ar
    40    17    21   ar
    41    26    27    1
    42    26     4    2
    43    27    30    1
    44    18    19   ar
    45    21     4    1
    46    21    20   ar
    47    19    20   ar
    48    19    22    1
    49    20    23    1
    50    23    24    1
