@<TRIPOS>MOLECULE
2r4z_HEM_A_1.pdb
 43 50 0 0 0
SMALL
GASTEIGER

@<TRIPOS>ATOM
      1 FE         42.7500   -2.2410   19.9790 Fe    147  HEM147      0.0000
      2  CHA       41.7380   -0.6880   17.0850 C.2   147  HEM147      0.0000
      3  CHB       39.5060   -2.1390   21.1340 C.2   147  HEM147      0.0000
      4  CHC       43.8210   -3.4530   23.0080 C.2   147  HEM147      0.0000
      5  CHD       45.8950   -2.6300   18.6750 C.2   147  HEM147      0.0000
      6  NA        41.0000   -1.5340   19.2770 N.2   147  HEM147      0.0000
      7  C1A       40.7690   -0.9380   18.0530 C.2   147  HEM147      0.0000
      8  C2A       39.3850   -0.6220   17.8940 C.2   147  HEM147      0.0000
      9  C3A       38.7340   -0.9770   19.0310 C.2   147  HEM147      0.0000
     10  C4A       39.7550   -1.5730   19.8890 C.2   147  HEM147      0.0000
     11  CMA       37.2510   -0.7840   19.3500 C.3   147  HEM147      0.0000
     12  CAA       38.7840   -0.0960   16.5970 C.3   147  HEM147      0.0000
     13  CBA       38.6310   -1.2310   15.5870 C.3   147  HEM147      0.0000
     14  CGA       38.3870   -0.7280   14.1720 C.2   147  HEM147      0.0000
     15  O1A       37.5450    0.1750   13.9910 O.co2 147  HEM147      0.0000
     16  O2A       39.0340   -1.2490   13.2380 O.co2 147  HEM147      0.0000
     17  NB        41.8370   -2.7520   21.6870 N.ar  147  HEM147      0.0000
     18  C1B       40.4790   -2.6850   21.9770 C.ar  147  HEM147      0.0000
     19  C2B       40.2230   -3.1510   23.3340 C.ar  147  HEM147      0.0000
     20  C3B       41.4500   -3.4470   23.8710 C.ar  147  HEM147      0.0000
     21  C4B       42.4390   -3.2020   22.8550 C.ar  147  HEM147      0.0000
     22  CMB       38.8540   -3.4030   23.9590 C.3   147  HEM147      0.0000
     23  CAB       41.7560   -3.9940   25.2630 C.3   147  HEM147      0.0000
     24  CBB       41.0250   -3.6360   26.4470 C.3   147  HEM147      0.0000
     25  NC        44.4860   -2.9530   20.6870 N.2   147  HEM147      0.0000
     26  C1C       44.7760   -3.3380   21.9870 C.2   147  HEM147      0.0000
     27  C2C       46.1850   -3.6270   22.1230 C.2   147  HEM147      0.0000
     28  C3C       46.7490   -3.4560   20.9020 C.2   147  HEM147      0.0000
     29  C4C       45.6930   -3.0470   19.9980 C.2   147  HEM147      0.0000
     30  CMC       46.8780   -4.0400   23.4310 C.3   147  HEM147      0.0000
     31  CAC       48.2250   -3.5420   20.5030 C.3   147  HEM147      0.0000
     32  CBC       49.2170   -4.3580   21.1280 C.3   147  HEM147      0.0000
     33  ND        43.6200   -1.7570   18.2520 N.ar  147  HEM147      0.0000
     34  C1D       44.9460   -1.9760   17.8810 C.ar  147  HEM147      0.0000
     35  C2D       45.2420   -1.3110   16.6190 C.ar  147  HEM147      0.0000
     36  C3D       44.0810   -0.7510   16.2200 C.ar  147  HEM147      0.0000
     37  C4D       43.0750   -1.0510   17.1970 C.ar  147  HEM147      0.0000
     38  CMD       46.5890   -1.1780   15.9380 C.3   147  HEM147      0.0000
     39  CAD       43.9160    0.0530   14.9490 C.3   147  HEM147      0.0000
     40  CBD       43.9630    1.5490   15.1870 C.3   147  HEM147      0.0000
     41  CGD       43.6510    2.3300   13.9300 C.2   147  HEM147      0.0000
     42  O1D       44.5000    2.3600   13.0110 O.co2 147  HEM147      0.0000
     43  O2D       42.5450    2.8960   13.8590 O.co2 147  HEM147      0.0000
@<TRIPOS>BOND
     1    42    41   ar
     2    16    14   ar
     3    43    41   ar
     4    41    40    1
     5    15    14   ar
     6    14    13    1
     7    39    40    1
     8    39    36    1
     9    13    12    1
    10    38    35    1
    11    36    35   ar
    12    36    37   ar
    13    12     8    1
    14    35    34   ar
    15     2    37    2
    16     2     7    1
    17    37    33   ar
    18    34    33   ar
    19    34     5    2
    20     8     7    1
    21     8     9    2
    22     7     6    2
    23    33     1    1
    24     5    29    1
    25     9    11    1
    26     9    10    1
    27     6    10    1
    28     6     1    1
    29    10     3    2
    30     1    25    1
    31     1    17    1
    32    29    25    2
    33    29    28    1
    34    31    28    1
    35    31    32    1
    36    25    26    1
    37    28    27    2
    38     3    18    1
    39    17    18   ar
    40    17    21   ar
    41    18    19   ar
    42    26    27    1
    43    26     4    2
    44    27    30    1
    45    21     4    1
    46    21    20   ar
    47    19    20   ar
    48    19    22    1
    49    20    23    1
    50    23    24    1
