@<TRIPOS>MOLECULE
2r50_HEM_A_1.pdb
 43 50 0 0 0
SMALL
GASTEIGER

@<TRIPOS>ATOM
      1 FE          2.0150   53.4720   18.8210 Fe    166  HEM166      0.0000
      2  CHA       -0.7500   53.6250   20.6830 C.2   166  HEM166      0.0000
      3  CHB        1.6090   56.6720   17.9350 C.2   166  HEM166      0.0000
      4  CHC        4.9360   53.3150   17.1890 C.2   166  HEM166      0.0000
      5  CHD        2.3570   50.1590   19.6710 C.2   166  HEM166      0.0000
      6  NA         0.6780   54.8710   19.1860 N.ar  166  HEM166      0.0000
      7  C1A       -0.4000   54.7790   20.0000 C.ar  166  HEM166      0.0000
      8  C2A       -1.1550   56.0400   20.0160 C.ar  166  HEM166      0.0000
      9  C3A       -0.5180   56.8660   19.1870 C.ar  166  HEM166      0.0000
     10  C4A        0.6310   56.1300   18.7210 C.ar  166  HEM166      0.0000
     11  CMA       -0.8700   58.2910   18.7870 C.3   166  HEM166      0.0000
     12  CAA       -2.4720   56.3200   20.7530 C.3   166  HEM166      0.0000
     13  CBA       -2.4410   56.4620   22.2730 C.3   166  HEM166      0.0000
     14  CGA       -1.8730   57.7750   22.6960 C.2   166  HEM166      0.0000
     15  O1A       -2.4970   58.8140   22.3180 O.co2 166  HEM166      0.0000
     16  O2A       -0.8120   57.6990   23.3900 O.co2 166  HEM166      0.0000
     17  NB         3.0320   54.7720   17.8060 N.2   166  HEM166      0.0000
     18  C1B        2.7220   56.0480   17.5170 C.2   166  HEM166      0.0000
     19  C2B        3.7390   56.6720   16.6970 C.2   166  HEM166      0.0000
     20  C3B        4.6950   55.7140   16.4690 C.2   166  HEM166      0.0000
     21  C4B        4.2350   54.5380   17.1940 C.2   166  HEM166      0.0000
     22  CMB        3.7600   58.0910   16.2040 C.3   166  HEM166      0.0000
     23  CAB        5.9720   55.8020   15.8740 C.3   166  HEM166      0.0000
     24  CBB        6.8010   56.9630   15.9940 C.3   166  HEM166      0.0000
     25  NC         3.3270   52.0030   18.4430 N.ar  166  HEM166      0.0000
     26  C1C        4.5100   52.1250   17.7550 C.ar  166  HEM166      0.0000
     27  C2C        5.2350   50.8820   17.7160 C.ar  166  HEM166      0.0000
     28  C3C        4.4580   49.9890   18.3550 C.ar  166  HEM166      0.0000
     29  C4C        3.3150   50.7000   18.8230 C.ar  166  HEM166      0.0000
     30  CMC        6.5570   50.6200   17.0200 C.3   166  HEM166      0.0000
     31  CAC        4.5280   48.5700   18.5270 C.3   166  HEM166      0.0000
     32  CBC        4.8100   47.7050   17.4290 C.3   166  HEM166      0.0000
     33  ND         1.0420   52.1770   19.9770 N.2   166  HEM166      0.0000
     34  C1D        1.2850   50.8650   20.2060 C.2   166  HEM166      0.0000
     35  C2D        0.3160   50.3180   21.1120 C.2   166  HEM166      0.0000
     36  C3D       -0.5670   51.2610   21.4090 C.2   166  HEM166      0.0000
     37  C4D       -0.1180   52.4200   20.6840 C.2   166  HEM166      0.0000
     38  CMD        0.2780   48.8790   21.5900 C.3   166  HEM166      0.0000
     39  CAD       -1.7660   51.0860   22.2930 C.3   166  HEM166      0.0000
     40  CBD       -2.9990   50.6510   21.4490 C.3   166  HEM166      0.0000
     41  CGD       -4.2530   50.2490   22.2400 C.2   166  HEM166      0.0000
     42  O1D       -4.2370   50.4830   23.4740 O.co2 166  HEM166      0.0000
     43  O2D       -5.2480   49.6770   21.6560 O.co2 166  HEM166      0.0000
@<TRIPOS>BOND
     1    23    24    1
     2    23    20    1
     3    22    19    1
     4    20    19    2
     5    20    21    1
     6    19    18    1
     7    30    27    1
     8     4    21    2
     9     4    26    1
    10    21    17    1
    11    32    31    1
    12    18    17    2
    13    18     3    1
    14    27    26   ar
    15    27    28   ar
    16    26    25   ar
    17    17     1    1
    18     3    10    2
    19    28    31    1
    20    28    29   ar
    21    25     1    1
    22    25    29   ar
    23    10     6   ar
    24    10     9   ar
    25    11     9    1
    26     1     6    1
    27     1    33    1
    28    29     5    1
    29     6     7   ar
    30     9     8   ar
    31     5    34    2
    32    33    34    1
    33    33    37    2
    34     7     8   ar
    35     7     2    2
    36     8    12    1
    37    34    35    1
    38     2    37    1
    39    37    36    1
    40    12    13    1
    41    35    36    2
    42    35    38    1
    43    36    39    1
    44    40    41    1
    45    40    39    1
    46    43    41   ar
    47    41    42   ar
    48    13    14    1
    49    15    14   ar
    50    14    16   ar
