@<TRIPOS>MOLECULE
2r58_MLY_A_1.pdb
 12 11 0 0 0
SMALL
GASTEIGER

@<TRIPOS>ATOM
      1  N        -27.4310  -20.9950  -15.7020 N.3   436  MLY436     -0.1208
      2  CA       -27.1070  -20.7590  -17.1440 C.3   436  MLY436      0.1943
      3  CB       -25.8200  -19.9430  -17.2420 C.3   436  MLY436      0.0307
      4  CG       -25.6240  -19.4670  -18.6730 C.3   436  MLY436      0.0035
      5  CD       -24.5780  -18.3710  -18.7750 C.3   436  MLY436      0.0174
      6  CE       -24.1050  -18.2510  -20.2200 C.3   436  MLY436      0.0722
      7  NZ       -23.2310  -17.0770  -20.3810 N.3   436  MLY436     -0.2703
      8  CH1      -22.9850  -16.8360  -21.8120 C.3   436  MLY436      0.0897
      9  CH2      -21.9540  -17.3240  -19.6980 C.3   436  MLY436      0.0897
     10  C        -26.9690  -22.0410  -17.9280 C.2   436  MLY436      0.3819
     11  O        -26.2410  -22.9510  -17.5270 O.co2 436  MLY436     -0.2441
     12  OXT      -27.5670  -22.2100  -18.9990 O.co2 436  MLY436     -0.2441
@<TRIPOS>BOND
     1     8     7    1
     2     7     6    1
     3     7     9    1
     4     6     5    1
     5    12    10   ar
     6     5     4    1
     7     4     3    1
     8    10    11   ar
     9    10     2    1
    10     3     2    1
    11     2     1    1
