@<TRIPOS>MOLECULE
2r59_PH0_A_1.pdb
 35 37 0 0 0
SMALL
GASTEIGER

@<TRIPOS>ATOM
      1  O1        34.1440    4.2310    3.4590 O.3   706  PH0706     -0.1664
      2  C1        32.6740    2.7490    1.1120 C.3   706  PH0706      0.0554
      3  C2        31.9250    1.9930    0.0510 C.ar  706  PH0706     -0.0202
      4  C3        32.3780    1.8490   -1.2850 C.ar  706  PH0706     -0.0042
      5  C4        31.5450    1.1220   -2.1550 C.ar  706  PH0706     -0.0003
      6  C5        30.3210    0.5870   -1.7880 C.ar  706  PH0706     -0.0000
      7  C6        29.9130    0.7030   -0.4840 C.ar  706  PH0706     -0.0003
      8  C7        30.7050    1.4180    0.4100 C.ar  706  PH0706     -0.0042
      9  C8        34.1590    2.4400    1.2800 C.3   706  PH0706      0.1754
     10  C9        34.7870    5.2380    0.9710 C.3   706  PH0706      0.1003
     11  C10       34.7330    6.6000    1.6800 C.3   706  PH0706      0.0923
     12  C11       34.4690    7.6510    0.6400 C.2   706  PH0706      0.2422
     13  C12       33.2120    9.5880   -0.1850 C.3   706  PH0706      0.2020
     14  C13       32.3020   10.6700    0.3840 C.3   706  PH0706      0.0596
     15  C14       31.2240   10.0200    1.2170 C.ar  706  PH0706     -0.0199
     16  C15       31.4400    9.7600    2.5910 C.ar  706  PH0706     -0.0042
     17  C16       30.4200    9.1780    3.3160 C.ar  706  PH0706     -0.0003
     18  C17       29.2220    8.8370    2.7010 C.ar  706  PH0706     -0.0000
     19  C18       29.0160    9.1080    1.3620 C.ar  706  PH0706     -0.0003
     20  C19       30.0230    9.7010    0.6330 C.ar  706  PH0706     -0.0042
     21  C20       34.4680   10.2700   -0.6650 C.2   706  PH0706      0.3845
     22  P         34.9270    3.8450    2.1750 P.3   706  PH0706      0.2711
     23  O5        36.5450    3.4940    2.5240 O.2   706  PH0706     -0.2854
     24  N2        34.3010    1.2490    2.1560 N.3   706  PH0706     -0.1220
     25  C21       36.1120    6.8800    2.2820 C.3   706  PH0706      0.0360
     26  C22       36.0560    8.0130    3.3080 C.ar  706  PH0706     -0.0217
     27  C23       37.1910    8.7810    3.5430 C.ar  706  PH0706     -0.0043
     28  C24       37.2030    9.8470    4.4590 C.ar  706  PH0706     -0.0003
     29  C25       36.0480   10.1100    5.1790 C.ar  706  PH0706     -0.0000
     30  C26       34.9070    9.3190    5.0060 C.ar  706  PH0706     -0.0003
     31  C27       34.9040    8.2690    4.0700 C.ar  706  PH0706     -0.0043
     32  O2        35.1500    7.6490   -0.3360 O.2   706  PH0706     -0.2733
     33  N1        33.4920    8.5280    0.7690 N.am  706  PH0706     -0.1952
     34  O3        35.4190   10.5980    0.1270 O.co2 706  PH0706     -0.2437
     35  O4        34.5220   10.4430   -1.8970 O.co2 706  PH0706     -0.2437
@<TRIPOS>BOND
     1     5     6   ar
     2     5     4   ar
     3    35    21   ar
     4     6     7   ar
     5     4     3   ar
     6    21    13    1
     7    21    34   ar
     8     7     8   ar
     9    32    12    2
    10    13    14    1
    11    13    33    1
    12     3     8   ar
    13     3     2    1
    14    14    15    1
    15    20    15   ar
    16    20    19   ar
    17    12    33   am
    18    12    11    1
    19    10    11    1
    20    10    22    1
    21     2     9    1
    22    15    16   ar
    23     9    24    1
    24     9    22    1
    25    19    18   ar
    26    11    25    1
    27    22    23    2
    28    22     1    1
    29    25    26    1
    30    16    17   ar
    31    18    17   ar
    32    26    27   ar
    33    26    31   ar
    34    27    28   ar
    35    31    30   ar
    36    28    29   ar
    37    30    29   ar
