@<TRIPOS>MOLECULE
2r5a_MLZ_A_1.pdb
 11 10 0 0 0
SMALL
GASTEIGER

@<TRIPOS>ATOM
      1  N        -26.9940  -20.5260  -15.8370 N.3   436  MLZ436     -0.1208
      2  CA       -26.4300  -20.5520  -17.2200 C.3   436  MLZ436      0.1943
      3  CB       -25.1370  -19.7370  -17.2980 C.3   436  MLZ436      0.0310
      4  CG       -25.0700  -19.0160  -18.6360 C.3   436  MLZ436      0.0084
      5  CD       -23.8060  -18.1830  -18.8010 C.3   436  MLZ436      0.0466
      6  CE       -23.5150  -18.0370  -20.2870 C.2   436  MLZ436      0.0668
      7  NZ       -22.6920  -16.9010  -20.6420 N.2   436  MLZ436     -0.2714
      8  CM       -22.7040  -16.4390  -22.0200 C.3   436  MLZ436      0.1513
      9  C        -26.1530  -21.9540  -17.6930 C.2   436  MLZ436      0.3819
     10  O        -25.4350  -22.7060  -17.0260 O.co2 436  MLZ436     -0.2441
     11  OXT      -26.6200  -22.3660  -18.7660 O.co2 436  MLZ436     -0.2441
@<TRIPOS>BOND
     1     8     7    1
     2     7     6    2
     3     6     5    1
     4     5     4    1
     5    11     9   ar
     6     4     3    1
     7     9     2    1
     8     9    10   ar
     9     3     2    1
    10     2     1    1
