@<TRIPOS>MOLECULE
2r5c_C6P_B_1.pdb
 22 22 0 0 0
SMALL
GASTEIGER

@<TRIPOS>ATOM
      1  N         20.7460  -14.4550   22.7980 N.3   430  C6P430     -0.2027
      2  C         18.9840  -15.7710   23.6920 C.2   430  C6P430      0.3812
      3  O         18.9450  -16.3930   24.7550 O.co2 430  C6P430     -0.2441
      4  P         23.5900   -9.2450   22.3990 P.3   430  C6P430      0.5329
      5  OP3       22.8620   -8.2410   21.6400 O.2   430  C6P430     -0.2224
      6  OP1       25.0010   -8.9480   22.5330 O.3   430  C6P430     -0.1145
      7  OP2       22.9900   -9.6240   23.6550 O.3   430  C6P430     -0.1145
      8  OP4       23.5010  -10.5970   21.5930 O.3   430  C6P430     -0.2653
      9  C5M       22.3900  -10.9490   20.8230 C.3   430  C6P430      0.1816
     10  C5        22.5950  -12.3280   20.2440 C.ar  430  C6P430      0.0275
     11  C6        23.1050  -12.4390   18.8250 C.ar  430  C6P430      0.0965
     12  N1        23.1930  -13.7490   18.2510 N.ar  430  C6P430     -0.2452
     13  C2        22.8400  -14.9510   18.9350 C.ar  430  C6P430      0.0978
     14  C2A       22.9750  -16.2830   18.2290 C.3   430  C6P430      0.0555
     15  C3        22.3290  -14.8930   20.3460 C.ar  430  C6P430      0.2062
     16  O3        21.9930  -16.1000   20.9740 O.3   430  C6P430     -0.2856
     17  C4        22.1900  -13.5490   21.0380 C.ar  430  C6P430      0.0353
     18  C4A       21.6690  -13.3940   22.4680 C.3   430  C6P430      0.1186
     19  CA        19.5630  -14.3740   23.6430 C.3   430  C6P430      0.1877
     20  OXT       18.6660  -16.2900   22.6850 O.co2 430  C6P430     -0.2441
     21  CB        18.5460  -13.4300   23.0110 C.3   430  C6P430      0.0975
     22  SG        18.2740  -11.8880   23.9260 S.3   430  C6P430     -0.0800
@<TRIPOS>BOND
     1    14    13    1
     2    12    11   ar
     3    12    13   ar
     4    11    10   ar
     5    13    15   ar
     6    10     9    1
     7    10    17   ar
     8    15    16    1
     9    15    17   ar
    10     9     8    1
    11    17    18    1
    12     8     4    1
    13     5     4    2
    14     4     6    1
    15     4     7    1
    16    18     1    1
    17    20     2   ar
    18     1    19    1
    19    21    19    1
    20    21    22    1
    21    19     2    1
    22     2     3   ar
