@<TRIPOS>MOLECULE
2r5e_QLP_A_1.pdb
 25 25 0 0 0
SMALL
GASTEIGER

@<TRIPOS>ATOM
      1  OXT      -26.0700  -18.1680   19.7790 O.co2 430  QLP430     -0.2441
      2  C        -26.6710  -17.5980   20.7220 C.2   430  QLP430      0.3803
      3  O        -27.8460  -17.9620   21.0230 O.co2 430  QLP430     -0.2441
      4  CA       -26.0270  -16.4460   21.5140 C.3   430  QLP430      0.1765
      5  CB       -26.7990  -15.1460   21.2450 C.3   430  QLP430      0.0386
      6  CG       -27.1110  -14.8850   19.7570 C.3   430  QLP430      0.0905
      7  CD       -27.1440  -13.3820   19.4880 C.2   430  QLP430      0.2608
      8  NE2      -27.3930  -12.6360   20.5740 N.am  430  QLP430     -0.0878
      9  OE1      -26.9630  -12.8910   18.3500 O.2   430  QLP430     -0.2717
     10  N        -24.5790  -16.2210   21.3200 N.3   430  QLP430     -0.2034
     11  C4A      -23.7920  -15.2330   22.0790 C.3   430  QLP430      0.1186
     12  C4       -22.3200  -15.2860   21.6760 C.ar  430  QLP430      0.0353
     13  C5       -21.5500  -14.1250   21.5010 C.ar  430  QLP430      0.0275
     14  C5A      -22.1400  -12.7230   21.7010 C.3   430  QLP430      0.1816
     15  O4P      -22.0240  -12.3150   23.0580 O.3   430  QLP430     -0.2653
     16  P        -22.6190  -10.9270   23.6230 P.3   430  QLP430      0.5329
     17  O3P      -22.3330   -9.9400   22.5190 O.2   430  QLP430     -0.2224
     18  O2P      -21.7840  -10.8320   24.8440 O.3   430  QLP430     -0.1145
     19  O1P      -24.0800  -11.2060   23.9230 O.3   430  QLP430     -0.1145
     20  C6       -20.2350  -14.2380   21.0890 C.ar  430  QLP430      0.0965
     21  N1       -19.6720  -15.4510   20.8590 N.ar  430  QLP430     -0.2452
     22  C2       -20.3940  -16.5970   21.0410 C.ar  430  QLP430      0.0978
     23  C2A      -19.7160  -17.9260   20.7700 C.3   430  QLP430      0.0555
     24  C3       -21.7380  -16.5280   21.4300 C.ar  430  QLP430      0.2062
     25  O3       -22.4390  -17.5980   21.6010 O.3   430  QLP430     -0.2856
@<TRIPOS>BOND
     1     9     7    2
     2     7     6    1
     3     7     8   am
     4     6     5    1
     5     1     2   ar
     6     2     3   ar
     7     2     4    1
     8    23    22    1
     9    21    22   ar
    10    21    20   ar
    11    22    24   ar
    12    20    13   ar
    13     5     4    1
    14    10     4    1
    15    10    11    1
    16    24    25    1
    17    24    12   ar
    18    13    12   ar
    19    13    14    1
    20    12    11    1
    21    14    15    1
    22    17    16    2
    23    15    16    1
    24    16    19    1
    25    16    18    1
