@<TRIPOS>MOLECULE
2r5l_HEM_A_1.pdb
 43 50 0 0 0
SMALL
GASTEIGER

@<TRIPOS>ATOM
      1  CHA        8.6110   -0.0550   28.7320 C.2   618  HEM618      0.0000
      2  CHB        8.9430    4.7790   28.6340 C.2   618  HEM618      0.0000
      3  CHC       10.9800    4.4140   24.2230 C.2   618  HEM618      0.0000
      4  CHD       10.7210   -0.3480   24.3390 C.2   618  HEM618      0.0000
      5  C1A        8.5490    1.2660   29.1110 C.2   618  HEM618      0.0000
      6  C2A        8.0270    1.7390   30.3770 C.2   618  HEM618      0.0000
      7  C3A        8.0900    3.0790   30.3780 C.2   618  HEM618      0.0000
      8  C4A        8.6680    3.4960   29.0920 C.2   618  HEM618      0.0000
      9  CMA        7.6750    3.9480   31.5940 C.3   618  HEM618      0.0000
     10  CAA        7.5170    0.8330   31.5370 C.3   618  HEM618      0.0000
     11  CBA        8.6870    0.3710   32.3960 C.3   618  HEM618      0.0000
     12  CGA        8.2790   -0.6220   33.4590 C.2   618  HEM618      0.0000
     13  O1A        7.4030   -0.2790   34.3100 O.co2 618  HEM618      0.0000
     14  O2A        8.8230   -1.7770   33.4830 O.co2 618  HEM618      0.0000
     15  C1B        9.4890    5.0980   27.4090 C.ar  618  HEM618      0.0000
     16  C2B        9.6610    6.4350   26.8610 C.ar  618  HEM618      0.0000
     17  C3B       10.2120    6.3270   25.6430 C.ar  618  HEM618      0.0000
     18  C4B       10.4410    4.9110   25.3840 C.ar  618  HEM618      0.0000
     19  CMB        9.2050    7.7420   27.5520 C.3   618  HEM618      0.0000
     20  CAB       10.5690    7.4520   24.6430 C.2   618  HEM618      0.0000
     21  CBB       10.9280    8.6890   25.0520 C.2   618  HEM618      0.0000
     22  C1C       11.0860    3.1080   23.8520 C.2   618  HEM618      0.0000
     23  C2C       11.7640    2.5960   22.6700 C.2   618  HEM618      0.0000
     24  C3C       11.5970    1.2700   22.6670 C.2   618  HEM618      0.0000
     25  C4C       10.9680    0.9150   23.9060 C.2   618  HEM618      0.0000
     26  CMC       12.2830    3.4840   21.5140 C.3   618  HEM618      0.0000
     27  CAC       12.0610    0.2010   21.6390 C.2   618  HEM618      0.0000
     28  CBC       12.8990    0.4500   20.6420 C.2   618  HEM618      0.0000
     29  C1D       10.0590   -0.6820   25.5090 C.ar  618  HEM618      0.0000
     30  C2D        9.5900   -2.0110   25.7830 C.ar  618  HEM618      0.0000
     31  C3D        8.8950   -1.9480   27.1220 C.ar  618  HEM618      0.0000
     32  C4D        9.0550   -0.5590   27.5340 C.ar  618  HEM618      0.0000
     33  CMD        9.7460   -3.2260   24.8550 C.3   618  HEM618      0.0000
     34  CAD        8.2160   -3.1260   27.8790 C.3   618  HEM618      0.0000
     35  CBD        6.7100   -3.0920   27.6320 C.3   618  HEM618      0.0000
     36  CGD        6.0110   -4.3220   28.1840 C.2   618  HEM618      0.0000
     37  O1D        6.1970   -5.4500   27.6340 O.co2 618  HEM618      0.0000
     38  O2D        5.2580   -4.1920   29.1910 O.co2 618  HEM618      0.0000
     39  NA         8.9290    2.3510   28.3460 N.2   618  HEM618      0.0000
     40  NB         9.9900    4.1860   26.4910 N.ar  618  HEM618      0.0000
     41  NC        10.6520    2.0380   24.6100 N.2   618  HEM618      0.0000
     42  ND         9.7550    0.1480   26.5630 N.ar  618  HEM618      0.0000
     43 FE         10.0090    2.1910   26.6150 Fe    618  HEM618      0.0000
@<TRIPOS>BOND
     1    28    27    2
     2    26    23    1
     3    27    24    1
     4    24    23    2
     5    24    25    1
     6    23    22    1
     7    22     3    2
     8    22    41    1
     9    25     4    1
    10    25    41    2
    11     3    18    1
    12     4    29    2
    13    41    43    1
    14    20    21    2
    15    20    17    1
    16    33    30    1
    17    18    17   ar
    18    18    40   ar
    19    29    30   ar
    20    29    42   ar
    21    17    16   ar
    22    30    31   ar
    23    40    43    1
    24    40    15   ar
    25    42    43    1
    26    42    32   ar
    27    43    39    1
    28    16    15   ar
    29    16    19    1
    30    31    32   ar
    31    31    34    1
    32    15     2    1
    33    32     1    2
    34    35    34    1
    35    35    36    1
    36    37    36   ar
    37    36    38   ar
    38    39     8    1
    39    39     5    2
    40     2     8    2
    41     1     5    1
    42     8     7    1
    43     5     6    1
    44     6     7    2
    45     6    10    1
    46     7     9    1
    47    10    11    1
    48    11    12    1
    49    12    14   ar
    50    12    13   ar
