@<TRIPOS>MOLECULE
2r5m_III_L_1.pdb
 28 26 0 0 0
SMALL
GASTEIGER

@<TRIPOS>ATOM
      1  N        -29.1960  -23.0650  -18.9070 N.3   386  ARG386     -0.1231
      2  CA       -27.9280  -23.7850  -18.5520 C.3   386  ARG386      0.1694
      3  C        -26.7680  -22.8500  -18.1420 C.2   386  ARG386      0.2592
      4  O        -25.5850  -23.1890  -18.2780 O.2   386  ARG386     -0.2718
      5  CB       -27.5310  -24.7770  -19.6730 C.3   386  ARG386      0.0321
      6  CG       -28.3380  -26.0930  -19.6480 C.3   386  ARG386      0.0489
      7  CD       -27.8590  -27.0300  -18.5140 C.3   386  ARG386      0.2205
      8  NE       -28.9400  -27.8350  -17.9080 N.pl3 386  ARG386     -0.0865
      9  CZ       -28.9320  -28.3310  -16.6590 C.cat 386  ARG386      0.5346
     10  NH1      -27.9090  -28.0950  -15.8360 N.pl3 386  ARG386      0.1354
     11  NH2      -29.9720  -29.0410  -16.2090 N.pl3 386  ARG386      0.1354
     12  N        -27.1280  -21.6760  -17.6270 N.am  387  LYS387     -0.1966
     13  CA       -26.1510  -20.7840  -17.0190 C.3   387  LYS387      0.1727
     14  CB       -25.8840  -19.4860  -17.7740 C.3   387  LYS387      0.0311
     15  CG       -24.3850  -19.3930  -18.0290 C.3   387  LYS387      0.0038
     16  CD       -23.9780  -18.0500  -18.6010 C.3   387  LYS387      0.0189
     17  CE       -23.6000  -18.1820  -20.0610 C.3   387  LYS387      0.0888
     18  NZ       -22.8110  -17.0760  -20.5460 N.3   387  LYS387     -0.2165
     19  CM       -22.7840  -16.8090  -21.9700 C.3   387  LYS387      0.1075
     20  C        -26.3830  -20.5160  -15.5590 C.2   387  LYS387      0.2613
     21  O        -27.4860  -20.1870  -15.1030 O.2   387  LYS387     -0.2715
     22  N        -25.2840  -20.7290  -14.8350 N.am  388  SER388     -0.2012
     23  CA       -25.1450  -20.4300  -13.4260 C.3   388  SER388      0.1506
     24  C        -23.8680  -19.6470  -13.1710 C.3   388  SER388      0.2208
     25  O        -23.6430  -18.5920  -13.7680 O.3   388  SER388     -0.1862
     26  CB       -25.1910  -21.6990  -12.5910 C.3   388  SER388      0.2054
     27  OG       -24.5400  -22.7670  -13.2550 O.3   388  SER388     -0.2184
     28  OXT      -22.9520  -18.7180  -13.1380 O.3   388  SER388     -0.0346
@<TRIPOS>BOND
     1    19    18    1
     2    18    17    1
     3    17    16    1
     4     5     6    1
     5     5     2    1
     6     6     7    1
     7     1     2    1
     8    16    15    1
     9     2     3    1
    10     7     8    1
    11     4     3    2
    12     3    12   am
    13    15    14    1
    14     8     9    2
    15    14    13    1
    16    12    13    1
    17    13    20    1
    18     9    11    1
    19     9    10    1
    20    20    21    2
    21    20    22   am
    22    22    23    1
    23    25    24    1
    24    25    28    1
    25    23    26    1
    26    27    26    1
