@<TRIPOS>MOLECULE
2r5n_R5P_A_1.pdb
 14 13 0 0 0
SMALL
GASTEIGER

@<TRIPOS>ATOM
      1  C1        10.5510   66.2270   55.0180 C.3   670  R5P670      0.2175
      2  O1        11.6750   65.7060   54.2770 O.3   670  R5P670     -0.2175
      3  C2        10.3890   67.7070   54.6830 C.3   670  R5P670      0.2175
      4  O2        10.4770   68.5230   55.8490 O.3   670  R5P670     -0.2175
      5  C3         9.1040   67.9500   53.8780 C.3   670  R5P670      0.2174
      6  O3         9.5910   68.0870   52.5630 O.3   670  R5P670     -0.2175
      7  C4         8.3090   69.2350   54.2250 C.3   670  R5P670      0.2147
      8  O4         7.9760   69.3110   55.6220 O.3   670  R5P670     -0.2176
      9  C5         7.0310   69.3760   53.3790 C.3   670  R5P670      0.1892
     10  O5         5.9940   68.4870   53.8120 O.3   670  R5P670     -0.2674
     11  P          4.7130   68.1450   52.8740 P.3   670  R5P670      0.5327
     12  O1P        5.1010   67.2240   51.7730 O.2   670  R5P670     -0.2224
     13  O2P        3.5730   67.5760   53.8630 O.3   670  R5P670     -0.1145
     14  O3P        4.1620   69.5360   52.2620 O.3   670  R5P670     -0.1145
@<TRIPOS>BOND
     1    12    11    2
     2    14    11    1
     3     6     5    1
     4    11    10    1
     5    11    13    1
     6     9    10    1
     7     9     7    1
     8     5     7    1
     9     5     3    1
    10     7     8    1
    11     2     1    1
    12     3     1    1
    13     3     4    1
