@<TRIPOS>MOLECULE
2r5n_RP5_B_1.pdb
 14 14 0 0 0
SMALL
GASTEIGER

@<TRIPOS>ATOM
      1  C1'        8.6680   69.3410   56.1390 C.3   671  RP5671      0.3023
      2  O1'        7.6340   69.6250   55.2500 O.3   671  RP5671     -0.3237
      3  C2'        9.3370   68.0740   55.5950 C.3   671  RP5671      0.2433
      4  O2'       10.7370   68.3280   55.6360 O.3   671  RP5671     -0.2148
      5  C3'        8.8370   67.9820   54.1440 C.3   671  RP5671      0.2168
      6  O3'        9.9250   67.8170   53.2170 O.3   671  RP5671     -0.2175
      7  C4'        8.1880   69.3560   53.9660 C.3   671  RP5671      0.1809
      8  C5'        6.9660   69.3140   53.0920 C.3   671  RP5671      0.1859
      9  O5'        5.9700   68.5150   53.7080 O.3   671  RP5671     -0.2675
     10  P'         4.6430   68.1530   52.9110 P.3   671  RP5671      0.5327
     11  O1X        5.1240   67.1620   51.7270 O.2   671  RP5671     -0.2224
     12  O2X        3.5970   67.5970   53.8110 O.3   671  RP5671     -0.1145
     13  O3X        4.1530   69.5170   52.1810 O.3   671  RP5671     -0.1145
     14  O1         8.0910   69.2220   57.4500 O.3   671  RP5671     -0.1869
@<TRIPOS>BOND
     1    11    10    2
     2    13    10    1
     3    10     9    1
     4    10    12    1
     5     8     9    1
     6     8     7    1
     7     6     5    1
     8     7     5    1
     9     7     2    1
    10     5     3    1
    11     2     1    1
    12     3     4    1
    13     3     1    1
    14     1    14    1
