@<TRIPOS>MOLECULE
2r5n_TPP_A_1.pdb
 26 27 0 0 0
SMALL
GASTEIGER

@<TRIPOS>ATOM
      1  N1'       23.8140   41.4070   61.3270 N.2   672  TPP672     -0.1861
      2  C2'       22.5590   41.3200   61.8130 C.1   672  TPP672      0.0663
      3  CM2       21.5810   42.5000   61.7080 C.3   672  TPP672      0.1291
      4  N3'       22.1470   40.1910   62.4020 N.2   672  TPP672     -0.3368
      5  C4'       22.9830   39.1240   62.5020 C.2   672  TPP672      0.2292
      6  N4'       22.5260   38.0140   63.0830 N.pl3 672  TPP672     -0.0925
      7  C5'       24.3020   39.1840   62.0040 C.2   672  TPP672      0.0654
      8  C6'       24.6880   40.3920   61.3970 C.2   672  TPP672      0.1115
      9  C7'       25.3400   38.0100   62.1180 C.3   672  TPP672      0.1237
     10  N3        25.7860   37.9490   63.5530 N.pl3 672  TPP672     -0.2970
     11  C2        25.2080   37.1400   64.4860 C.3   672  TPP672      0.1543
     12  S1        25.9440   37.3820   66.0550 S.3   672  TPP672     -0.0951
     13  C5        27.0380   38.5750   65.4170 C.2   672  TPP672      0.0164
     14  C4        26.7660   38.7340   64.0540 C.2   672  TPP672      0.0279
     15  CM4       27.5730   39.7290   63.2060 C.3   672  TPP672      0.0473
     16  C6        28.1070   39.3440   66.1990 C.3   672  TPP672      0.0661
     17  C7        28.3560   38.8620   67.6120 C.3   672  TPP672      0.1544
     18  O7        27.4330   39.5410   68.4070 O.3   672  TPP672     -0.3134
     19  PA        27.3120   39.1830   69.9240 P.3   672  TPP672      0.2230
     20  O1A       28.4380   40.0170   70.7280 O.3   672  TPP672     -0.4370
     21  O2A       25.9180   39.4660   70.4030 O.2   672  TPP672     -0.5169
     22  O3A       27.6240   37.5930   69.9580 O.3   672  TPP672     -0.2261
     23  PB        27.9630   36.6910   71.2620 P.3   672  TPP672      0.5373
     24  O1B       28.9270   37.3360   72.1900 O.3   672  TPP672     -0.1143
     25  O2B       26.5620   36.2820   71.9110 O.3   672  TPP672     -0.1143
     26  O3B       28.4900   35.3160   70.6590 O.2   672  TPP672     -0.2221
@<TRIPOS>BOND
     1     1     8    1
     2     1     2    2
     3     8     7    2
     4     3     2    1
     5     2     4    2
     6     7     9    1
     7     7     5    1
     8     9    10    1
     9     4     5    2
    10     5     6    1
    11    15    14    1
    12    10    14    1
    13    10    11    1
    14    14    13    2
    15    11    12    1
    16    13    12    1
    17    13    16    1
    18    16    17    1
    19    17    18    1
    20    18    19    1
    21    19    22    1
    22    19    21    2
    23    19    20    1
    24    22    23    1
    25    26    23    2
    26    23    25    1
    27    23    24    1
