@<TRIPOS>MOLECULE
2r5p_MK1_B_1.pdb
 45 49 0 0 0
SMALL
GASTEIGER

@<TRIPOS>ATOM
      1  N1        26.4360   -8.3120   -1.5830 N.3   902  MK1902     -0.2661
      2  C1        27.9290   -8.3930   -1.5440 C.3   902  MK1902      0.0980
      3  C2        28.4980   -9.5290   -2.4010 C.3   902  MK1902      0.1527
      4  C3        30.0200   -9.5050   -2.2950 C.2   902  MK1902      0.2572
      5  O1        30.5500   -9.8940   -1.2470 O.2   902  MK1902     -0.2718
      6  N2        30.6940   -9.0480   -3.3730 N.am  902  MK1902     -0.2077
      7  C4        32.1510   -8.9380   -3.5100 C.3   902  MK1902      0.0788
      8  C5        32.3650   -8.3490   -4.9030 C.3   902  MK1902      0.0217
      9  C6        32.7860  -10.3210   -3.4480 C.3   902  MK1902      0.0217
     10  C7        32.7520   -7.9740   -2.4800 C.3   902  MK1902      0.0217
     11  N3        27.8750  -10.8290   -1.8520 N.3   902  MK1902     -0.2619
     12  C8        26.3900  -10.8170   -1.9150 C.3   902  MK1902      0.0901
     13  C9        25.8920   -9.6050   -1.1300 C.3   902  MK1902      0.0899
     14  C10       28.3230  -12.0320   -2.6040 C.3   902  MK1902      0.1057
     15  C11       28.6030  -13.2040   -1.6400 C.3   902  MK1902      0.1684
     16  O2        28.2070  -14.3830   -2.3530 O.3   902  MK1902     -0.2216
     17  C12       30.0940  -13.3640   -1.2560 C.3   902  MK1902      0.0438
     18  C13       30.3800  -14.5220   -0.2780 C.3   902  MK1902      0.0851
     19  C14       31.9030  -14.6030    0.0040 C.3   902  MK1902      0.0356
     20  C15       32.2710  -15.7110    0.9750 C.ar  902  MK1902     -0.0217
     21  C16       31.9590  -17.0730    0.7120 C.ar  902  MK1902     -0.0043
     22  C17       32.2940  -18.0880    1.6280 C.ar  902  MK1902     -0.0003
     23  C18       32.9530  -17.7250    2.8300 C.ar  902  MK1902     -0.0000
     24  C19       33.2690  -16.3760    3.1010 C.ar  902  MK1902     -0.0003
     25  C20       32.9290  -15.3610    2.1760 C.ar  902  MK1902     -0.0043
     26  C21       29.6300  -14.3110    1.0470 C.2   902  MK1902      0.2416
     27  O3        29.5680  -13.2300    1.6440 O.2   902  MK1902     -0.2733
     28  N4        29.0600  -15.4200    1.5200 N.am  902  MK1902     -0.2001
     29  C22       28.6760  -15.6000    2.8800 C.3   902  MK1902      0.1477
     30  C23       28.9850  -16.9600    3.4790 C.3   902  MK1902      0.1802
     31  O4        28.8000  -18.0050    2.5130 O.3   902  MK1902     -0.2206
     32  C24       28.0110  -17.1060    4.6180 C.3   902  MK1902      0.0611
     33  C25       26.7800  -16.3380    4.1890 C.ar  902  MK1902     -0.0218
     34  C26       25.4220  -16.3750    4.6140 C.ar  902  MK1902     -0.0044
     35  C27       24.4970  -15.5160    4.0040 C.ar  902  MK1902     -0.0003
     36  C28       24.8650  -14.6250    2.9830 C.ar  902  MK1902     -0.0003
     37  C29       26.2050  -14.5930    2.5660 C.ar  902  MK1902     -0.0029
     38  C30       27.1900  -15.4310    3.1370 C.ar  902  MK1902     -0.0040
     39  C31       25.9490   -7.1870   -0.7530 C.3   902  MK1902      0.1008
     40  C32       26.3920   -5.7760   -1.0760 C.ar  902  MK1902      0.0130
     41  C33       25.9800   -5.1460   -2.2680 C.ar  902  MK1902      0.0959
     42  N5        26.3330   -3.8390   -2.6700 N.ar  902  MK1902     -0.2426
     43  C34       27.1670   -3.2090   -1.7210 C.ar  902  MK1902      0.0989
     44  C35       27.6260   -3.7530   -0.5110 C.ar  902  MK1902      0.0204
     45  C36       27.2300   -5.0630   -0.1810 C.ar  902  MK1902      0.0002
@<TRIPOS>BOND
     1     8     7    1
     2     7     9    1
     3     7     6    1
     4     7    10    1
     5     6     4   am
     6    42    41   ar
     7    42    43   ar
     8    14    11    1
     9    14    15    1
    10     3     4    1
    11     3    11    1
    12     3     2    1
    13    16    15    1
    14     4     5    2
    15    41    40   ar
    16    12    11    1
    17    12    13    1
    18    43    44   ar
    19    15    17    1
    20     1     2    1
    21     1    13    1
    22     1    39    1
    23    17    18    1
    24    40    39    1
    25    40    45   ar
    26    44    45   ar
    27    18    19    1
    28    18    26    1
    29    19    20    1
    30    21    20   ar
    31    21    22   ar
    32    20    25   ar
    33    26    28   am
    34    26    27    2
    35    28    29    1
    36    22    23   ar
    37    25    24   ar
    38    31    30    1
    39    37    36   ar
    40    37    38   ar
    41    23    24   ar
    42    29    38    1
    43    29    30    1
    44    36    35   ar
    45    38    33   ar
    46    30    32    1
    47    35    34   ar
    48    33    34   ar
    49    33    32    1
