@<TRIPOS>MOLECULE
2r5q_1UN_B_1.pdb
 40 43 0 0 0
SMALL
GASTEIGER

@<TRIPOS>ATOM
      1  C1        25.3670   -9.4850   -1.7570 C.3   900  1UN900      0.0161
      2  C2        26.0470   -8.1590   -2.3020 C.3   900  1UN900      0.0032
      3  C3        25.4380   -6.9210   -1.6360 C.3   900  1UN900      0.0001
      4  C4        25.5090   -7.0440   -0.1030 C.3   900  1UN900      0.0000
      5  C5        24.7820   -8.3180    0.3890 C.3   900  1UN900      0.0000
      6  C6        25.4630   -9.6100   -0.2020 C.3   900  1UN900      0.0014
      7  N7        27.5140  -10.7540   -2.2070 N.3   900  1UN900     -0.2643
      8  C8        28.1670   -9.5150   -2.7770 C.3   900  1UN900      0.1365
      9  C9        27.5930   -8.2540   -2.0820 C.3   900  1UN900      0.0254
     10  C10       26.0260  -10.7300   -2.4520 C.3   900  1UN900      0.0725
     11  C11       29.6410   -9.5200   -2.5070 C.2   900  1UN900      0.2558
     12  N12       30.3510   -9.0880   -3.5820 N.am  900  1UN900     -0.2077
     13  C13       31.8560   -8.9720   -3.6520 C.3   900  1UN900      0.0788
     14  C14       32.4080   -7.9710   -2.5870 C.3   900  1UN900      0.0217
     15  C15       32.4980  -10.3710   -3.3860 C.3   900  1UN900      0.0217
     16  C16       32.1850   -8.4300   -5.0720 C.3   900  1UN900      0.0217
     17  O17       30.0580   -9.8910   -1.3970 O.2   900  1UN900     -0.2719
     18  C18       27.9940  -12.0010   -2.8510 C.3   900  1UN900      0.1075
     19  C19       27.9040  -13.1280   -1.8020 C.3   900  1UN900      0.1885
     20  C20       29.0600  -13.2110   -0.7860 C.3   900  1UN900      0.1383
     21  O21       27.8300  -14.3240   -2.5950 O.3   900  1UN900     -0.2198
     22  N22       28.6740  -14.3140    0.1150 N.am  900  1UN900     -0.1999
     23  C23       30.4050  -13.6150   -1.3630 C.3   900  1UN900      0.0864
     24  C24       28.3240  -14.0030    1.4170 C.2   900  1UN900      0.2646
     25  O25       28.3310  -12.8290    1.8460 O.2   900  1UN900     -0.2684
     26  C29       27.9320  -15.1160    2.2760 C.ar  900  1UN900      0.0542
     27  C30       28.8540  -16.1590    2.5100 C.ar  900  1UN900      0.0045
     28  C31       28.5430  -17.2690    3.3290 C.ar  900  1UN900      0.0034
     29  C32       27.2740  -17.3320    3.9240 C.ar  900  1UN900      0.0417
     30  C33       26.3320  -16.3010    3.7070 C.ar  900  1UN900      0.1919
     31  C34       26.6260  -15.1700    2.8830 C.ar  900  1UN900      0.0215
     32  O38       25.0790  -16.3880    4.3080 O.3   900  1UN900     -0.2869
     33  C39       25.5570  -14.1080    2.7040 C.3   900  1UN900      0.0345
     34  S74       31.7250  -13.2730   -0.1890 S.3   900  1UN900     -0.1118
     35  C77       32.0040  -14.7430    0.6910 C.ar  900  1UN900      0.0253
     36  C78       32.3970  -14.6050    2.0460 C.ar  900  1UN900      0.0061
     37  C79       32.6390  -15.7870    2.7910 C.ar  900  1UN900      0.0005
     38  C80       32.4890  -17.0570    2.1800 C.ar  900  1UN900      0.0000
     39  C81       32.0950  -17.1820    0.8210 C.ar  900  1UN900      0.0005
     40  C82       31.8510  -16.0040    0.0720 C.ar  900  1UN900      0.0061
@<TRIPOS>BOND
     1    16    13    1
     2    13    12    1
     3    13    15    1
     4    13    14    1
     5    12    11   am
     6    18     7    1
     7    18    19    1
     8     8    11    1
     9     8     7    1
    10     8     9    1
    11    21    19    1
    12    11    17    2
    13    10     7    1
    14    10     1    1
    15     2     9    1
    16     2     1    1
    17     2     3    1
    18    19    20    1
    19     1     6    1
    20     3     4    1
    21    23    20    1
    22    23    34    1
    23    20    22    1
    24     6     5    1
    25    34    35    1
    26     4     5    1
    27    40    35   ar
    28    40    39   ar
    29    22    24   am
    30    35    36   ar
    31    39    38   ar
    32    24    25    2
    33    24    26    1
    34    36    37   ar
    35    38    37   ar
    36    26    27   ar
    37    26    31   ar
    38    27    28   ar
    39    33    31    1
    40    31    30   ar
    41    28    29   ar
    42    30    29   ar
    43    30    32    1
