@<TRIPOS>MOLECULE
2r5t_ANP_A_1.pdb
 31 33 0 0 0
SMALL
GASTEIGER

@<TRIPOS>ATOM
      1  PG        26.8660   35.1680   66.9800 P.3   500  ANP500      0.4884
      2  O1G       25.6890   35.9420   66.4390 O.3   500  ANP500     -0.1240
      3  O2G       27.2430   33.9430   66.1820 O.2   500  ANP500     -0.2331
      4  O3G       26.8210   34.9640   68.4770 O.3   500  ANP500     -0.1240
      5  PB        28.9730   36.4000   65.2050 P.3   500  ANP500      0.4669
      6  O1B       28.1130   35.6810   64.1950 O.2   500  ANP500     -0.2351
      7  O2B       29.2710   37.8630   64.9560 O.3   500  ANP500     -0.1253
      8  N3B       28.2430   36.2540   66.8010 N.3   500  ANP500     -0.0163
      9  PA        30.8110   34.1700   66.0560 P.3   500  ANP500      0.2220
     10  O1A       30.8980   34.2940   67.5620 O.3   500  ANP500     -0.4370
     11  O2A       29.9950   33.0730   65.4260 O.2   500  ANP500     -0.5170
     12  O3A       30.3970   35.6140   65.4030 O.3   500  ANP500     -0.2360
     13  O5'       32.3470   34.0970   65.5000 O.3   500  ANP500     -0.3111
     14  C5'       32.5500   33.7970   64.1210 C.3   500  ANP500      0.1813
     15  C4'       33.4460   32.5790   63.9560 C.3   500  ANP500      0.1821
     16  O4'       34.7270   32.8110   64.5470 O.3   500  ANP500     -0.3135
     17  C3'       32.8660   31.3600   64.6120 C.3   500  ANP500      0.2184
     18  O3'       33.1060   30.2800   63.7260 O.3   500  ANP500     -0.2174
     19  C2'       33.6920   31.1750   65.8480 C.3   500  ANP500      0.2570
     20  O2'       33.9280   29.8120   66.1090 O.3   500  ANP500     -0.2130
     21  C1'       35.0180   31.8050   65.5120 C.3   500  ANP500      0.3186
     22  N9        35.5620   32.4730   66.6750 N.pl3 500  ANP500     -0.1439
     23  C8        34.9310   33.4660   67.3630 C.3   500  ANP500      0.3377
     24  N7        35.6620   33.8870   68.3720 N.2   500  ANP500     -0.2095
     25  C5        36.8080   33.1370   68.3270 C.2   500  ANP500      0.2526
     26  C6        37.9330   33.1590   69.1380 C.2   500  ANP500      0.4393
     27  N6        38.0260   34.0430   70.2100 N.pl3 500  ANP500      0.2180
     28  N1        38.9240   32.3050   68.8500 N.2   500  ANP500      0.0021
     29  C2        38.7490   31.4900   67.7990 C.3   500  ANP500      0.5254
     30  N3        37.7200   31.3850   66.9540 N.2   500  ANP500     -0.0055
     31  C4        36.7680   32.2550   67.2760 C.2   500  ANP500      0.3518
@<TRIPOS>BOND
     1    18    17    1
     2    15    14    1
     3    15    16    1
     4    15    17    1
     5    14    13    1
     6     6     5    2
     7    16    21    1
     8    17    19    1
     9     7     5    1
    10     5    12    1
    11     5     8    1
    12    12     9    1
    13    11     9    2
    14    13     9    1
    15    21    19    1
    16    21    22    1
    17    19    20    1
    18     9    10    1
    19     3     1    2
    20     2     1    1
    21    22    31    1
    22    22    23    1
    23     8     1    1
    24    30    31    2
    25    30    29    1
    26     1     4    1
    27    31    25    1
    28    23    24    1
    29    29    28    1
    30    25    24    2
    31    25    26    1
    32    28    26    2
    33    26    27    1
