@<TRIPOS>MOLECULE
2r5v_HHH_A_1.pdb
 12 12 0 0 0
SMALL
GASTEIGER

@<TRIPOS>ATOM
      1  O12      -20.6880   35.5970   38.9220 O.co2 4114  HHH4114    -0.2424
      2  C10      -19.8340   36.4750   38.6360 C.2   4114  HHH4114     0.3989
      3  O11      -20.2030   37.5610   38.1480 O.co2 4114  HHH4114    -0.2424
      4  C7       -18.3460   36.2930   38.8350 C.3   4114  HHH4114     0.2763
      5  O8       -17.8530   37.6360   38.9900 O.3   4114  HHH4114    -0.2060
      6  C1       -17.9480   35.4260   39.9920 C.ar  4114  HHH4114     0.0190
      7  C2       -18.7100   35.4290   41.1800 C.ar  4114  HHH4114     0.0020
      8  C3       -18.3340   34.6310   42.2580 C.ar  4114  HHH4114     0.0418
      9  C6       -16.7910   34.6590   39.8950 C.ar  4114  HHH4114     0.0020
     10  C5       -16.4060   33.8490   40.9500 C.ar  4114  HHH4114     0.0418
     11  C4       -17.1990   33.8450   42.1530 C.ar  4114  HHH4114     0.1957
     12  O1       -16.8800   33.0800   43.2440 O.3   4114  HHH4114    -0.2866
@<TRIPOS>BOND
     1     3     2   ar
     2     2     4    1
     3     2     1   ar
     4     4     5    1
     5     4     6    1
     6     9     6   ar
     7     9    10   ar
     8     6     7   ar
     9    10    11   ar
    10     7     8   ar
    11    11     8   ar
    12    11    12    1
