@<TRIPOS>MOLECULE
2r61_FUC_A_1.pdb
 10 10 0 0 0
SMALL
GASTEIGER

@<TRIPOS>ATOM
      1  C1        24.8480    0.3320   37.8180 C.3   604  FUC604      0.1776
      2  C2        24.1800    1.2910   38.7750 C.3   604  FUC604      0.2141
      3  C3        23.3150    0.5150   39.7680 C.3   604  FUC604      0.2172
      4  C4        24.1520   -0.4950   40.5110 C.3   604  FUC604      0.2116
      5  C5        24.8170   -1.3950   39.4970 C.3   604  FUC604      0.1483
      6  C6        25.7010   -2.4140   40.2190 C.3   604  FUC604      0.0349
      7  O2        23.3250    2.1320   38.0550 O.3   604  FUC604     -0.2176
      8  O3        22.7980    1.4220   40.7120 O.3   604  FUC604     -0.2175
      9  O4        25.1630    0.2070   41.1690 O.3   604  FUC604     -0.2177
     10  O5        25.5730   -0.6210   38.5490 O.3   604  FUC604     -0.3508
@<TRIPOS>BOND
     1     1    10    1
     2     1     2    1
     3     7     2    1
     4    10     5    1
     5     2     3    1
     6     5     6    1
     7     5     4    1
     8     3     4    1
     9     3     8    1
    10     4     9    1
