@<TRIPOS>MOLECULE
2r61_SIA_A_1.pdb
 20 20 0 0 0
SMALL
GASTEIGER

@<TRIPOS>ATOM
      1  C1        21.1020   -7.7170   39.7440 C.2   601  SIA601      0.3914
      2  C2        22.4650   -7.9690   39.0750 C.3   601  SIA601      0.2203
      3  C3        23.3790   -8.9170   39.8550 C.3   601  SIA601      0.0760
      4  C4        22.9910  -10.3660   39.6410 C.3   601  SIA601      0.1773
      5  C5        22.8030  -10.7450   38.1670 C.3   601  SIA601      0.1552
      6  C6        21.8130   -9.7760   37.5480 C.3   601  SIA601      0.1710
      7  C7        21.5240  -10.0410   36.0680 C.3   601  SIA601      0.2134
      8  C8        20.6300   -8.9170   35.5710 C.3   601  SIA601      0.2173
      9  C9        20.0850   -9.1610   34.1570 C.3   601  SIA601      0.2175
     10  C10       22.5340  -13.2060   37.7210 C.2   601  SIA601      0.2420
     11  C11       23.7990  -13.1850   36.9530 C.3   601  SIA601      0.0964
     12  N5        22.1210  -12.0370   38.2440 N.am  601  SIA601     -0.2020
     13  O1A       20.0530   -7.6250   39.0500 O.co2 601  SIA601     -0.2430
     14  O1B       21.0500   -7.5340   40.9840 O.co2 601  SIA601     -0.2430
     15  O4        23.9960  -11.2420   40.1690 O.3   601  SIA601     -0.2211
     16  O6        22.3020   -8.4430   37.7150 O.3   601  SIA601     -0.3429
     17  O7        22.6900  -10.1740   35.2290 O.3   601  SIA601     -0.2176
     18  O8        19.5760   -8.7720   36.5410 O.3   601  SIA601     -0.2175
     19  O9        19.3470   -7.9840   33.7580 O.3   601  SIA601     -0.2175
     20  O10       21.8810  -14.2560   37.8520 O.2   601  SIA601     -0.2733
@<TRIPOS>BOND
     1    19     9    1
     2     9     8    1
     3    17     7    1
     4     8     7    1
     5     8    18    1
     6     7     6    1
     7    11    10    1
     8     6    16    1
     9     6     5    1
    10    16     2    1
    11    10    20    2
    12    10    12   am
    13     5    12    1
    14     5     4    1
    15    13     1   ar
    16     2     1    1
    17     2     3    1
    18     4     3    1
    19     4    15    1
    20     1    14   ar
