@<TRIPOS>MOLECULE
2r64_740_A_1.pdb
 32 36 0 0 0
SMALL
GASTEIGER

@<TRIPOS>ATOM
      1  C1        21.7670   24.6660   31.7320 C.ar  500  740500      0.0478
      2  C2        22.0340   24.4640   30.3280 C.ar  500  740500      0.0142
      3  C3        22.0410   25.6070   29.4420 C.ar  500  740500     -0.0024
      4  C4        21.7830   26.9100   29.9790 C.ar  500  740500     -0.0105
      5  C5        21.5270   27.0670   31.3500 C.ar  500  740500     -0.0024
      6  C6        21.5200   25.9660   32.2080 C.ar  500  740500      0.0142
      7  C7        21.7860   28.1370   29.1090 C.3   500  740500      0.1430
      8  C8        23.2150   28.5100   28.6300 C.2   500  740500      0.3565
      9  N9        23.5810   29.7760   29.0000 N.am  500  740500      0.0309
     10  C10       24.7840   30.6260   28.7700 C.2   500  740500      0.3809
     11  N11       24.9740   31.8610   29.2320 N.2   500  740500      0.0800
     12  N12       26.1680   32.3580   28.8290 N.2   500  740500     -0.0379
     13  C13       26.8640   31.4720   28.0570 C.2   500  740500      0.1210
     14  C14       28.1020   31.5090   27.4200 C.2   500  740500      0.0208
     15  C15       28.5290   30.3880   26.6720 C.2   500  740500      0.0172
     16  C16       27.6950   29.2180   26.5670 C.2   500  740500      0.0652
     17  C17       26.4310   29.1860   27.2270 C.2   500  740500      0.0081
     18  C18       25.9830   30.2860   27.9770 C.3   500  740500      0.1792
     19  N19       28.1370   28.1460   25.8210 N.pl3 500  740500     -0.1946
     20  C22       28.0940   26.7420   26.2350 C.3   500  740500      0.1173
     21  O24       23.8670   27.7140   27.9690 O.2   500  740500     -0.2425
     22  C9        28.7030   25.8780   25.0780 C.3   500  740500      0.0507
     23  S1        28.7820   28.3250   24.3640 S.O2  500  740500      0.0570
     24  C12       28.6480   26.6540   23.7610 C.3   500  740500      0.1745
     25  O2        27.9140   29.2550   23.5530 O.2   500  740500     -0.1543
     26  O3        30.1920   28.7150   24.6960 O.2   500  740500     -0.1543
     27  C11       22.6640   23.6190   33.8460 C.3   500  740500      0.0908
     28  N1        21.7360   23.5880   32.6520 N.pl3 500  740500     -0.3075
     29  C19       20.7450   22.4980   32.4320 C.3   500  740500      0.0908
     30  C20       20.9930   21.2160   33.2600 C.3   500  740500      0.0215
     31  C21       21.3620   21.5880   34.7040 C.3   500  740500      0.0035
     32  C23       22.7280   22.3020   34.6820 C.3   500  740500      0.0215
@<TRIPOS>BOND
     1    25    23    2
     2    24    23    1
     3    24    22    1
     4    23    26    2
     5    23    19    1
     6    22    20    1
     7    19    20    1
     8    19    16    1
     9    16    15    1
    10    16    17    2
    11    15    14    2
    12    17    18    1
    13    14    13    1
    14    21     8    2
    15    18    13    1
    16    18    10    1
    17    13    12    2
    18     8     9   am
    19     8     7    1
    20    10     9    1
    21    10    11    2
    22    12    11    1
    23     7     4    1
    24     3     4   ar
    25     3     2   ar
    26     4     5   ar
    27     2     1   ar
    28     5     6   ar
    29     1     6   ar
    30     1    28    1
    31    29    28    1
    32    29    30    1
    33    28    27    1
    34    30    31    1
    35    27    32    1
    36    32    31    1
