@<TRIPOS>MOLECULE
2r65_ADP_A_1.pdb
 27 29 0 0 0
SMALL
GASTEIGER

@<TRIPOS>ATOM
      1  PB        86.8460   45.7930   38.9310 P.3     1  ADP1        0.5373
      2  O1B       87.4570   44.5030   39.4360 O.3     1  ADP1       -0.1143
      3  O2B       85.4670   46.1530   39.4720 O.3     1  ADP1       -0.1143
      4  O3B       86.9680   45.9970   37.4410 O.2     1  ADP1       -0.2221
      5  PA        89.3710   46.9390   39.6880 P.3     1  ADP1        0.2231
      6  O1A       89.9600   47.8870   38.6650 O.2     1  ADP1       -0.5169
      7  O2A       89.8320   45.5160   39.8730 O.3     1  ADP1       -0.4370
      8  O3A       87.7580   46.9540   39.6050 O.3     1  ADP1       -0.2261
      9  O5'       89.6710   47.6280   41.0960 O.3     1  ADP1       -0.3111
     10  C5'       90.8620   48.4820   41.0940 C.3     1  ADP1        0.1813
     11  C4'       91.7500   48.3900   42.3640 C.3     1  ADP1        0.1821
     12  O4'       91.7220   47.1590   43.0970 O.3     1  ADP1       -0.3135
     13  C3'       93.1310   48.4870   41.7680 C.3     1  ADP1        0.2184
     14  O3'       93.6760   49.7670   42.0740 O.3     1  ADP1       -0.2174
     15  C2'       93.9160   47.3470   42.3610 C.3     1  ADP1        0.2570
     16  O2'       95.0970   47.7750   43.0220 O.3     1  ADP1       -0.2130
     17  C1'       93.0440   46.7310   43.4040 C.3     1  ADP1        0.3186
     18  N9        93.2200   45.2820   43.2100 N.pl3   1  ADP1       -0.1439
     19  C8        92.2340   44.4110   42.9270 C.3     1  ADP1        0.3377
     20  N7        92.6970   43.1330   42.8120 N.2     1  ADP1       -0.2095
     21  C5        94.0140   43.1880   43.0150 C.2     1  ADP1        0.2526
     22  C6        95.0900   42.1930   43.0230 C.2     1  ADP1        0.4393
     23  N6        94.8220   40.8910   42.7730 N.pl3   1  ADP1        0.2180
     24  N1        96.3330   42.6350   43.2920 N.2     1  ADP1        0.0021
     25  C2        96.5780   43.9380   43.5310 C.3     1  ADP1        0.5254
     26  N3        95.6340   44.8980   43.5310 N.2     1  ADP1       -0.0055
     27  C4        94.3530   44.5920   43.2810 C.2     1  ADP1        0.3518
@<TRIPOS>BOND
     1     4     1    2
     2     6     5    2
     3     1     2    1
     4     1     3    1
     5     1     8    1
     6     8     5    1
     7     5     7    1
     8     5     9    1
     9    10     9    1
    10    10    11    1
    11    13    14    1
    12    13    15    1
    13    13    11    1
    14    15    16    1
    15    15    17    1
    16    11    12    1
    17    23    22    1
    18    20    19    1
    19    20    21    2
    20    19    18    1
    21    21    22    1
    22    21    27    1
    23    22    24    2
    24    12    17    1
    25    18    27    1
    26    18    17    1
    27    27    26    2
    28    24    25    1
    29    25    26    1
