@<TRIPOS>MOLECULE
2r6f_ADP_A_1.pdb
 27 29 0 0 0
SMALL
GASTEIGER

@<TRIPOS>ATOM
      1  PB        54.0190   25.8980   18.7280 P.3   1000  ADP1000     0.5373
      2  O1B       54.4010   25.9550   17.2750 O.2   1000  ADP1000    -0.2221
      3  O2B       54.7880   24.8710   19.5160 O.3   1000  ADP1000    -0.1143
      4  O3B       52.5280   25.8310   18.9460 O.3   1000  ADP1000    -0.1143
      5  PA        54.0040   27.9220   20.6980 P.3   1000  ADP1000     0.2231
      6  O1A       54.5520   27.0240   21.7760 O.3   1000  ADP1000    -0.4370
      7  O2A       52.5190   28.1360   20.6120 O.2   1000  ADP1000    -0.5169
      8  O3A       54.5240   27.3310   19.2930 O.3   1000  ADP1000    -0.2261
      9  O5'       54.6120   29.4070   20.8520 O.3   1000  ADP1000    -0.3111
     10  C5'       55.9830   29.7100   20.6090 C.3   1000  ADP1000     0.1813
     11  C4'       56.6700   30.4510   21.7670 C.3   1000  ADP1000     0.1821
     12  O4'       55.7380   31.0470   22.6770 O.3   1000  ADP1000    -0.3135
     13  C3'       57.5190   29.5170   22.6160 C.3   1000  ADP1000     0.2184
     14  O3'       58.7210   30.1740   23.0160 O.3   1000  ADP1000    -0.2174
     15  C2'       56.6800   29.2380   23.8360 C.3   1000  ADP1000     0.2570
     16  O2'       57.4630   28.8990   24.9780 O.3   1000  ADP1000    -0.2130
     17  C1'       55.9810   30.5660   24.0100 C.3   1000  ADP1000     0.3186
     18  N9        54.7470   30.4150   24.8200 N.pl3 1000  ADP1000    -0.1439
     19  C8        53.6030   29.8100   24.4440 C.3   1000  ADP1000     0.3377
     20  N7        52.6830   29.8590   25.4420 N.2   1000  ADP1000    -0.2095
     21  C5        53.2450   30.5090   26.4740 C.2   1000  ADP1000     0.2526
     22  C6        52.8340   30.9110   27.8290 C.2   1000  ADP1000     0.4393
     23  N6        51.6010   30.6170   28.2880 N.pl3 1000  ADP1000     0.2180
     24  N1        53.7250   31.5720   28.5960 N.2   1000  ADP1000     0.0021
     25  C2        54.9600   31.8760   28.1580 C.3   1000  ADP1000     0.5254
     26  N3        55.3940   31.5410   26.9300 N.2   1000  ADP1000    -0.0055
     27  C4        54.6020   30.8700   26.0610 C.2   1000  ADP1000     0.3518
@<TRIPOS>BOND
     1     2     1    2
     2     1     4    1
     3     1     8    1
     4     1     3    1
     5     8     5    1
     6    10     9    1
     7    10    11    1
     8     7     5    2
     9     5     9    1
    10     5     6    1
    11    11    13    1
    12    11    12    1
    13    13    14    1
    14    13    15    1
    15    12    17    1
    16    15    17    1
    17    15    16    1
    18    17    18    1
    19    19    18    1
    20    19    20    1
    21    18    27    1
    22    20    21    2
    23    27    21    1
    24    27    26    2
    25    21    22    1
    26    26    25    1
    27    22    23    1
    28    22    24    2
    29    25    24    1
