@<TRIPOS>MOLECULE
2r6g_MAL_F_1.pdb
 23 24 0 0 0
SMALL
GASTEIGER

@<TRIPOS>ATOM
      1  C1       -31.9710   39.6850   33.9240 C.3   3001  MAL3001     0.2695
      2  C2       -31.7690   40.9060   34.8230 C.3   3001  MAL3001     0.2406
      3  C3       -33.0610   41.6870   35.0280 C.3   3001  MAL3001     0.2198
      4  C4       -33.7600   41.9790   33.7060 C.3   3001  MAL3001     0.2144
      5  C5       -33.9210   40.6970   32.8900 C.3   3001  MAL3001     0.1835
      6  C6       -34.5150   40.9790   31.5150 C.3   3001  MAL3001     0.2142
      7  O1       -32.6940   38.6620   34.6220 O.3   3001  MAL3001    -0.3257
      8  O2       -31.2850   40.4860   36.0990 O.3   3001  MAL3001    -0.2149
      9  O3       -32.7490   42.9160   35.6850 O.3   3001  MAL3001    -0.2174
     10  O4       -35.0370   42.5620   33.9830 O.3   3001  MAL3001    -0.2176
     11  O5       -32.6490   40.0610   32.7150 O.3   3001  MAL3001    -0.3256
     12  O6       -34.8420   39.7430   30.8740 O.3   3001  MAL3001    -0.2176
     13  C1'      -31.8070   34.6050   35.4990 C.3   3001  MAL3001     0.3023
     14  C2'      -30.9380   35.6980   36.1390 C.3   3001  MAL3001     0.2433
     15  C3'      -31.6180   37.0650   36.0780 C.3   3001  MAL3001     0.2168
     16  C4'      -32.0180   37.4030   34.6450 C.3   3001  MAL3001     0.1804
     17  C5'      -32.9160   36.2940   34.0880 C.3   3001  MAL3001     0.1804
     18  C6'      -33.2500   36.5360   32.6190 C.3   3001  MAL3001     0.2141
     19  O1'      -32.9050   34.2480   36.3490 O.3   3001  MAL3001    -0.1869
     20  O2'      -30.6200   35.3740   37.5000 O.3   3001  MAL3001    -0.2148
     21  O3'      -30.7300   38.0660   36.5860 O.3   3001  MAL3001    -0.2175
     22  O5'      -32.2890   35.0050   34.2020 O.3   3001  MAL3001    -0.3237
     23  O6'      -34.5580   36.0260   32.3410 O.3   3001  MAL3001    -0.2176
@<TRIPOS>BOND
     1    12     6    1
     2     6     5    1
     3    23    18    1
     4    18    17    1
     5    11     5    1
     6    11     1    1
     7     5     4    1
     8     4    10    1
     9     4     3    1
    10     1     7    1
    11     1     2    1
    12    17    22    1
    13    17    16    1
    14    22    13    1
    15     7    16    1
    16    16    15    1
    17     2     3    1
    18     2     8    1
    19     3     9    1
    20    13    14    1
    21    13    19    1
    22    15    14    1
    23    15    21    1
    24    14    20    1
