@<TRIPOS>MOLECULE
2r6g_ATP_A_1.pdb
 31 33 0 0 0
SMALL
GASTEIGER

@<TRIPOS>ATOM
      1  PG       -13.9490    2.2790    8.0850 P.3   1002  ATP1002     0.5373
      2  O1G      -15.0910    2.3040    7.1050 O.2   1002  ATP1002    -0.2221
      3  O2G      -12.7570    1.5020    7.5820 O.3   1002  ATP1002    -0.1143
      4  O3G      -13.6160    3.6290    8.6590 O.3   1002  ATP1002    -0.1143
      5  PB       -15.6820    0.4150    9.3440 P.3   1002  ATP1002     0.2277
      6  O1B      -16.8400    1.0680    8.6450 O.2   1002  ATP1002    -0.5168
      7  O2B      -15.1740   -0.8990    8.8150 O.3   1002  ATP1002    -0.4368
      8  O3B      -14.4590    1.4680    9.3940 O.3   1002  ATP1002    -0.2258
      9  PA       -17.4010    0.9350   11.5090 P.3   1002  ATP1002     0.2189
     10  O1A      -17.2630    2.4300   11.4220 O.2   1002  ATP1002    -0.5170
     11  O2A      -17.6280    0.3190   12.8650 O.3   1002  ATP1002    -0.4371
     12  O3A      -16.0860    0.2360   10.8850 O.3   1002  ATP1002    -0.2700
     13  O5'      -18.6250    0.4810   10.5650 O.3   1002  ATP1002    -0.3112
     14  C5'      -19.9530    0.7280   11.0150 C.3   1002  ATP1002     0.1813
     15  C4'      -20.9290    0.7940    9.8470 C.3   1002  ATP1002     0.1821
     16  O4'      -22.2640    0.8930   10.3520 O.3   1002  ATP1002    -0.3135
     17  C3'      -20.7030    1.9970    8.9510 C.3   1002  ATP1002     0.2184
     18  O3'      -20.7380    1.5610    7.5920 O.3   1002  ATP1002    -0.2174
     19  C2'      -21.8550    2.9460    9.2220 C.3   1002  ATP1002     0.2570
     20  O2'      -22.4760    3.3710    8.0080 O.3   1002  ATP1002    -0.2130
     21  C1'      -22.8420    2.1690   10.0750 C.3   1002  ATP1002     0.3186
     22  N9       -23.0540    2.9010   11.3440 N.pl3 1002  ATP1002    -0.1439
     23  C8       -22.0980    3.2730   12.2250 C.3   1002  ATP1002     0.3377
     24  N7       -22.6320    3.9350   13.2830 N.2   1002  ATP1002    -0.2095
     25  C5       -23.9620    3.9900   13.0820 C.2   1002  ATP1002     0.2526
     26  C6       -25.1280    4.5430   13.8090 C.2   1002  ATP1002     0.4393
     27  N6       -24.9640    5.1850   14.9920 N.pl3 1002  ATP1002     0.2180
     28  N1       -26.3540    4.3860   13.2500 N.2   1002  ATP1002     0.0021
     29  C2       -26.5320    3.7490   12.0720 C.3   1002  ATP1002     0.5254
     30  N3       -25.5180    3.2210   11.3580 N.2   1002  ATP1002    -0.0055
     31  C4       -24.2370    3.3070   11.8040 C.2   1002  ATP1002     0.3518
@<TRIPOS>BOND
     1     2     1    2
     2     3     1    1
     3    18    17    1
     4    20    19    1
     5     1     4    1
     6     1     8    1
     7     6     5    2
     8     7     5    1
     9    17    19    1
    10    17    15    1
    11    19    21    1
    12     5     8    1
    13     5    12    1
    14    15    16    1
    15    15    14    1
    16    21    16    1
    17    21    22    1
    18    13    14    1
    19    13     9    1
    20    12     9    1
    21    22    31    1
    22    22    23    1
    23    30    31    2
    24    30    29    1
    25    10     9    2
    26     9    11    1
    27    31    25    1
    28    29    28    1
    29    23    24    1
    30    25    24    2
    31    25    26    1
    32    28    26    2
    33    26    27    1
