@<TRIPOS>MOLECULE
2r6j_NDP_A_1.pdb
 48 52 0 0 0
SMALL
GASTEIGER

@<TRIPOS>ATOM
      1  PA         5.5370   -6.1560   22.2700 P.3   401  NDP401      0.2189
      2  O1A        5.9840   -7.0160   21.1500 O.2   401  NDP401     -0.5170
      3  O2A        5.3350   -6.7150   23.6220 O.3   401  NDP401     -0.4371
      4  O5B        4.2260   -5.4180   21.7150 O.3   401  NDP401     -0.3112
      5  C5B        3.5960   -4.3960   22.5150 C.3   401  NDP401      0.1813
      6  C4B        2.1270   -4.4320   22.1970 C.3   401  NDP401      0.1820
      7  O4B        1.6850   -4.0070   20.8020 O.3   401  NDP401     -0.3136
      8  C3B        1.4190   -5.7770   22.1800 C.3   401  NDP401      0.2157
      9  O3B        1.2870   -6.2570   23.5060 O.3   401  NDP401     -0.2175
     10  C2B        0.0720   -5.5320   21.5030 C.3   401  NDP401      0.2314
     11  O2B       -0.9200   -5.1490   22.4260 O.3   401  NDP401     -0.2630
     12  C1B        0.3640   -4.4250   20.5020 C.3   401  NDP401      0.3158
     13  N9A        0.3220   -4.8630   19.0990 N.pl3 401  NDP401     -0.1439
     14  C8A        0.9550   -5.9790   18.5530 C.3   401  NDP401      0.3377
     15  N7A        0.7320   -6.1240   17.2630 N.2   401  NDP401     -0.2095
     16  C5A       -0.0740   -5.0720   16.9530 C.2   401  NDP401      0.2526
     17  C6A       -0.6670   -4.6560   15.7280 C.2   401  NDP401      0.4393
     18  N6A       -0.4860   -5.3430   14.5950 N.pl3 401  NDP401      0.2180
     19  N1A       -1.4400   -3.5240   15.7530 N.2   401  NDP401      0.0021
     20  C2A       -1.6230   -2.8290   16.9090 C.3   401  NDP401      0.5254
     21  N3A       -1.1040   -3.1390   18.1290 N.2   401  NDP401     -0.0055
     22  C4A       -0.3340   -4.2750   18.0730 C.2   401  NDP401      0.3518
     23  O3         6.5590   -4.8770   22.3250 O.3   401  NDP401     -0.2703
     24  PN         7.9300   -4.8180   23.1650 P.3   401  NDP401      0.2189
     25  O1N        8.7500   -6.0390   22.9300 O.2   401  NDP401     -0.5170
     26  O2N        7.5490   -4.5370   24.5710 O.3   401  NDP401     -0.4371
     27  O5D        8.6680   -3.5310   22.5820 O.3   401  NDP401     -0.3112
     28  C5D        8.2360   -2.2050   22.9290 C.3   401  NDP401      0.1813
     29  C4D        9.3690   -1.2180   22.7620 C.3   401  NDP401      0.1799
     30  O4D       10.4990   -1.6560   23.5640 O.3   401  NDP401     -0.3327
     31  C3D        9.8420   -1.0220   21.2950 C.3   401  NDP401      0.2158
     32  O3D       10.1430    0.3310   21.0160 O.3   401  NDP401     -0.2175
     33  C2D       11.0210   -1.9450   21.2740 C.3   401  NDP401      0.2309
     34  O2D       11.9060   -1.5600   20.2360 O.3   401  NDP401     -0.2158
     35  C1D       11.5980   -1.8160   22.6540 C.3   401  NDP401      0.2263
     36  N1N       12.4840   -2.9500   23.0060 N.pl3 401  NDP401     -0.2787
     37  C2N       13.7250   -2.6080   23.5170 C.3   401  NDP401      0.1244
     38  C3N       14.5530   -3.5880   24.0610 C.2   401  NDP401      0.0544
     39  C7N       15.7900   -3.2220   24.8490 C.2   401  NDP401      0.2818
     40  O7N       16.5220   -4.1100   25.2750 O.2   401  NDP401     -0.2670
     41  N7N       16.0340   -1.9170   25.0530 N.am  401  NDP401     -0.0839
     42  C4N       14.1900   -4.9640   23.9020 C.2   401  NDP401      0.0033
     43  C5N       12.9070   -5.2960   23.4180 C.2   401  NDP401      0.0157
     44  C6N       12.0260   -4.2780   23.0300 C.2   401  NDP401      0.0633
     45  P2B       -2.4420   -5.6780   22.3520 P.3   401  NDP401      0.5328
     46  O1X       -2.4000   -7.1780   22.1330 O.3   401  NDP401     -0.1145
     47  O2X       -2.9700   -5.2180   23.6770 O.3   401  NDP401     -0.1145
     48  O3X       -3.0850   -4.9390   21.1910 O.2   401  NDP401     -0.2224
@<TRIPOS>BOND
     1    18    17    1
     2    17    19    2
     3    17    16    1
     4    19    20    1
     5    20    21    1
     6    16    15    2
     7    16    22    1
     8    15    14    1
     9    22    21    2
    10    22    13    1
    11    14    13    1
    12    13    12    1
    13    34    33    1
    14    12     7    1
    15    12    10    1
    16     7     6    1
    17    32    31    1
    18     2     1    2
    19    48    45    2
    20    33    31    1
    21    33    35    1
    22    31    29    1
    23    10     8    1
    24    10    11    1
    25     4     1    1
    26     4     5    1
    27    46    45    1
    28     8     6    1
    29     8     9    1
    30     6     5    1
    31     1    23    1
    32     1     3    1
    33    23    24    1
    34    45    11    1
    35    45    47    1
    36    27    28    1
    37    27    24    1
    38    35    36    1
    39    35    30    1
    40    29    28    1
    41    29    30    1
    42    25    24    2
    43    36    44    1
    44    36    37    1
    45    44    43    2
    46    24    26    1
    47    43    42    1
    48    37    38    1
    49    42    38    2
    50    38    39    1
    51    39    41   am
    52    39    40    2
