@<TRIPOS>MOLECULE
2r6k_GTX_A_1.pdb
 26 25 0 0 0
SMALL
GASTEIGER

@<TRIPOS>ATOM
      1  N1        25.6420    6.7430   12.9510 N.3   5100  GTX5100    -0.1208
      2  CA1       26.5370    7.7700   12.4510 C.3   5100  GTX5100     0.1948
      3  C1        27.2100    7.3230   11.2110 C.2   5100  GTX5100     0.3819
      4  O11       27.5540    8.1130   10.3170 O.co2 5100  GTX5100    -0.2441
      5  O12       27.4020    6.1240   11.0710 O.co2 5100  GTX5100    -0.2441
      6  CB1       27.5990    8.2110   13.4160 C.3   5100  GTX5100     0.0402
      7  CG1       28.2690    9.4910   12.9150 C.3   5100  GTX5100     0.0889
      8  CD1       29.3460    9.7270   13.9300 C.2   5100  GTX5100     0.2418
      9  OE1       29.2040    8.9850   15.1210 O.2   5100  GTX5100    -0.2733
     10  N2        30.3430   10.5580   13.6000 N.am  5100  GTX5100    -0.1969
     11  CA2       31.2530   11.1240   14.5810 C.3   5100  GTX5100     0.1834
     12  C2        30.9680   12.5830   14.8470 C.2   5100  GTX5100     0.2626
     13  O2        30.8700   13.5190   13.8240 O.2   5100  GTX5100    -0.2714
     14  CB2       32.6650   11.1120   14.0150 C.3   5100  GTX5100     0.0886
     15  SG2       33.2320    9.4900   13.5040 S.3   5100  GTX5100    -0.1379
     16  C1S       33.4940    8.9080   15.1790 C.3   5100  GTX5100     0.0576
     17  C2S       34.3590    7.6550   15.0840 C.3   5100  GTX5100     0.0116
     18  C3S       35.8430    7.9900   14.8690 C.3   5100  GTX5100     0.0009
     19  C4S       36.7150    6.8110   15.3020 C.3   5100  GTX5100     0.0000
     20  C5S       37.1830    7.0710   16.7340 C.3   5100  GTX5100     0.0000
     21  C6S       37.7890    5.8360   17.3970 C.3   5100  GTX5100     0.0000
     22  N3        30.8100   12.9760   16.0830 N.am  5100  GTX5100    -0.1917
     23  CA3       30.6600   14.3890   16.3410 C.3   5100  GTX5100     0.2285
     24  C3        29.4980   14.5340   17.2700 C.2   5100  GTX5100     0.3865
     25  O31       29.2220   15.6650   17.7100 O.co2 5100  GTX5100    -0.2437
     26  O32       28.8180   13.5410   17.5840 O.co2 5100  GTX5100    -0.2437
@<TRIPOS>BOND
     1     4     3   ar
     2     5     3   ar
     3     3     2    1
     4     2     1    1
     5     2     6    1
     6     7     6    1
     7     7     8    1
     8    15    14    1
     9    15    16    1
    10    10     8   am
    11    10    11    1
    12    13    12    2
    13     8     9    2
    14    14    11    1
    15    11    12    1
    16    12    22   am
    17    18    17    1
    18    18    19    1
    19    17    16    1
    20    19    20    1
    21    22    23    1
    22    23    24    1
    23    20    21    1
    24    24    26   ar
    25    24    25   ar
