@<TRIPOS>MOLECULE
2r6n_CKE_A_1.pdb
 31 35 0 0 0
SMALL
GASTEIGER

@<TRIPOS>ATOM
      1  C11       33.9090    6.1450    4.3440 C.ar  300  CKE300      0.0438
      2  C12       32.9670    5.2600    3.5470 C.3   300  CKE300      0.0701
      3  C13       31.5300    5.7630    3.6800 C.ar  300  CKE300     -0.0162
      4  C14       30.9080    6.5130    2.6310 C.ar  300  CKE300     -0.0026
      5  C15       29.5670    6.9870    2.7730 C.ar  300  CKE300      0.0142
      6  C16       28.7880    6.7290    3.9740 C.ar  300  CKE300      0.0479
      7  C20       26.4370    6.4620    4.9320 C.3   300  CKE300      0.1081
      8  C21       25.7600    5.2740    4.2010 C.3   300  CKE300      0.0938
      9  C24       26.7800    7.5600    2.7650 C.3   300  CKE300      0.1081
     10  C27       34.1100    9.5590    2.6960 C.3   300  CKE300      0.0226
     11  C30       35.0440    9.7910    0.3380 C.3   300  CKE300      0.0001
     12  C31       24.4700    4.5800    2.2630 C.3   300  CKE300      0.0897
     13  N01       36.6600    8.4150    7.2380 N.2   300  CKE300     -0.1808
     14  C02       35.9060    7.2490    7.1470 C.2   300  CKE300      0.1147
     15  C03       35.2010    6.9700    6.0050 C.ar  300  CKE300      0.0684
     16  C04       35.2680    7.8490    4.9920 C.ar  300  CKE300      0.2079
     17  N05       35.9930    8.9950    5.0400 N.2   300  CKE300     -0.3311
     18  C06       36.6810    9.2720    6.1670 C.1   300  CKE300      0.1114
     19  C07       34.3440    5.8550    5.6460 C.ar  300  CKE300      0.0188
     20  N08       34.4810    7.3710    3.9320 N.ar  300  CKE300     -0.3075
     21  N10       38.1180   10.8050    7.3000 N.2   300  CKE300     -0.1336
     22  C17       29.4380    5.9720    5.0160 C.ar  300  CKE300      0.0142
     23  C18       30.7770    5.5020    4.8700 C.ar  300  CKE300     -0.0026
     24  N19       27.4050    7.2390    4.1020 N.pl3 300  CKE300     -0.3047
     25  N22       25.1030    5.7290    2.9480 N.3   300  CKE300     -0.2686
     26  C23       26.1150    6.3520    2.0600 C.3   300  CKE300      0.0938
     27  C25       34.2620    8.0060    2.6060 C.3   300  CKE300      0.0875
     28  C26       35.4370    7.6380    1.6550 C.3   300  CKE300      0.0226
     29  C28       35.2450    8.2620    0.2500 C.3   300  CKE300      0.0019
     30  C29       33.8800   10.1490    1.2870 C.3   300  CKE300      0.0019
     31  C09       37.4580   10.5120    6.2390 C.2   300  CKE300      0.2059
@<TRIPOS>BOND
     1    29    11    1
     2    29    28    1
     3    11    30    1
     4    30    10    1
     5    28    27    1
     6    26     9    1
     7    26    25    1
     8    12    25    1
     9    27    10    1
    10    27    20    1
    11     4     5   ar
    12     4     3   ar
    13     9    24    1
    14     5     6   ar
    15    25     8    1
    16     2     3    1
    17     2     1    1
    18     3    23   ar
    19    20     1   ar
    20    20    16   ar
    21     6    24    1
    22     6    22   ar
    23    24     7    1
    24     8     7    1
    25     1    19   ar
    26    23    22   ar
    27    16    17    2
    28    16    15   ar
    29    17    18    2
    30    19    15   ar
    31    15    14    2
    32    18    31    1
    33    18    13    2
    34    31    21    2
    35    14    13    1
