@<TRIPOS>MOLECULE
2r6r_GDP_1_1.pdb
 28 30 0 0 0
SMALL
GASTEIGER

@<TRIPOS>ATOM
      1  PB        -7.5020   -2.5460    8.1570 P.3   339  GDP339      0.5373
      2  O1B       -8.5850   -2.8150    7.1420 O.2   339  GDP339     -0.2221
      3  O2B       -7.3470   -1.0770    8.3820 O.3   339  GDP339     -0.1143
      4  O3B       -6.2320   -3.2440    7.8040 O.3   339  GDP339     -0.1143
      5  O3A       -8.0070   -3.1830    9.5430 O.3   339  GDP339     -0.2261
      6  PA        -7.3180   -2.8900   10.9680 P.3   339  GDP339      0.2231
      7  O1A       -5.8280   -2.7120   10.8410 O.2   339  GDP339     -0.5169
      8  O2A       -8.0420   -1.7500   11.6720 O.3   339  GDP339     -0.4370
      9  O5'       -7.6840   -4.2070   11.7620 O.3   339  GDP339     -0.3111
     10  C5'       -7.0450   -5.4320   11.4350 C.3   339  GDP339      0.1813
     11  C4'       -6.4670   -6.0880   12.6810 C.3   339  GDP339      0.1799
     12  O4'       -5.5100   -5.2190   13.2780 O.3   339  GDP339     -0.3326
     13  C3'       -7.5480   -6.2820   13.7380 C.3   339  GDP339      0.2158
     14  O3'       -8.2560   -7.4910   13.5110 O.3   339  GDP339     -0.2175
     15  C2'       -6.7910   -6.2440   15.0630 C.3   339  GDP339      0.2310
     16  O2'       -6.3550   -7.5400   15.5090 O.3   339  GDP339     -0.2158
     17  C1'       -5.6010   -5.3460   14.7030 C.3   339  GDP339      0.2293
     18  N9        -5.7070   -4.0040   15.3000 N.pl3 339  GDP339     -0.2354
     19  C8        -6.7910   -3.1880   15.3600 C.3   339  GDP339      0.2246
     20  N7        -6.4690   -2.0230   15.9850 N.2   339  GDP339     -0.2322
     21  C5        -5.1740   -2.1200   16.3420 C.2   339  GDP339      0.2182
     22  C6        -4.2180   -1.2490   17.0420 C.1   339  GDP339      0.2372
     23  O6        -4.5820   -0.1360   17.4740 O.2   339  GDP339     -0.2069
     24  N1        -2.9700   -1.7050   17.2030 N.2   339  GDP339     -0.2485
     25  C2        -2.5620   -2.9190   16.7580 C.1   339  GDP339      0.2531
     26  N2        -1.2840   -3.3230   16.9720 N.pl3 339  GDP339     -0.0226
     27  N3        -3.3850   -3.7790   16.1140 N.2   339  GDP339     -0.3074
     28  C4        -4.6830   -3.4150   15.8840 C.2   339  GDP339      0.2300
@<TRIPOS>BOND
     1     2     1    2
     2     4     1    1
     3     1     3    1
     4     1     5    1
     5     5     6    1
     6     7     6    2
     7     6     8    1
     8     6     9    1
     9    10     9    1
    10    10    11    1
    11    11    12    1
    12    11    13    1
    13    12    17    1
    14    14    13    1
    15    13    15    1
    16    17    15    1
    17    17    18    1
    18    15    16    1
    19    18    19    1
    20    18    28    1
    21    19    20    1
    22    28    27    2
    23    28    21    1
    24    20    21    2
    25    27    25    2
    26    21    22    1
    27    25    26    1
    28    25    24    2
    29    22    24    2
    30    22    23    2
