@<TRIPOS>MOLECULE
2r6s_BCN_A_1.pdb
 11 10 0 0 0
SMALL
GASTEIGER

@<TRIPOS>ATOM
      1  N1        20.3480   15.3820   43.2570 N.3   505  BCN505     -0.2587
      2  C1        20.3350   16.1100   41.9860 C.3   505  BCN505      0.1879
      3  C2        21.7220   16.5070   41.5980 C.2   505  BCN505      0.3809
      4  O21       21.9150   16.4830   40.3680 O.co2 505  BCN505     -0.2441
      5  O22       22.5900   16.7850   42.4780 O.co2 505  BCN505     -0.2441
      6  C3        19.0870   15.6790   43.9500 C.3   505  BCN505      0.1086
      7  C4        17.9080   15.0190   43.2490 C.3   505  BCN505      0.1994
      8  O4        16.7690   15.5720   43.8420 O.3   505  BCN505     -0.2189
      9  C5        20.5230   13.9180   43.0510 C.3   505  BCN505      0.1086
     10  C6        21.9980   13.5300   42.9100 C.3   505  BCN505      0.1994
     11  O6        22.8260   14.3260   43.7840 O.3   505  BCN505     -0.2189
@<TRIPOS>BOND
     1     4     3   ar
     2     3     2    1
     3     3     5   ar
     4     2     1    1
     5    10     9    1
     6    10    11    1
     7     9     1    1
     8     7     8    1
     9     7     6    1
    10     1     6    1
