@<TRIPOS>MOLECULE
2r6t_ATP_A_1.pdb
 31 33 0 0 0
SMALL
GASTEIGER

@<TRIPOS>ATOM
      1  PG       -13.5070   16.5150   -6.9250 P.3   995  ATP995      0.5373
      2  O1G      -13.8990   17.8330   -6.2850 O.3   995  ATP995     -0.1143
      3  O2G      -14.4660   16.1140   -8.0290 O.2   995  ATP995     -0.2221
      4  O3G      -13.1680   15.4290   -5.9190 O.3   995  ATP995     -0.1143
      5  PB       -11.0800   16.0440   -8.4670 P.3   995  ATP995      0.2277
      6  O1B      -11.5970   14.6300   -8.4600 O.3   995  ATP995     -0.4368
      7  O2B      -10.8310   16.6640   -9.8080 O.2   995  ATP995     -0.5168
      8  O3B      -12.1180   16.9650   -7.6400 O.3   995  ATP995     -0.2258
      9  PA        -9.5590   16.3210   -5.9680 P.3   995  ATP995      0.2189
     10  O1A      -10.2280   15.0990   -5.4070 O.3   995  ATP995     -0.4371
     11  O2A       -9.9640   17.6990   -5.5300 O.2   995  ATP995     -0.5170
     12  O3A       -9.7210   16.1750   -7.5940 O.3   995  ATP995     -0.2700
     13  O5'       -7.9610   16.1640   -5.6870 O.3   995  ATP995     -0.3112
     14  C5'       -7.0350   17.2380   -5.6080 C.3   995  ATP995      0.1813
     15  C4'       -6.0000   17.1680   -6.7450 C.3   995  ATP995      0.1821
     16  O4'       -5.2910   15.9180   -6.7320 O.3   995  ATP995     -0.3135
     17  C3'       -6.6170   17.2650   -8.1380 C.3   995  ATP995      0.2184
     18  O3'       -6.5590   18.5620   -8.6860 O.3   995  ATP995     -0.2174
     19  C2'       -5.7960   16.3330   -9.0070 C.3   995  ATP995      0.2570
     20  O2'       -4.6770   17.0110   -9.5830 O.3   995  ATP995     -0.2130
     21  C1'       -5.2670   15.3010   -8.0400 C.3   995  ATP995      0.3186
     22  N9        -6.1180   14.0880   -8.1330 N.pl3 995  ATP995     -0.1439
     23  C8        -7.4500   14.0320   -8.3090 C.3   995  ATP995      0.3377
     24  N7        -7.9110   12.7510   -8.3640 N.2   995  ATP995     -0.2095
     25  C5        -6.8440   11.9520   -8.2120 C.2   995  ATP995      0.2526
     26  C6        -6.5960   10.4990   -8.1480 C.2   995  ATP995      0.4393
     27  N6        -7.6100    9.6260   -8.2630 N.pl3 995  ATP995      0.2180
     28  N1        -5.3200   10.0760   -7.9920 N.2   995  ATP995      0.0021
     29  C2        -4.2840   10.9360   -7.8710 C.3   995  ATP995      0.5254
     30  N3        -4.4330   12.2680   -7.9090 N.2   995  ATP995     -0.0055
     31  C4        -5.6610   12.8350   -8.0670 C.2   995  ATP995      0.3518
@<TRIPOS>BOND
     1     7     5    2
     2    20    19    1
     3    19    17    1
     4    19    21    1
     5    18    17    1
     6     5     6    1
     7     5     8    1
     8     5    12    1
     9    24    23    1
    10    24    25    2
    11    23    22    1
    12    27    26    1
    13    25    26    1
    14    25    31    1
    15    26    28    2
    16    17    15    1
    17    22    31    1
    18    22    21    1
    19    31    30    2
    20    21    16    1
    21     3     1    2
    22    28    29    1
    23    30    29    1
    24     8     1    1
    25    12     9    1
    26     1     2    1
    27     1     4    1
    28    15    16    1
    29    15    14    1
    30     9    13    1
    31     9    11    2
    32     9    10    1
    33    13    14    1
