@<TRIPOS>MOLECULE
2r6v_FMN_A_1.pdb
 31 33 0 0 0
SMALL
GASTEIGER

@<TRIPOS>ATOM
      1  N1        31.8130   12.1520   34.2430 N.2   173  FMN173     -0.2887
      2  C2        30.7510   12.0020   33.4120 C.1   173  FMN173      0.3669
      3  O2        29.7990   11.2610   33.7330 O.2   173  FMN173     -0.1744
      4  N3        30.7030   12.6940   32.2050 N.2   173  FMN173     -0.2300
      5  C4        31.7310   13.4910   31.7640 C.1   173  FMN173      0.2513
      6  O4        31.6120   14.0870   30.6670 O.2   173  FMN173     -0.2057
      7  C4A       32.8690   13.6060   32.5960 C.2   173  FMN173      0.2706
      8  N5        33.9080   14.4120   32.2180 N.2   173  FMN173     -0.3841
      9  C5A       34.9610   14.6070   33.1260 C.2   173  FMN173      0.1452
     10  C6        35.9870   15.4870   32.8100 C.2   173  FMN173      0.0252
     11  C7        37.0450   15.6930   33.6750 C.2   173  FMN173     -0.0375
     12  C7M       38.0750   16.7410   33.3660 C.3   173  FMN173      0.0268
     13  C8        37.0620   15.0050   34.8930 C.3   173  FMN173      0.0417
     14  C8M       38.2230   15.2400   35.8450 C.3   173  FMN173      0.0091
     15  C9        36.0240   14.1360   35.2410 C.2   173  FMN173     -0.0049
     16  C9A       34.9610   13.9410   34.3720 C.2   173  FMN173      0.0795
     17  N10       33.9190   13.0810   34.6990 N.pl3 173  FMN173     -0.2545
     18  C10       32.8530   12.9290   33.8420 C.2   173  FMN173      0.2449
     19  C1'       33.8540   12.3640   36.0100 C.3   173  FMN173      0.1336
     20  C2'       33.1100   13.1720   37.0760 C.3   173  FMN173      0.2048
     21  O2'       33.3880   14.5750   37.0180 O.3   173  FMN173     -0.2185
     22  C3'       33.5440   12.6180   38.4330 C.3   173  FMN173      0.2165
     23  O3'       33.2360   11.2090   38.5280 O.3   173  FMN173     -0.2175
     24  C4'       32.9940   13.3770   39.6280 C.3   173  FMN173      0.2147
     25  O4'       33.7610   12.9930   40.7760 O.3   173  FMN173     -0.2176
     26  C5'       31.5280   13.0420   39.8720 C.3   173  FMN173      0.1892
     27  O5'       31.0500   13.8390   40.9670 O.3   173  FMN173     -0.2674
     28  P         29.5860   13.6240   41.5640 P.3   173  FMN173      0.5327
     29  O1P       28.5790   13.8780   40.4650 O.2   173  FMN173     -0.2224
     30  O2P       29.5650   14.6600   42.6700 O.3   173  FMN173     -0.1145
     31  O3P       29.4520   12.2050   42.0920 O.3   173  FMN173     -0.1145
@<TRIPOS>BOND
     1     6     5    2
     2     5     4    2
     3     5     7    1
     4     4     2    2
     5     8     7    2
     6     8     9    2
     7     7    18    1
     8    10     9    1
     9    10    11    2
    10     9    16    1
    11    12    11    1
    12     2     3    2
    13     2     1    2
    14    11    13    1
    15    18     1    2
    16    18    17    1
    17    16    17    1
    18    16    15    2
    19    17    19    1
    20    13    15    1
    21    13    14    1
    22    19    20    1
    23    21    20    1
    24    20    22    1
    25    22    23    1
    26    22    24    1
    27    24    26    1
    28    24    25    1
    29    26    27    1
    30    29    28    2
    31    27    28    1
    32    28    31    1
    33    28    30    1
