@<TRIPOS>MOLECULE
2r6w_LLB_A_1.pdb
 35 39 0 0 0
SMALL
GASTEIGER

@<TRIPOS>ATOM
      1  C4        10.7080   53.3480   59.6360 C.ar    1  LLB1        0.0098
      2  C5        10.2010   54.6090   60.1340 C.ar    1  LLB1        0.0039
      3  C6         8.7920   54.8130   60.2910 C.ar    1  LLB1        0.0421
      4  C7        11.7390   56.6550   71.3940 C.3     1  LLB1        0.0001
      5  C15       13.2350   53.9520   59.7510 C.2     1  LLB1        0.1960
      6  C20       14.1970   55.0950   63.7940 C.ar    1  LLB1        0.1386
      7  C21       14.8140   55.7760   62.7110 C.ar    1  LLB1        0.0370
      8  C22       14.4950   55.3920   61.3700 C.ar    1  LLB1        0.0063
      9  C28       15.2480   56.4120   65.4630 C.3     1  LLB1        0.2226
     10  O17       13.8880   54.4290   58.8390 O.2     1  LLB1       -0.2866
     11  C12       12.1240   53.0060   59.4430 C.ar    1  LLB1        0.0454
     12  C11       12.2990   51.6840   58.9650 C.ar    1  LLB1        0.0325
     13  C14       13.6050   51.0450   58.6540 C.ar    1  LLB1        0.0063
     14  C54       14.6140   50.9770   59.6100 C.ar    1  LLB1        0.0038
     15  C53       15.8550   50.3780   59.2780 C.ar    1  LLB1        0.0420
     16  C52       16.0650   49.8660   57.9880 C.ar    1  LLB1        0.1957
     17  O59       17.2630   49.2760   57.6190 O.3     1  LLB1       -0.2866
     18  C51       15.0450   49.9230   57.0100 C.ar    1  LLB1        0.0420
     19  C50       13.8060   50.5260   57.3600 C.ar    1  LLB1        0.0038
     20  S10       10.7740   50.9350   58.7570 S.2     1  LLB1       -0.0867
     21  C3         9.8470   52.3010   59.2910 C.ar    1  LLB1        0.0327
     22  C2         8.4540   52.4840   59.4420 C.ar    1  LLB1        0.0485
     23  C1         7.9420   53.7470   59.9390 C.ar    1  LLB1        0.1962
     24  O13        6.5930   53.8990   60.0350 O.3     1  LLB1       -0.2866
     25  C16       13.5620   54.3280   61.1600 C.ar    1  LLB1        0.0392
     26  C19       13.2770   54.0730   63.5960 C.ar    1  LLB1        0.0370
     27  C18       12.9500   53.6820   62.2850 C.ar    1  LLB1        0.0063
     28  O27       14.4150   55.3460   65.1190 O.3     1  LLB1       -0.4740
     29  C29       15.4330   56.3180   66.9750 C.3     1  LLB1        0.1200
     30  N61       14.3510   56.6080   67.9170 N.3     1  LLB1       -0.2696
     31  C66       13.5420   55.3660   68.1680 C.3     1  LLB1        0.0722
     32  C65       12.4690   55.4960   69.2680 C.3     1  LLB1        0.0174
     33  C64       12.9630   56.2400   70.5520 C.3     1  LLB1        0.0028
     34  C63       13.7750   57.4960   70.2600 C.3     1  LLB1        0.0174
     35  C62       14.8430   57.2060   69.1970 C.3     1  LLB1        0.0722
@<TRIPOS>BOND
     1    18    19   ar
     2    18    16   ar
     3    19    13   ar
     4    17    16    1
     5    16    15   ar
     6    13    12    1
     7    13    14   ar
     8    20    12   ar
     9    20    21   ar
    10    10     5    2
    11    12    11   ar
    12    15    14   ar
    13    21    22   ar
    14    21     1   ar
    15    22    23   ar
    16    11     1   ar
    17    11     5    1
    18     1     2   ar
    19     5    25    1
    20    23    24    1
    21    23     3   ar
    22     2     3   ar
    23    25     8   ar
    24    25    27   ar
    25     8     7   ar
    26    27    26   ar
    27     7     6   ar
    28    26     6   ar
    29     6    28    1
    30    28     9    1
    31     9    29    1
    32    29    30    1
    33    30    31    1
    34    30    35    1
    35    31    32    1
    36    35    34    1
    37    32    33    1
    38    34    33    1
    39    33     4    1
