@<TRIPOS>MOLECULE
2r6x_ATP_A_1.pdb
 31 33 0 0 0
SMALL
GASTEIGER

@<TRIPOS>ATOM
      1  PG       -13.4870   16.6130   -6.5430 P.3   995  ATP995      0.5373
      2  O1G      -13.8380   17.8840   -5.8080 O.3   995  ATP995     -0.1143
      3  O2G      -14.5360   16.0540   -7.4820 O.2   995  ATP995     -0.2221
      4  O3G      -12.9310   15.5980   -5.5830 O.3   995  ATP995     -0.1143
      5  PB       -11.1370   16.0480   -8.0690 P.3   995  ATP995      0.2277
      6  O1B      -11.3940   14.6140   -7.6420 O.3   995  ATP995     -0.4368
      7  O2B      -10.8850   16.3320   -9.5190 O.2   995  ATP995     -0.5168
      8  O3B      -12.3090   17.0250   -7.5660 O.3   995  ATP995     -0.2258
      9  PA        -9.5710   16.3790   -5.7070 P.3   995  ATP995      0.2189
     10  O1A      -10.0630   15.0190   -5.3000 O.2   995  ATP995     -0.5170
     11  O2A      -10.0750   17.6180   -5.0010 O.3   995  ATP995     -0.4371
     12  O3A       -9.8200   16.5520   -7.2970 O.3   995  ATP995     -0.2700
     13  O5'       -7.9580   16.3780   -5.6070 O.3   995  ATP995     -0.3112
     14  C5'       -7.1670   17.5640   -5.7410 C.3   995  ATP995      0.1813
     15  C4'       -6.0960   17.3300   -6.7970 C.3   995  ATP995      0.1821
     16  O4'       -5.5000   16.0420   -6.6230 O.3   995  ATP995     -0.3135
     17  C3'       -6.6760   17.3190   -8.1980 C.3   995  ATP995      0.2184
     18  O3'       -6.6740   18.6170   -8.8120 O.3   995  ATP995     -0.2174
     19  C2'       -5.8210   16.3070   -8.9490 C.3   995  ATP995      0.2570
     20  O2'       -4.6740   16.9220   -9.5340 O.3   995  ATP995     -0.2130
     21  C1'       -5.3430   15.3500   -7.8820 C.3   995  ATP995      0.3186
     22  N9        -6.1610   14.1020   -7.9120 N.pl3 995  ATP995     -0.1439
     23  C8        -7.4980   14.0310   -8.0510 C.3   995  ATP995      0.3377
     24  N7        -7.9380   12.7530   -8.0310 N.2   995  ATP995     -0.2095
     25  C5        -6.8630   11.9650   -7.8600 C.2   995  ATP995      0.2526
     26  C6        -6.6140   10.5140   -7.7490 C.2   995  ATP995      0.4393
     27  N6        -7.6170    9.6180   -7.8090 N.pl3 995  ATP995      0.2180
     28  N1        -5.3350   10.1170   -7.5890 N.2   995  ATP995      0.0021
     29  C2        -4.3020   10.9820   -7.5290 C.3   995  ATP995      0.5254
     30  N3        -4.4500   12.3060   -7.6290 N.2   995  ATP995     -0.0055
     31  C4        -5.6880   12.8560   -7.7860 C.2   995  ATP995      0.3518
@<TRIPOS>BOND
     1    20    19    1
     2     7     5    2
     3    19    17    1
     4    19    21    1
     5    18    17    1
     6    17    15    1
     7     5     6    1
     8     5     8    1
     9     5    12    1
    10    23    24    1
    11    23    22    1
    12    24    25    2
    13    22    21    1
    14    22    31    1
    15    21    16    1
    16    25    31    1
    17    25    26    1
    18    27    26    1
    19    31    30    2
    20    26    28    2
    21    30    29    1
    22    28    29    1
    23     8     1    1
    24     3     1    2
    25    12     9    1
    26    15    16    1
    27    15    14    1
    28     1     2    1
    29     1     4    1
    30    14    13    1
    31     9    13    1
    32     9    10    2
    33     9    11    1
