@<TRIPOS>MOLECULE
2r6y_LLC_A_1.pdb
 33 37 0 0 0
SMALL
GASTEIGER

@<TRIPOS>ATOM
      1  C4        12.1520   -0.5100   28.6560 C.ar    1  LLC1        0.0038
      2  C5        13.3830   -0.0040   29.0190 C.ar    1  LLC1        0.0420
      3  C6        14.4350    0.0280   28.0800 C.ar    1  LLC1        0.1957
      4  C8        14.2680   -0.4430   26.7780 C.ar    1  LLC1        0.0420
      5  C13        8.1750   -4.2560   25.9620 C.ar    1  LLC1        0.0039
      6  C15        6.0080   -3.1600   26.2430 C.ar    1  LLC1        0.1962
      7  C20       11.5270   -4.1330   24.8220 C.ar    1  LLC1        0.0392
      8  C21       10.9130   -3.3480   23.8520 C.ar    1  LLC1        0.0063
      9  C22       11.0730   -3.5860   22.5040 C.ar    1  LLC1        0.0370
     10  C26       13.0610   -5.9040   18.9130 C.3     1  LLC1        0.1200
     11  C28       12.2090   -6.1380   16.6850 C.3     1  LLC1        0.0722
     12  O19       12.0270   -4.2520   27.1140 O.2     1  LLC1       -0.2866
     13  C18       11.3070   -3.7800   26.2460 C.2     1  LLC1        0.1960
     14  C33       12.3540   -5.2150   24.4220 C.ar    1  LLC1        0.0063
     15  C32       12.4960   -5.4500   23.0670 C.ar    1  LLC1        0.0370
     16  C23       11.8710   -4.6640   22.1070 C.ar    1  LLC1        0.1386
     17  O24       11.9720   -4.8700   20.7670 O.3     1  LLC1       -0.4740
     18  C25       12.7740   -6.0140   20.4290 C.3     1  LLC1        0.2226
     19  N27       11.8240   -6.0700   18.1060 N.3     1  LLC1       -0.2696
     20  C31       10.9500   -4.8990   18.2650 C.3     1  LLC1        0.0722
     21  C30       10.3840   -4.5120   16.8640 C.3     1  LLC1        0.0188
     22  C29       11.0000   -5.5610   15.8950 C.3     1  LLC1        0.0188
     23  C1        10.2560   -2.7790   26.5780 C.ar    1  LLC1        0.0454
     24  C12        8.8230   -3.0590   26.4270 C.ar    1  LLC1        0.0098
     25  C14        6.7840   -4.2440   25.8530 C.ar    1  LLC1        0.0421
     26  O17        4.6500   -3.1750   26.1640 O.3     1  LLC1       -0.2866
     27  C16        6.6170   -1.9870   26.7010 C.ar    1  LLC1        0.0485
     28  C11        7.9810   -1.9540   26.7760 C.ar    1  LLC1        0.0327
     29  S10        9.1040   -0.6720   27.3110 S.2     1  LLC1       -0.0867
     30  C2        10.6250   -1.5300   27.0440 C.ar    1  LLC1        0.0325
     31  C3        11.9670   -0.9910   27.3430 C.ar    1  LLC1        0.0063
     32  C9        13.0290   -0.9510   26.4060 C.ar    1  LLC1        0.0038
     33  O7        15.6340    0.5200   28.5000 O.3     1  LLC1       -0.2866
@<TRIPOS>BOND
     1    22    11    1
     2    22    21    1
     3    11    19    1
     4    21    20    1
     5    19    20    1
     6    19    10    1
     7    10    18    1
     8    18    17    1
     9    17    16    1
    10    16     9   ar
    11    16    15   ar
    12     9     8   ar
    13    15    14   ar
    14     8     7   ar
    15    14     7   ar
    16     7    13    1
    17    25     5   ar
    18    25     6   ar
    19     5    24   ar
    20    26     6    1
    21     6    27   ar
    22    13    23    1
    23    13    12    2
    24    32     4   ar
    25    32    31   ar
    26    24    23   ar
    27    24    28   ar
    28    23    30   ar
    29    27    28   ar
    30    28    29   ar
    31     4     3   ar
    32    30    29   ar
    33    30    31    1
    34    31     1   ar
    35     3    33    1
    36     3     2   ar
    37     1     2   ar
