@<TRIPOS>MOLECULE
2r71_INS_A_1.pdb
 12 12 0 0 0
SMALL
GASTEIGER

@<TRIPOS>ATOM
      1  C1        12.5760   21.4820   18.5050 C.3   787  INS787      0.2175
      2  C2        12.8460   20.2230   17.6680 C.3   787  INS787      0.2175
      3  C3        14.3350   20.0440   17.3460 C.3   787  INS787      0.2175
      4  C4        15.2110   20.1370   18.5960 C.3   787  INS787      0.2175
      5  C5        14.9700   21.4560   19.3300 C.3   787  INS787      0.2175
      6  C6        13.4990   21.5950   19.7230 C.3   787  INS787      0.2175
      7  O1        11.2120   21.4840   18.9480 O.3   787  INS787     -0.2175
      8  O2        12.3560   19.0660   18.3600 O.3   787  INS787     -0.2175
      9  O3        14.5490   18.7730   16.7180 O.3   787  INS787     -0.2175
     10  O4        16.5900   20.0400   18.2130 O.3   787  INS787     -0.2175
     11  O5        15.7870   21.5080   20.5030 O.3   787  INS787     -0.2175
     12  O6        13.2880   22.8560   20.3700 O.3   787  INS787     -0.2175
@<TRIPOS>BOND
     1     9     3    1
     2     3     2    1
     3     3     4    1
     4     2     8    1
     5     2     1    1
     6    10     4    1
     7     1     7    1
     8     1     6    1
     9     4     5    1
    10     5     6    1
    11     5    11    1
    12     6    12    1
