@<TRIPOS>MOLECULE
2r75_01G_1_1.pdb
 38 41 0 0 0
SMALL
GASTEIGER

@<TRIPOS>ATOM
      1  CAA       -8.7420   -2.9100   14.4070 C.3   614  01G614      0.1264
      2  CAC      -10.1330   -3.4170   14.2970 C.3   614  01G614      0.1637
      3  OAF      -11.0180   -2.8970   15.2630 O.3   614  01G614     -0.3501
      4  CAD      -10.6170   -3.2660   16.5870 C.3   614  01G614      0.1637
      5  CAB       -9.1580   -2.8950   16.8610 C.3   614  01G614      0.1264
      6  NAE       -8.2380   -3.1480   15.7120 N.pl3 614  01G614     -0.2661
      7  C8        -6.9450   -3.0570   15.9020 C.cat 614  01G614      0.2501
      8  N7        -6.5290   -1.9910   16.5820 N.2   614  01G614     -0.3557
      9  C5        -5.1900   -2.1140   16.6650 C.2   614  01G614      0.2733
     10  C6        -4.2130   -1.3620   17.2930 C.1   614  01G614      0.2499
     11  O6        -4.4360   -0.2520   17.8500 O.2   614  01G614     -0.2058
     12  N1        -2.9550   -1.8310   17.2080 N.2   614  01G614     -0.2475
     13  C2        -2.6160   -2.9620   16.6030 C.1   614  01G614      0.2532
     14  N2        -1.3080   -3.2890   16.5960 N.pl3 614  01G614     -0.0226
     15  N3        -3.5150   -3.7180   16.0080 N.2   614  01G614     -0.3059
     16  C4        -4.8060   -3.2990   16.0490 C.2   614  01G614      0.2477
     17  N9        -5.8980   -3.8800   15.5480 N.pl3 614  01G614     -0.1965
     18  C1'       -5.8650   -5.1340   14.8810 C.3   614  01G614      0.2345
     19  O4'       -5.8630   -4.8270   13.4070 O.3   614  01G614     -0.3323
     20  C2'       -6.9730   -6.1220   15.0740 C.3   614  01G614      0.2314
     21  O2'       -6.4190   -7.3450   15.5850 O.3   614  01G614     -0.2157
     22  C3'       -7.6420   -6.2630   13.6860 C.3   614  01G614      0.2158
     23  O3'       -8.1590   -7.5510   13.4660 O.3   614  01G614     -0.2175
     24  C4'       -6.5570   -5.9440   12.7390 C.3   614  01G614      0.1799
     25  C5'       -7.0540   -5.4070   11.3880 C.3   614  01G614      0.1813
     26  O5'       -7.8640   -4.2970   11.5770 O.3   614  01G614     -0.3112
     27  PA        -7.4970   -2.9230   10.9000 P.3   614  01G614      0.2189
     28  O2A       -8.2600   -1.8470   11.6100 O.3   614  01G614     -0.4371
     29  O1A       -6.0250   -2.7410   10.8090 O.2   614  01G614     -0.5170
     30  O3A       -8.1130   -3.0840    9.4210 O.3   614  01G614     -0.2700
     31  PB        -7.5550   -2.3550    8.1180 P.3   614  01G614      0.2277
     32  O2B       -7.4880   -0.8890    8.3640 O.3   614  01G614     -0.4368
     33  O1B       -6.2950   -2.9790    7.6660 O.2   614  01G614     -0.5168
     34  O3B       -8.6860   -2.6920    7.0830 O.3   614  01G614     -0.2258
     35  PG       -10.0510   -1.8660    6.5280 P.3   614  01G614      0.5373
     36  O2G      -10.4190   -0.9860    7.7760 O.3   614  01G614     -0.1143
     37  O3G       -9.5680   -0.9810    5.3150 O.2   614  01G614     -0.2221
     38  O1G      -10.9480   -2.9910    6.1810 O.3   614  01G614     -0.1143
@<TRIPOS>BOND
     1    37    35    2
     2    38    35    1
     3    35    34    1
     4    35    36    1
     5    34    31    1
     6    33    31    2
     7    31    32    1
     8    31    30    1
     9    30    27    1
    10    29    27    2
    11    27    26    1
    12    27    28    1
    13    25    26    1
    14    25    24    1
    15    24    19    1
    16    24    22    1
    17    19    18    1
    18    23    22    1
    19    22    20    1
    20     2     1    1
    21     2     3    1
    22     1     6    1
    23    18    20    1
    24    18    17    1
    25    20    21    1
    26     3     4    1
    27    17     7    1
    28    17    16    1
    29     6     7    1
    30     6     5    1
    31     7     8    2
    32    15    16    2
    33    15    13    2
    34    16     9    1
    35     8     9    2
    36     4     5    1
    37    14    13    1
    38    13    12    2
    39     9    10    1
    40    12    10    2
    41    10    11    2
