@<TRIPOS>MOLECULE
2r79_HEM_A_1.pdb
 43 50 0 0 0
SMALL
GASTEIGER

@<TRIPOS>ATOM
      1  CHA      109.5880   99.9260  -13.9560 C.2   500  HEM500      0.0000
      2  CHB      111.8310   95.5520  -14.2220 C.2   500  HEM500      0.0000
      3  CHC      113.9430   96.4020   -9.9330 C.2   500  HEM500      0.0000
      4  CHD      111.6640  100.6980   -9.6040 C.2   500  HEM500      0.0000
      5  C1A      110.0050   98.6480  -14.4200 C.ar  500  HEM500      0.0000
      6  C2A      109.6680   98.0440  -15.7030 C.ar  500  HEM500      0.0000
      7  C3A      110.2730   96.8170  -15.7470 C.ar  500  HEM500      0.0000
      8  C4A      111.0180   96.6670  -14.5220 C.ar  500  HEM500      0.0000
      9  CMA      110.1520   95.7640  -16.8520 C.3   500  HEM500      0.0000
     10  CAA      108.8230   98.6210  -16.8390 C.3   500  HEM500      0.0000
     11  CBA      109.6110   99.4890  -17.8170 C.3   500  HEM500      0.0000
     12  CGA      110.0530  100.8090  -17.2070 C.2   500  HEM500      0.0000
     13  O1A      109.1790  101.6590  -16.9150 O.co2 500  HEM500      0.0000
     14  O2A      111.2760  100.9960  -17.0120 O.co2 500  HEM500      0.0000
     15  C1B      112.5420   95.3550  -13.0330 C.2   500  HEM500      0.0000
     16  C2B      113.3880   94.2070  -12.7400 C.2   500  HEM500      0.0000
     17  C3B      113.9960   94.4490  -11.5330 C.2   500  HEM500      0.0000
     18  C4B      113.5010   95.7390  -11.0850 C.2   500  HEM500      0.0000
     19  CMB      113.5120   92.9260  -13.5850 C.3   500  HEM500      0.0000
     20  CAB      114.8720   93.6200  -10.8310 C.2   500  HEM500      0.0000
     21  CBB      115.9110   92.9440  -11.3870 C.2   500  HEM500      0.0000
     22  C1C      113.4900   97.6460   -9.4700 C.ar  500  HEM500      0.0000
     23  C2C      113.9990   98.3120   -8.2900 C.ar  500  HEM500      0.0000
     24  C3C      113.4160   99.5340   -8.2120 C.ar  500  HEM500      0.0000
     25  C4C      112.4620   99.5850   -9.3090 C.ar  500  HEM500      0.0000
     26  CMC      114.9940   97.7490   -7.2870 C.3   500  HEM500      0.0000
     27  CAC      113.8280  100.5780   -7.3830 C.2   500  HEM500      0.0000
     28  CBC      113.1850  100.9420   -6.2470 C.2   500  HEM500      0.0000
     29  C1D      110.8730  100.8380  -10.7410 C.2   500  HEM500      0.0000
     30  C2D      110.1350  102.0390  -11.0410 C.2   500  HEM500      0.0000
     31  C3D      109.5220  101.8320  -12.2270 C.2   500  HEM500      0.0000
     32  C4D      109.9300  100.5100  -12.7130 C.2   500  HEM500      0.0000
     33  CMD      110.0390  103.3000  -10.1850 C.3   500  HEM500      0.0000
     34  CAD      108.4980  102.8140  -12.7940 C.3   500  HEM500      0.0000
     35  CBD      107.0510  102.3260  -12.8650 C.3   500  HEM500      0.0000
     36  CGD      106.4120  102.0800  -11.4990 C.2   500  HEM500      0.0000
     37  O1D      105.2170  101.7090  -11.4690 O.co2 500  HEM500      0.0000
     38  O2D      107.0900  102.2560  -10.4590 O.co2 500  HEM500      0.0000
     39  NA       110.8190   97.7720  -13.6870 N.ar  500  HEM500      0.0000
     40  NB       112.5700   96.2750  -11.9850 N.2   500  HEM500      0.0000
     41  NC       112.5270   98.4260  -10.0950 N.ar  500  HEM500      0.0000
     42  ND       110.7400   99.8880  -11.7590 N.2   500  HEM500      0.0000
     43 FE        111.5090   98.0160  -11.8070 Fe    500  HEM500      0.0000
@<TRIPOS>BOND
     1    11    12    1
     2    11    10    1
     3    12    14   ar
     4    12    13   ar
     5     9     7    1
     6    10     6    1
     7     7     6   ar
     8     7     8   ar
     9     6     5   ar
    10     8     2    2
    11     8    39   ar
    12     5     1    2
    13     5    39   ar
    14     2    15    1
    15     1    32    1
    16    39    43    1
    17    19    16    1
    18    15    16    1
    19    15    40    2
    20    35    34    1
    21    35    36    1
    22    34    31    1
    23    16    17    2
    24    32    31    1
    25    32    42    2
    26    31    30    2
    27    40    43    1
    28    40    18    1
    29    43    42    1
    30    43    41    1
    31    42    29    1
    32    17    18    1
    33    17    20    1
    34    36    37   ar
    35    36    38   ar
    36    21    20    2
    37    18     3    2
    38    30    29    1
    39    30    33    1
    40    29     4    2
    41    41    22   ar
    42    41    25   ar
    43     3    22    1
    44     4    25    1
    45    22    23   ar
    46    25    24   ar
    47    23    24   ar
    48    23    26    1
    49    24    27    1
    50    27    28    2
