@<TRIPOS>MOLECULE
2r7a_HEM_A_1.pdb
 43 50 0 0 0
SMALL
GASTEIGER

@<TRIPOS>ATOM
      1 FE         13.4660    2.6660  -27.6450 Fe    600  HEM600      0.0000
      2  CHA       15.5020    5.3710  -26.9720 C.2   600  HEM600      0.0000
      3  CHB       16.1910    0.6100  -27.9680 C.2   600  HEM600      0.0000
      4  CHC       11.4180    0.2020  -28.8720 C.2   600  HEM600      0.0000
      5  CHD       10.7490    4.4190  -26.4770 C.2   600  HEM600      0.0000
      6  NA        15.4110    2.9000  -27.3970 N.ar  600  HEM600      0.0000
      7  C1A       16.1100    4.0910  -27.1050 C.ar  600  HEM600      0.0000
      8  C2A       17.5070    3.7720  -26.8520 C.ar  600  HEM600      0.0000
      9  C3A       17.6730    2.4330  -27.0580 C.ar  600  HEM600      0.0000
     10  C4A       16.3910    1.8980  -27.4460 C.ar  600  HEM600      0.0000
     11  CMA       18.9540    1.6300  -26.8440 C.3   600  HEM600      0.0000
     12  CAA       18.6070    4.6470  -26.2950 C.3   600  HEM600      0.0000
     13  CBA       18.4650    5.0740  -24.8350 C.3   600  HEM600      0.0000
     14  CGA       19.8070    5.3870  -24.1960 C.2   600  HEM600      0.0000
     15  O1A       20.6490    5.9970  -24.8820 O.co2 600  HEM600      0.0000
     16  O2A       20.0160    5.0290  -23.0110 O.co2 600  HEM600      0.0000
     17  NB        13.7610    0.8260  -28.3630 N.2   600  HEM600      0.0000
     18  C1B       14.9670    0.1290  -28.4530 C.2   600  HEM600      0.0000
     19  C2B       14.7790   -1.1520  -29.1060 C.2   600  HEM600      0.0000
     20  C3B       13.4440   -1.2700  -29.3810 C.2   600  HEM600      0.0000
     21  C4B       12.8070   -0.0470  -28.9020 C.2   600  HEM600      0.0000
     22  CMB       15.8760   -2.1640  -29.4420 C.3   600  HEM600      0.0000
     23  CAB       12.8170   -2.3540  -29.9930 C.2   600  HEM600      0.0000
     24  CBB       12.8390   -3.6310  -29.5200 C.2   600  HEM600      0.0000
     25  NC        11.4950    2.3810  -27.6840 N.ar  600  HEM600      0.0000
     26  C1C       10.8020    1.3200  -28.2770 C.ar  600  HEM600      0.0000
     27  C2C        9.3670    1.4790  -28.0700 C.ar  600  HEM600      0.0000
     28  C3C        9.1620    2.6430  -27.3790 C.ar  600  HEM600      0.0000
     29  C4C       10.4920    3.1950  -27.1160 C.ar  600  HEM600      0.0000
     30  CMC        8.2840    0.4520  -28.4070 C.3   600  HEM600      0.0000
     31  CAC        7.9220    3.0990  -26.9230 C.2   600  HEM600      0.0000
     32  CBC        7.3690    4.2910  -27.2750 C.2   600  HEM600      0.0000
     33  ND        13.1770    4.5330  -26.9740 N.2   600  HEM600      0.0000
     34  C1D       11.9980    5.0670  -26.4340 C.2   600  HEM600      0.0000
     35  C2D       12.1990    6.4600  -26.0550 C.2   600  HEM600      0.0000
     36  C3D       13.4590    6.8180  -26.4240 C.2   600  HEM600      0.0000
     37  C4D       14.1070    5.5940  -26.9160 C.2   600  HEM600      0.0000
     38  CMD       11.2080    7.3800  -25.3420 C.3   600  HEM600      0.0000
     39  CAD       13.9570    8.2670  -26.3250 C.3   600  HEM600      0.0000
     40  CBD       14.2420    8.9780  -27.6430 C.3   600  HEM600      0.0000
     41  CGD       14.5610   10.4570  -27.4630 C.2   600  HEM600      0.0000
     42  O1D       14.9620   11.1010  -28.4450 O.co2 600  HEM600      0.0000
     43  O2D       14.4040   10.9820  -26.3400 O.co2 600  HEM600      0.0000
@<TRIPOS>BOND
     1    23    24    2
     2    23    20    1
     3    22    19    1
     4    20    19    2
     5    20    21    1
     6    19    18    1
     7    21     4    2
     8    21    17    1
     9     4    26    1
    10    18    17    2
    11    18     3    1
    12    42    41   ar
    13    30    27    1
    14    17     1    1
    15    26    27   ar
    16    26    25   ar
    17    27    28   ar
    18     3    10    2
    19    25     1    1
    20    25    29   ar
    21     1     6    1
    22     1    33    1
    23    40    41    1
    24    40    39    1
    25    41    43   ar
    26    10     6   ar
    27    10     9   ar
    28     6     7   ar
    29    28    29   ar
    30    28    31    1
    31    32    31    2
    32    29     5    1
    33     7     2    2
    34     7     8   ar
    35     9     8   ar
    36     9    11    1
    37    33    37    2
    38    33    34    1
    39     2    37    1
    40    37    36    1
    41     8    12    1
    42     5    34    2
    43    34    35    1
    44    36    39    1
    45    36    35    2
    46    12    13    1
    47    35    38    1
    48    15    14   ar
    49    13    14    1
    50    14    16   ar
