@<TRIPOS>MOLECULE
2r7b_PSE_A_1.pdb
 10 9 0 0 0
SMALL
GASTEIGER

@<TRIPOS>ATOM
      1  N2        66.8370   30.6510   -0.8250 N.3   361  PSE361     -0.1218
      2  C2        67.0180   29.9340    0.4350 C.3   361  PSE361      0.1861
      3  C1        68.4950   29.9330    0.8480 C.2   361  PSE361      0.2287
      4  O1        69.3430   30.4680    0.1330 O.2   361  PSE361     -0.2866
      5  C3        66.5310   28.4850    0.2920 C.3   361  PSE361      0.1806
      6  O1P       66.6920   27.7390    1.4980 O.3   361  PSE361     -0.2682
      7  O2P       64.4800   26.5850    1.3300 O.3   361  PSE361     -0.1145
      8  O3P       66.2730   25.6690    2.8740 O.3   361  PSE361     -0.1145
      9  O4P       66.5590   25.4970    0.3590 O.2   361  PSE361     -0.2224
     10  P         66.0170   26.3340    1.5750 P.3   361  PSE361      0.5327
@<TRIPOS>BOND
     1     1     2    1
     2     4     3    2
     3     5     2    1
     4     5     6    1
     5     9    10    2
     6     2     3    1
     7     7    10    1
     8     6    10    1
     9    10     8    1
