@<TRIPOS>MOLECULE
2r7b_253_A_1.pdb
 25 28 0 0 0
SMALL
GASTEIGER

@<TRIPOS>ATOM
      1  C1        89.2630   14.0150   15.0910 C.3   701  253701      0.2526
      2  O2        88.8500   15.1850   14.4000 O.3   701  253701     -0.4683
      3  C3        87.4970   15.2430   14.0130 C.ar  701  253701      0.1739
      4  C23       86.8760   16.5210   14.0490 C.ar  701  253701      0.1725
      5  O24       87.6900   17.5970   14.4460 O.3   701  253701     -0.4684
      6  C25       87.5050   18.8260   13.7300 C.3   701  253701      0.2526
      7  C22       85.5190   16.6530   13.6820 C.ar  701  253701      0.0415
      8  C21       84.7230   15.5570   13.2280 C.ar  701  253701      0.0211
      9  C11       83.3200   15.5550   12.7690 C.ar  701  253701      0.0090
     10  C12       82.4100   16.7270   12.7570 C.2   701  253701      0.0261
     11  C19       81.0950   16.4920   12.1440 C.2   701  253701      0.1157
     12  N20       80.7210   15.2520   11.6430 N.2   701  253701     -0.3878
     13  C17       80.1260   17.5320   12.0520 C.3   701  253701      0.0916
     14  C18       78.8180   17.1560   11.3820 C.3   701  253701      0.0136
     15  C15       80.4050   18.8140   12.5860 C.2   701  253701      0.0730
     16  N16       79.4900   19.8150   12.5380 N.pl3 701  253701     -0.1323
     17  C14       81.6500   19.0590   13.1980 C.2   701  253701      0.0141
     18  C13       82.6170   18.0500   13.2710 C.2   701  253701      0.0033
     19  C8        82.7980   14.2810   12.2650 C.ar  701  253701      0.0662
     20  C9        81.4970   14.1750   11.7140 C.2   701  253701      0.2202
     21  N1        80.9580   13.0530   11.2210 N.pl3 701  253701     -0.0931
     22  C7        83.5560   13.0820   12.2830 C.ar  701  253701      0.1027
     23  N6        84.8210   13.1080   12.7470 N.ar  701  253701     -0.2436
     24  C5        85.4120   14.2620   13.1900 C.ar  701  253701      0.0845
     25  C4        86.7430   14.1260   13.5840 C.ar  701  253701      0.0591
@<TRIPOS>BOND
     1    21    20    1
     2    14    13    1
     3    12    20    2
     4    12    11    2
     5    20    19    1
     6    13    11    1
     7    13    15    1
     8    11    10    1
     9    19    22   ar
    10    19     9   ar
    11    22    23   ar
    12    16    15    1
    13    15    17    2
    14    23    24   ar
    15    10     9    1
    16    10    18    2
    17     9     8   ar
    18    24     8   ar
    19    24    25   ar
    20    17    18    1
    21     8     7   ar
    22    25     3   ar
    23     7     4   ar
    24     6     5    1
    25     3     4   ar
    26     3     2    1
    27     4     5    1
    28     2     1    1
