@<TRIPOS>MOLECULE
2r7k_AMZ_A_1.pdb
 22 23 0 0 0
SMALL
GASTEIGER

@<TRIPOS>ATOM
      1  O5        13.3540    4.6360   26.5960 O.2   401  AMZ401     -0.2647
      2  C6        14.1690    3.7830   26.2410 C.2   401  AMZ401      0.3092
      3  N2        13.8650    2.6110   25.6810 N.am  401  AMZ401     -0.0821
      4  C3A       15.6540    4.0230   26.4320 C.2   401  AMZ401      0.2235
      5  C7A       16.2100    5.1570   26.9740 C.2   401  AMZ401      0.4013
      6  N3        15.5440    6.2220   27.4160 N.2   401  AMZ401      0.1952
      7  N1        16.6310    3.1890   26.1080 N.2   401  AMZ401     -0.2119
      8  C5        17.7820    3.7880   26.4400 C.3   401  AMZ401      0.3378
      9  N         17.5270    4.9920   26.9670 N.pl3 401  AMZ401     -0.1401
     10  C1        18.5240    5.9610   27.4450 C.3   401  AMZ401      0.3187
     11  C2        18.9480    5.6280   28.8760 C.3   401  AMZ401      0.2570
     12  C3        20.2810    4.9260   28.7000 C.3   401  AMZ401      0.2184
     13  O2        21.1270    5.2660   29.7980 O.3   401  AMZ401     -0.2174
     14  O1        19.1480    6.8570   29.5790 O.3   401  AMZ401     -0.2130
     15  O         19.6870    5.8190   26.5880 O.3   401  AMZ401     -0.3135
     16  C         20.8340    5.5630   27.4200 C.3   401  AMZ401      0.1823
     17  C4        21.7150    4.5640   26.6650 C.3   401  AMZ401      0.1860
     18  O3        20.9590    3.4000   26.3460 O.3   401  AMZ401     -0.2675
     19  P         21.6220    1.9500   26.4620 P.3   401  AMZ401      0.5327
     20  OP1       22.7660    1.7020   25.5430 O.2   401  AMZ401     -0.2224
     21  O4        22.0770    1.7790   28.0090 O.3   401  AMZ401     -0.1145
     22  OP2       20.4250    0.8890   26.2260 O.3   401  AMZ401     -0.1145
@<TRIPOS>BOND
     1    20    19    2
     2     3     2   am
     3     7     4    2
     4     7     8    1
     5    22    19    1
     6     2     4    1
     7     2     1    2
     8    18    19    1
     9    18    17    1
    10     4     5    1
    11     8     9    1
    12    19    21    1
    13    15    16    1
    14    15    10    1
    15    17    16    1
    16     9     5    1
    17     9    10    1
    18     5     6    2
    19    16    12    1
    20    10    11    1
    21    12    11    1
    22    12    13    1
    23    11    14    1
