@<TRIPOS>MOLECULE
2r7k_ACP_A_1.pdb
 31 33 0 0 0
SMALL
GASTEIGER

@<TRIPOS>ATOM
      1  PG        17.5760    7.4070   32.2640 P.3   400  ACP400      0.1295
      2  O1G       18.4570    6.3880   32.9500 O.3   400  ACP400     -0.3567
      3  O2G       18.3400    8.3750   31.3890 O.2   400  ACP400     -0.4595
      4  O3G       16.3590    6.8030   31.5980 O.3   400  ACP400     -0.3567
      5  PB        16.1320    9.9150   32.9350 P.3   400  ACP400      0.3815
      6  O1B       15.4930    9.5710   31.6110 O.2   400  ACP400     -0.2547
      7  O2B       17.1360   11.0480   32.9560 O.3   400  ACP400     -0.1391
      8  C3B       16.9120    8.4220   33.6070 C.3   400  ACP400      0.1768
      9  PA        15.0590   10.5730   35.4940 P.3   400  ACP400      0.2209
     10  O1A       14.8780   12.0480   35.7380 O.2   400  ACP400     -0.5170
     11  O2A       16.2420    9.8250   36.0530 O.3   400  ACP400     -0.4371
     12  O3A       14.9150   10.3320   33.9040 O.3   400  ACP400     -0.2483
     13  O5'       13.7470    9.8350   36.0340 O.3   400  ACP400     -0.3111
     14  C5'       13.7280    8.4210   36.1550 C.3   400  ACP400      0.1813
     15  C4'       12.2760    8.0570   36.3750 C.3   400  ACP400      0.1821
     16  O4'       11.8460    8.5470   37.6490 O.3   400  ACP400     -0.3135
     17  C3'       11.3700    8.7340   35.3580 C.3   400  ACP400      0.2184
     18  O3'       11.2140    7.9650   34.1570 O.3   400  ACP400     -0.2174
     19  C2'       10.0710    8.8810   36.1200 C.3   400  ACP400      0.2570
     20  O2'        9.3180    7.6760   35.9930 O.3   400  ACP400     -0.2130
     21  C1'       10.5150    9.0560   37.5710 C.3   400  ACP400      0.3186
     22  N9        10.5680   10.4980   37.8890 N.pl3 400  ACP400     -0.1439
     23  C8        11.5720   11.3240   37.5340 C.3   400  ACP400      0.3377
     24  N7        11.3340   12.5880   37.9560 N.2   400  ACP400     -0.2095
     25  C5        10.1530   12.5770   38.6040 C.2   400  ACP400      0.2526
     26  C6         9.3240   13.5750   39.3110 C.2   400  ACP400      0.4393
     27  N6         9.7130   14.8690   39.3970 N.pl3 400  ACP400      0.2180
     28  N1         8.1610   13.1550   39.8500 N.2   400  ACP400      0.0021
     29  C2         7.7600   11.8690   39.7700 C.3   400  ACP400      0.5254
     30  N3         8.4670   10.9070   39.1460 N.2   400  ACP400     -0.0055
     31  C4         9.6480   11.1980   38.5490 C.2   400  ACP400      0.3518
@<TRIPOS>BOND
     1     3     1    2
     2     4     1    1
     3     6     5    2
     4     1     2    1
     5     1     8    1
     6     5     7    1
     7     5     8    1
     8     5    12    1
     9    12     9    1
    10    18    17    1
    11    17    19    1
    12    17    15    1
    13     9    10    2
    14     9    13    1
    15     9    11    1
    16    20    19    1
    17    13    14    1
    18    19    21    1
    19    14    15    1
    20    15    16    1
    21    23    22    1
    22    23    24    1
    23    21    16    1
    24    21    22    1
    25    22    31    1
    26    24    25    2
    27    31    25    1
    28    31    30    2
    29    25    26    1
    30    30    29    1
    31    26    27    1
    32    26    28    2
    33    29    28    1
