@<TRIPOS>MOLECULE
2r7l_ATP_A_1.pdb
 31 33 0 0 0
SMALL
GASTEIGER

@<TRIPOS>ATOM
      1  PG        15.7790    7.5840   31.1970 P.3   400  ATP400      0.5373
      2  O1G       16.7550    7.8860   30.0820 O.2   400  ATP400     -0.2221
      3  O2G       14.3670    8.0720   30.9400 O.3   400  ATP400     -0.1143
      4  O3G       15.8570    6.1610   31.6980 O.3   400  ATP400     -0.1143
      5  PB        16.1710   10.0790   32.5200 P.3   400  ATP400      0.2277
      6  O1B       15.7040   10.6020   31.1840 O.2   400  ATP400     -0.5168
      7  O2B       17.4440   10.6440   33.1100 O.3   400  ATP400     -0.4368
      8  O3B       16.3240    8.4690   32.4450 O.3   400  ATP400     -0.2258
      9  PA        15.0760   10.4250   35.1590 P.3   400  ATP400      0.2189
     10  O1A       15.0210   11.8800   35.5460 O.2   400  ATP400     -0.5170
     11  O2A       16.1770    9.5150   35.6320 O.3   400  ATP400     -0.4371
     12  O3A       14.9460   10.3280   33.5450 O.3   400  ATP400     -0.2700
     13  O5'       13.6850    9.7760   35.6150 O.3   400  ATP400     -0.3112
     14  C5'       13.5770    8.3670   35.7330 C.3   400  ATP400      0.1813
     15  C4'       12.1550    8.0460   36.1620 C.3   400  ATP400      0.1821
     16  O4'       11.9100    8.5360   37.4850 O.3   400  ATP400     -0.3135
     17  C3'       11.1120    8.7160   35.2850 C.3   400  ATP400      0.2184
     18  O3'       10.8000    7.9340   34.1280 O.3   400  ATP400     -0.2174
     19  C2'        9.9290    8.8560   36.2230 C.3   400  ATP400      0.2570
     20  O2'        9.1570    7.6560   36.2320 O.3   400  ATP400     -0.2130
     21  C1'       10.5720    9.0320   37.5930 C.3   400  ATP400      0.3186
     22  N9        10.6400   10.4780   37.8750 N.pl3 400  ATP400     -0.1439
     23  C8        11.6430   11.2910   37.4900 C.3   400  ATP400      0.3377
     24  N7        11.4100   12.5660   37.8860 N.2   400  ATP400     -0.2095
     25  C5        10.2420   12.5760   38.5560 C.2   400  ATP400      0.2526
     26  C6         9.4250   13.5960   39.2490 C.2   400  ATP400      0.4393
     27  N6         9.8150   14.8930   39.3040 N.pl3 400  ATP400      0.2180
     28  N1         8.2680   13.1870   39.8060 N.2   400  ATP400      0.0021
     29  C2         7.8640   11.8980   39.7520 C.3   400  ATP400      0.5254
     30  N3         8.5620   10.9220   39.1490 N.2   400  ATP400     -0.0055
     31  C4         9.7310   11.1970   38.5330 C.2   400  ATP400      0.3518
@<TRIPOS>BOND
     1     2     1    2
     2     3     1    1
     3     6     5    2
     4     1     4    1
     5     1     8    1
     6     8     5    1
     7     5     7    1
     8     5    12    1
     9    12     9    1
    10    18    17    1
    11     9    10    2
    12     9    13    1
    13     9    11    1
    14    17    15    1
    15    17    19    1
    16    13    14    1
    17    14    15    1
    18    15    16    1
    19    19    20    1
    20    19    21    1
    21    16    21    1
    22    23    22    1
    23    23    24    1
    24    21    22    1
    25    22    31    1
    26    24    25    2
    27    31    25    1
    28    31    30    2
    29    25    26    1
    30    30    29    1
    31    26    27    1
    32    26    28    2
    33    29    28    1
