@<TRIPOS>MOLECULE
2r7l_AMZ_A_1.pdb
 22 23 0 0 0
SMALL
GASTEIGER

@<TRIPOS>ATOM
      1  O5        13.6280    2.7610   25.6620 O.2   401  AMZ401     -0.2653
      2  C6        13.9910    3.8140   26.1920 C.2   401  AMZ401      0.3002
      3  N2        13.1640    4.7600   26.6280 N.am  401  AMZ401     -0.0826
      4  C3A       15.4680    4.1050   26.4030 C.2   401  AMZ401      0.1445
      5  C7A       16.0170    5.1770   27.0840 C.3   401  AMZ401      0.1990
      6  N3        15.3690    6.1760   27.6860 N.3   401  AMZ401     -0.1080
      7  N1        16.4610    3.3390   25.9690 N.2   401  AMZ401     -0.2490
      8  C5        17.6040    3.9200   26.3600 C.3   401  AMZ401      0.2039
      9  N         17.3300    5.0390   27.0400 N.3   401  AMZ401     -0.2080
     10  C1        18.3230    5.9710   27.6270 C.3   401  AMZ401      0.2123
     11  C2        18.7330    5.5830   29.0480 C.3   401  AMZ401      0.2272
     12  C3        20.0750    4.9010   28.8570 C.3   401  AMZ401      0.2155
     13  O2        20.9230    5.2120   29.9610 O.3   401  AMZ401     -0.2176
     14  O1        18.9010    6.7920   29.7980 O.3   401  AMZ401     -0.2161
     15  O         19.4830    5.8310   26.7900 O.3   401  AMZ401     -0.3353
     16  C         20.6280    5.5940   27.6150 C.3   401  AMZ401      0.1798
     17  C4        21.5680    4.6740   26.8110 C.3   401  AMZ401      0.1859
     18  O3        20.8920    3.4720   26.4560 O.3   401  AMZ401     -0.2675
     19  P         21.6410    2.0850   26.5850 P.3   401  AMZ401      0.5327
     20  OP1       22.7970    1.9140   25.6670 O.2   401  AMZ401     -0.2224
     21  O4        22.1170    1.9410   28.1140 O.3   401  AMZ401     -0.1145
     22  OP2       20.5370    0.9230   26.3460 O.3   401  AMZ401     -0.1145
@<TRIPOS>BOND
     1     1     2    2
     2    20    19    2
     3     7     8    1
     4     7     4    2
     5     2     4    1
     6     2     3   am
     7    22    19    1
     8     8     9    1
     9     4     5    1
    10    18    19    1
    11    18    17    1
    12    19    21    1
    13    15    16    1
    14    15    10    1
    15    17    16    1
    16     9     5    1
    17     9    10    1
    18     5     6    1
    19    16    12    1
    20    10    11    1
    21    12    11    1
    22    12    13    1
    23    11    14    1
