@<TRIPOS>MOLECULE
2r7m_AMP_A_1.pdb
 23 25 0 0 0
SMALL
GASTEIGER

@<TRIPOS>ATOM
      1  P         15.0930   10.4330   35.1380 P.3   400  AMP400      0.5327
      2  O1P       14.8270   10.3400   33.6550 O.2   400  AMP400     -0.2224
      3  O2P       16.2560    9.6210   35.6340 O.3   400  AMP400     -0.1145
      4  O3P       14.9680   11.8430   35.6620 O.3   400  AMP400     -0.1145
      5  O5'       13.8510    9.7150   35.8580 O.3   400  AMP400     -0.2675
      6  C5'       13.7620    8.3020   35.9640 C.3   400  AMP400      0.1860
      7  C4'       12.3020    8.0180   36.2630 C.3   400  AMP400      0.1823
      8  O4'       11.9620    8.5240   37.5620 O.3   400  AMP400     -0.3135
      9  C3'       11.3830    8.7560   35.2970 C.3   400  AMP400      0.2184
     10  O3'       11.1460    8.0470   34.0740 O.3   400  AMP400     -0.2174
     11  C2'       10.1230    8.9350   36.1190 C.3   400  AMP400      0.2570
     12  O2'        9.2730    7.7960   35.9780 O.3   400  AMP400     -0.2130
     13  C1'       10.6360    9.0500   37.5550 C.3   400  AMP400      0.3186
     14  N9        10.7010   10.4940   37.8610 N.pl3 400  AMP400     -0.1439
     15  C8        11.6840   11.3250   37.4610 C.3   400  AMP400      0.3377
     16  N7        11.4460   12.5960   37.8630 N.2   400  AMP400     -0.2095
     17  C5        10.2860   12.5830   38.5520 C.2   400  AMP400      0.2526
     18  C6         9.4720   13.5830   39.2740 C.2   400  AMP400      0.4393
     19  N6         9.8480   14.8830   39.3220 N.pl3 400  AMP400      0.2180
     20  N1         8.3270   13.1610   39.8470 N.2   400  AMP400      0.0021
     21  C2         7.9310   11.8720   39.7880 C.3   400  AMP400      0.5254
     22  N3         8.6260   10.9080   39.1600 N.2   400  AMP400     -0.0055
     23  C4         9.7880   11.1980   38.5300 C.2   400  AMP400      0.3518
@<TRIPOS>BOND
     1     2     1    2
     2    10     9    1
     3     1     3    1
     4     1     4    1
     5     1     5    1
     6     9    11    1
     7     9     7    1
     8     5     6    1
     9     6     7    1
    10    12    11    1
    11    11    13    1
    12     7     8    1
    13    15    14    1
    14    15    16    1
    15    13     8    1
    16    13    14    1
    17    14    23    1
    18    16    17    2
    19    23    17    1
    20    23    22    2
    21    17    18    1
    22    22    21    1
    23    18    19    1
    24    18    20    2
    25    21    20    1
