@<TRIPOS>MOLECULE
2r7n_FAI_A_1.pdb
 24 25 0 0 0
SMALL
GASTEIGER

@<TRIPOS>ATOM
      1  OP2       20.3430    0.8770   25.6990 O.3   401  FAI401     -0.1145
      2  P         21.4270    1.9650   26.2210 P.3   401  FAI401      0.5327
      3  OP1       22.6960    1.7940   25.2460 O.2   401  FAI401     -0.2224
      4  OP3       21.8280    1.7420   27.6340 O.3   401  FAI401     -0.1145
      5  O3        20.8020    3.4060   25.9750 O.3   401  FAI401     -0.2675
      6  C4        21.6170    4.5450   26.2670 C.3   401  FAI401      0.1859
      7  C         20.7680    5.6700   26.8720 C.3   401  FAI401      0.1798
      8  O         19.5070    5.5410   26.2190 O.3   401  FAI401     -0.3353
      9  C3        20.5060    5.4960   28.3820 C.3   401  FAI401      0.2155
     10  O3'       21.0500    6.6360   29.0610 O.3   401  FAI401     -0.2176
     11  C2        18.9810    5.4840   28.5220 C.3   401  FAI401      0.2272
     12  O2'       18.5580    6.4920   29.4520 O.3   401  FAI401     -0.2161
     13  C1        18.4750    5.8810   27.1400 C.3   401  FAI401      0.2125
     14  N         17.4050    4.9700   26.7070 N.3   401  FAI401     -0.2059
     15  C5        17.6120    3.7350   26.2350 C.3   401  FAI401      0.2042
     16  N1        16.4410    3.1810   25.9150 N.2   401  FAI401     -0.2487
     17  C3A       15.4920    4.0680   26.1860 C.2   401  FAI401      0.1469
     18  C6        14.0190    3.7740   25.9520 C.2   401  FAI401      0.3005
     19  O5        13.7160    2.7220   25.3860 O.2   401  FAI401     -0.2653
     20  N2        13.1410    4.6870   26.3930 N.am  401  FAI401     -0.0826
     21  C7A       16.0930    5.2050   26.6900 C.3   401  FAI401      0.2032
     22  N3        15.4940    6.3430   27.0620 N.am  401  FAI401     -0.1764
     23  C8        15.7060    7.4970   26.3850 C.2   401  FAI401      0.3217
     24  O6        16.4400    7.6750   25.3940 O.2   401  FAI401     -0.2633
@<TRIPOS>BOND
     1     3     2    2
     2    19    18    2
     3    24    23    2
     4     1     2    1
     5    16    17    2
     6    16    15    1
     7    18    17    1
     8    18    20   am
     9     5     2    1
    10     5     6    1
    11    17    21    1
    12     8     7    1
    13     8    13    1
    14     2     4    1
    15    15    14    1
    16     6     7    1
    17    23    22   am
    18    21    14    1
    19    21    22    1
    20    14    13    1
    21     7     9    1
    22    13    11    1
    23     9    11    1
    24     9    10    1
    25    11    12    1
