@<TRIPOS>MOLECULE
2r7n_ADP_A_1.pdb
 27 29 0 0 0
SMALL
GASTEIGER

@<TRIPOS>ATOM
      1  PB        15.7540    9.5470   32.3710 P.3   400  ADP400      0.5373
      2  O1B       16.4150   10.8010   31.8350 O.3   400  ADP400     -0.1143
      3  O2B       16.6420    8.7170   33.2790 O.3   400  ADP400     -0.1143
      4  O3B       15.0200    8.7430   31.3110 O.2   400  ADP400     -0.2221
      5  PA        14.8150   10.4170   34.8800 P.3   400  ADP400      0.2231
      6  O1A       14.6270   11.9020   35.0850 O.2   400  ADP400     -0.5169
      7  O2A       16.0610    9.6850   35.2980 O.3   400  ADP400     -0.4370
      8  O3A       14.5640   10.1080   33.3190 O.3   400  ADP400     -0.2261
      9  O5'       13.6230    9.6700   35.6420 O.3   400  ADP400     -0.3111
     10  C5'       13.6460    8.2560   35.7050 C.3   400  ADP400      0.1813
     11  C4'       12.2020    7.8290   35.8850 C.3   400  ADP400      0.1821
     12  O4'       11.7590    8.2050   37.1940 O.3   400  ADP400     -0.3135
     13  C3'       11.2860    8.5450   34.9000 C.3   400  ADP400      0.2184
     14  O3'       11.0830    7.7780   33.7120 O.3   400  ADP400     -0.2174
     15  C2'       10.0030    8.7500   35.6810 C.3   400  ADP400      0.2570
     16  O2'        9.1230    7.6400   35.5070 O.3   400  ADP400     -0.2130
     17  C1'       10.4730    8.8130   37.1320 C.3   400  ADP400      0.3186
     18  N9        10.5800   10.2410   37.4460 N.pl3 400  ADP400     -0.1439
     19  C8        11.5750   11.0700   37.0810 C.3   400  ADP400      0.3377
     20  N7        11.3270   12.3370   37.5130 N.2   400  ADP400     -0.2095
     21  C5        10.1440   12.3200   38.1640 C.2   400  ADP400      0.2526
     22  C6         9.3020   13.3040   38.8770 C.2   400  ADP400      0.4393
     23  N6         9.6610   14.6080   38.9790 N.pl3 400  ADP400      0.2180
     24  N1         8.1420   12.8670   39.4010 N.2   400  ADP400      0.0021
     25  C2         7.7560   11.5780   39.3050 C.3   400  ADP400      0.5254
     26  N3         8.4720   10.6260   38.6840 N.2   400  ADP400     -0.0055
     27  C4         9.6520   10.9370   38.1010 C.2   400  ADP400      0.3518
@<TRIPOS>BOND
     1     4     1    2
     2     2     1    1
     3     1     3    1
     4     1     8    1
     5     8     5    1
     6    14    13    1
     7     5     6    2
     8     5     7    1
     9     5     9    1
    10    13    15    1
    11    13    11    1
    12    16    15    1
    13     9    10    1
    14    15    17    1
    15    10    11    1
    16    11    12    1
    17    19    18    1
    18    19    20    1
    19    17    12    1
    20    17    18    1
    21    18    27    1
    22    20    21    2
    23    27    21    1
    24    27    26    2
    25    21    22    1
    26    26    25    1
    27    22    23    1
    28    22    24    2
    29    25    24    1
