@<TRIPOS>MOLECULE
2r7p_ANP_A_1.pdb
 21 21 0 0 0
SMALL
GASTEIGER

@<TRIPOS>ATOM
      1  PG        18.1820  -38.7480   19.0990 P.3   400  ANP400      0.4884
      2  O1G       19.5930  -39.2200   19.2840 O.3   400  ANP400     -0.1240
      3  O2G       18.0250  -37.7880   17.7760 O.2   400  ANP400     -0.2331
      4  O3G       17.7080  -37.9280   20.4050 O.3   400  ANP400     -0.1240
      5  PB        17.3410  -41.7040   18.4490 P.3   400  ANP400      0.4669
      6  O1B       18.4770  -42.3330   19.1360 O.3   400  ANP400     -0.1253
      7  O2B       16.0020  -42.5140   18.8050 O.2   400  ANP400     -0.2351
      8  N3B       17.2300  -40.0650   18.9450 N.3   400  ANP400     -0.0163
      9  PA        18.3130  -42.9960   16.0160 P.3   400  ANP400      0.2220
     10  O1A       18.9240  -42.5210   14.7170 O.2   400  ANP400     -0.5170
     11  O2A       19.5140  -43.6740   16.8970 O.3   400  ANP400     -0.4370
     12  O3A       17.6170  -41.6980   16.8220 O.3   400  ANP400     -0.2360
     13  O5'       17.1260  -44.0580   15.6230 O.3   400  ANP400     -0.3111
     14  C5'       17.3500  -45.2800   16.1810 C.3   400  ANP400      0.1812
     15  C4'       17.5550  -46.3990   15.1700 C.3   400  ANP400      0.1780
     16  O4'       16.4400  -46.4520   14.2130 O.3   400  ANP400     -0.3482
     17  C3'       18.8300  -46.1790   14.3340 C.3   400  ANP400      0.2140
     18  O3'       20.0010  -46.7580   14.9560 O.3   400  ANP400     -0.2176
     19  C2'       18.4180  -46.7380   12.9000 C.3   400  ANP400      0.2140
     20  O2'       19.2690  -47.7730   12.3690 O.3   400  ANP400     -0.2176
     21  C1'       16.9490  -47.2040   13.0670 C.3   400  ANP400      0.1777
@<TRIPOS>BOND
     1    20    19    1
     2    19    21    1
     3    19    17    1
     4    21    16    1
     5    16    15    1
     6    17    18    1
     7    17    15    1
     8    10     9    2
     9    15    14    1
    10    13     9    1
    11    13    14    1
    12     9    12    1
    13     9    11    1
    14    12     5    1
    15     3     1    2
    16     5     7    2
    17     5     8    1
    18     5     6    1
    19     8     1    1
    20     1     2    1
    21     1     4    1
