@<TRIPOS>MOLECULE
2r7w_GTP_A_1.pdb
 32 34 0 0 0
SMALL
GASTEIGER

@<TRIPOS>ATOM
      1  PG        15.4940   54.2610   89.7690 P.3   1201  GTP1201     0.5373
      2  O1G       16.6910   53.4650   89.3090 O.2   1201  GTP1201    -0.2221
      3  O2G       15.1050   53.8340   91.1650 O.3   1201  GTP1201    -0.1143
      4  O3G       15.8280   55.7330   89.7620 O.3   1201  GTP1201    -0.1143
      5  O3B       14.2750   53.9760   88.7560 O.3   1201  GTP1201    -0.2258
      6  PB        12.8570   54.7120   88.9560 P.3   1201  GTP1201     0.2277
      7  O1B       12.9640   56.1510   88.5100 O.3   1201  GTP1201    -0.4368
      8  O2B       11.7620   53.9910   88.2080 O.2   1201  GTP1201    -0.5168
      9  O3A       12.6070   54.6540   90.5450 O.3   1201  GTP1201    -0.2700
     10  PA        12.3000   55.9990   91.3740 P.3   1201  GTP1201     0.2189
     11  O1A       13.3460   56.1860   92.4470 O.3   1201  GTP1201    -0.4371
     12  O2A       12.2390   57.1980   90.4580 O.2   1201  GTP1201    -0.5170
     13  O5'       10.8680   55.7200   92.0550 O.3   1201  GTP1201    -0.3112
     14  C5'        9.8300   55.1150   91.3170 C.3   1201  GTP1201     0.1813
     15  C4'        9.3810   56.0550   90.2050 C.3   1201  GTP1201     0.1799
     16  O4'        8.9880   55.2980   89.0770 O.3   1201  GTP1201    -0.3326
     17  C3'        8.1900   56.8930   90.6480 C.3   1201  GTP1201     0.2158
     18  O3'        8.5100   58.2620   90.5360 O.3   1201  GTP1201    -0.2175
     19  C2'        7.0660   56.5570   89.6850 C.3   1201  GTP1201     0.2310
     20  O2'        6.6900   57.7170   88.9770 O.3   1201  GTP1201    -0.2158
     21  C1'        7.6410   55.5340   88.7150 C.3   1201  GTP1201     0.2293
     22  N9         6.8770   54.2760   88.8170 N.pl3 1201  GTP1201    -0.2354
     23  C8         5.6400   54.0330   88.2790 C.3   1201  GTP1201     0.2246
     24  N7         5.2770   52.7680   88.5890 N.2   1201  GTP1201    -0.2322
     25  C5         6.2620   52.2000   89.3170 C.2   1201  GTP1201     0.2182
     26  C6         6.3990   50.9380   89.8820 C.1   1201  GTP1201     0.2372
     27  O6         5.5060   50.1020   89.7530 O.2   1201  GTP1201    -0.2069
     28  N1         7.5420   50.6280   90.5900 N.2   1201  GTP1201    -0.2485
     29  C2         8.5400   51.5720   90.7300 C.1   1201  GTP1201     0.2531
     30  N2         9.6420   51.2750   91.4120 N.pl3 1201  GTP1201    -0.0226
     31  N3         8.3960   52.8240   90.1660 N.2   1201  GTP1201    -0.3074
     32  C4         7.2760   53.1360   89.4690 C.2   1201  GTP1201     0.2300
@<TRIPOS>BOND
     1     8     6    2
     2    23    24    1
     3    23    22    1
     4     7     6    1
     5    24    25    2
     6    21    22    1
     7    21    16    1
     8    21    19    1
     9     5     6    1
    10     5     1    1
    11    22    32    1
    12     6     9    1
    13    20    19    1
    14    16    15    1
    15     2     1    2
    16    25    32    1
    17    25    26    1
    18    32    31    2
    19    19    17    1
    20    27    26    2
    21     4     1    1
    22     1     3    1
    23    26    28    2
    24    31    29    2
    25    15    17    1
    26    15    14    1
    27    12    10    2
    28    18    17    1
    29     9    10    1
    30    28    29    2
    31    29    30    1
    32    14    13    1
    33    10    13    1
    34    10    11    1
