@<TRIPOS>MOLECULE
2r7x_GTP_A_1.pdb
 32 35 0 0 0
SMALL
GASTEIGER

@<TRIPOS>ATOM
      1  PG        63.4830  -82.4520   45.3260 P.3   1111  GTP1111     0.5373
      2  O1G       64.5810  -83.0180   44.6990 O.3   1111  GTP1111    -0.1143
      3  O2G       63.6270  -81.6920   43.8870 O.2   1111  GTP1111    -0.2221
      4  O3G       64.6440  -82.9270   46.3160 O.3   1111  GTP1111    -0.1143
      5  O3B       62.2270  -83.5300   45.5540 O.3   1111  GTP1111    -0.2258
      6  PB        62.1930  -83.7790   47.2310 P.3   1111  GTP1111     0.2277
      7  O1B       63.5210  -84.3590   47.6330 O.2   1111  GTP1111    -0.5168
      8  O2B       61.9700  -82.3520   47.9800 O.3   1111  GTP1111    -0.4368
      9  O3A       61.1160  -84.8670   47.8250 O.3   1111  GTP1111    -0.2700
     10  PA        61.1400  -84.6960   49.4870 P.3   1111  GTP1111     0.2189
     11  O1A       62.5490  -84.7290   49.9920 O.3   1111  GTP1111    -0.4371
     12  O2A       60.4450  -83.2980   49.9020 O.2   1111  GTP1111    -0.5170
     13  O5'       60.3590  -85.8990   50.1850 O.3   1111  GTP1111    -0.3112
     14  C5'       60.2380  -85.7900   51.5560 C.3   1111  GTP1111     0.1813
     15  C4'       59.8660  -87.0760   52.1790 C.3   1111  GTP1111     0.1799
     16  O4'       61.3140  -87.2340   52.2480 O.3   1111  GTP1111    -0.3326
     17  C3'       59.5730  -87.2450   53.7060 C.3   1111  GTP1111     0.2158
     18  O3'       58.3360  -87.8880   54.0600 O.3   1111  GTP1111    -0.2175
     19  C2'       60.8360  -87.9430   54.3670 C.3   1111  GTP1111     0.2310
     20  O2'       60.5730  -89.0670   55.1870 O.3   1111  GTP1111    -0.2158
     21  C1'       61.6750  -88.1580   53.2000 C.3   1111  GTP1111     0.2293
     22  N9        63.1700  -88.2090   53.2420 N.pl3 1111  GTP1111    -0.2354
     23  C8        63.9830  -87.6190   52.2880 C.3   1111  GTP1111     0.2246
     24  N7        65.2180  -87.8810   52.5170 N.2   1111  GTP1111    -0.2322
     25  C5        65.3040  -88.6460   53.6200 C.2   1111  GTP1111     0.2182
     26  C6        66.3900  -89.2490   54.3120 C.1   1111  GTP1111     0.2372
     27  O6        67.5360  -89.1180   53.8980 O.2   1111  GTP1111    -0.2069
     28  N1        66.1140  -89.9890   55.4450 N.2   1111  GTP1111    -0.2485
     29  C2        64.8100  -90.1390   55.8990 C.1   1111  GTP1111     0.2531
     30  N2        64.5720  -90.8760   57.0310 N.pl3 1111  GTP1111    -0.0226
     31  N3        63.7820  -89.5910   55.2440 N.2   1111  GTP1111    -0.3074
     32  C4        63.9830  -88.8450   54.1270 C.2   1111  GTP1111     0.2300
@<TRIPOS>BOND
     1     3     1    2
     2     2     1    1
     3     2     4    1
     4     1     5    1
     5     1     4    1
     6     5     6    1
     7     6     7    2
     8     6     9    1
     9     6     8    1
    10     9    10    1
    11    10    12    2
    12    10    11    1
    13    10    13    1
    14    13    14    1
    15    14    15    1
    16    15    16    1
    17    15    17    1
    18    16    21    1
    19    23    24    1
    20    23    22    1
    21    24    25    2
    22    21    22    1
    23    21    19    1
    24    22    32    1
    25    25    32    1
    26    25    26    1
    27    17    18    1
    28    17    19    1
    29    27    26    2
    30    32    31    2
    31    26    28    2
    32    19    20    1
    33    31    29    2
    34    28    29    2
    35    29    30    1
