@<TRIPOS>MOLECULE
2r80_HEM_A_1.pdb
 43 50 0 0 0
SMALL
GASTEIGER

@<TRIPOS>ATOM
      1 FE         42.4870  -18.0840   43.7690 Fe    150  HEM150      0.0000
      2  CHA       42.4020  -20.5790   46.0810 C.2   150  HEM150      0.0000
      3  CHB       41.4210  -20.3000   41.3470 C.2   150  HEM150      0.0000
      4  CHC       42.2870  -15.5440   41.5190 C.2   150  HEM150      0.0000
      5  CHD       44.0200  -15.9610   46.0110 C.2   150  HEM150      0.0000
      6  NA        41.9940  -20.0750   43.7270 N.ar  150  HEM150      0.0000
      7  C1A       42.0600  -20.9540   44.8010 C.ar  150  HEM150      0.0000
      8  C2A       41.6920  -22.2900   44.3270 C.ar  150  HEM150      0.0000
      9  C3A       41.4290  -22.1890   43.0240 C.ar  150  HEM150      0.0000
     10  C4A       41.6110  -20.8070   42.6090 C.ar  150  HEM150      0.0000
     11  CMA       40.9960  -23.3670   42.1110 C.3   150  HEM150      0.0000
     12  CAA       41.5640  -23.6340   45.1030 C.3   150  HEM150      0.0000
     13  CBA       42.5960  -23.9460   46.1760 C.3   150  HEM150      0.0000
     14  CGA       42.0090  -24.9820   47.1220 C.2   150  HEM150      0.0000
     15  O1A       40.8960  -25.5140   46.8530 O.co2 150  HEM150      0.0000
     16  O2A       42.6540  -25.2710   48.1680 O.co2 150  HEM150      0.0000
     17  NB        41.9590  -17.9470   41.7880 N.2   150  HEM150      0.0000
     18  C1B       41.5060  -18.9760   40.9790 C.2   150  HEM150      0.0000
     19  C2B       41.1850  -18.4240   39.6810 C.2   150  HEM150      0.0000
     20  C3B       41.4320  -17.1000   39.7170 C.2   150  HEM150      0.0000
     21  C4B       41.9210  -16.7900   41.0520 C.2   150  HEM150      0.0000
     22  CMB       40.6570  -19.2570   38.4880 C.3   150  HEM150      0.0000
     23  CAB       41.2310  -16.0770   38.5820 C.2   150  HEM150      0.0000
     24  CBB       40.2650  -16.2000   37.6610 C.2   150  HEM150      0.0000
     25  NC        43.0340  -16.1420   43.7820 N.ar  150  HEM150      0.0000
     26  C1C       42.8970  -15.2510   42.7240 C.ar  150  HEM150      0.0000
     27  C2C       43.5170  -13.9770   43.0790 C.ar  150  HEM150      0.0000
     28  C3C       44.0060  -14.1050   44.3150 C.ar  150  HEM150      0.0000
     29  C4C       43.7070  -15.4530   44.7790 C.ar  150  HEM150      0.0000
     30  CMC       43.5800  -12.7470   42.1490 C.3   150  HEM150      0.0000
     31  CAC       44.7600  -13.0640   45.1560 C.2   150  HEM150      0.0000
     32  CBC       45.7220  -12.3110   44.6190 C.2   150  HEM150      0.0000
     33  ND        43.0670  -18.2260   45.7390 N.2   150  HEM150      0.0000
     34  C1D       43.7410  -17.2280   46.4480 C.2   150  HEM150      0.0000
     35  C2D       44.1400  -17.7490   47.7330 C.2   150  HEM150      0.0000
     36  C3D       43.6230  -19.1850   47.7560 C.2   150  HEM150      0.0000
     37  C4D       42.9890  -19.3950   46.4830 C.2   150  HEM150      0.0000
     38  CMD       44.8920  -16.9900   48.8460 C.3   150  HEM150      0.0000
     39  CAD       43.7780  -20.2160   48.8850 C.3   150  HEM150      0.0000
     40  CBD       45.0470  -20.9720   48.5430 C.3   150  HEM150      0.0000
     41  CGD       45.2990  -22.0740   49.5310 C.2   150  HEM150      0.0000
     42  O1D       45.6460  -23.1990   49.0860 O.co2 150  HEM150      0.0000
     43  O2D       45.1670  -21.8220   50.7500 O.co2 150  HEM150      0.0000
@<TRIPOS>BOND
     1    24    23    2
     2    22    19    1
     3    23    20    1
     4    19    20    2
     5    19    18    1
     6    20    21    1
     7    18     3    1
     8    18    17    2
     9    21     4    2
    10    21    17    1
    11     3    10    2
    12     4    26    1
    13    17     1    1
    14    11     9    1
    15    30    27    1
    16    10     9   ar
    17    10     6   ar
    18    26    27   ar
    19    26    25   ar
    20     9     8   ar
    21    27    28   ar
    22     6     1    1
    23     6     7   ar
    24     1    25    1
    25     1    33    1
    26    25    29   ar
    27    28    29   ar
    28    28    31    1
    29     8     7   ar
    30     8    12    1
    31    32    31    2
    32    29     5    1
    33     7     2    2
    34    12    13    1
    35    33    34    1
    36    33    37    2
    37     5    34    2
    38     2    37    1
    39    13    14    1
    40    34    35    1
    41    37    36    1
    42    15    14   ar
    43    14    16   ar
    44    35    36    2
    45    35    38    1
    46    36    39    1
    47    40    39    1
    48    40    41    1
    49    42    41   ar
    50    41    43   ar
