@<TRIPOS>MOLECULE
2r84_AMZ_A_1.pdb
 22 23 0 0 0
SMALL
GASTEIGER

@<TRIPOS>ATOM
      1  O5        48.4260   31.9180   18.2300 O.2   401  AMZ401     -0.2653
      2  C6        47.6710   32.7620   17.7360 C.2   401  AMZ401      0.3002
      3  N2        48.0700   33.9610   17.3280 N.am  401  AMZ401     -0.0826
      4  C3A       46.1740   32.4680   17.5810 C.2   401  AMZ401      0.1445
      5  C7A       45.2100   33.2260   16.9290 C.3   401  AMZ401      0.1990
      6  N3        45.4000   34.3820   16.2890 N.3   401  AMZ401     -0.1080
      7  N1        45.5750   31.3970   18.0860 N.2   401  AMZ401     -0.2490
      8  C5        44.2810   31.4760   17.7620 C.3   401  AMZ401      0.2039
      9  N         44.0470   32.5910   17.0550 N.3   401  AMZ401     -0.2080
     10  C1        42.7170   33.0320   16.5160 C.3   401  AMZ401      0.2123
     11  C2        42.5000   32.5730   15.0740 C.3   401  AMZ401      0.2272
     12  C3        41.7050   31.2870   15.2420 C.3   401  AMZ401      0.2155
     13  O2        40.8870   31.0600   14.0870 O.3   401  AMZ401     -0.2176
     14  O1        41.7110   33.5490   14.3770 O.3   401  AMZ401     -0.2161
     15  O         41.6450   32.4450   17.3170 O.3   401  AMZ401     -0.3353
     16  C         40.8310   31.6030   16.4570 C.3   401  AMZ401      0.1798
     17  C4        40.5010   30.3310   17.2390 C.3   401  AMZ401      0.1859
     18  O3        41.6840   29.5640   17.5010 O.3   401  AMZ401     -0.2675
     19  P         41.5840   27.9760   17.6900 P.3   401  AMZ401      0.5327
     20  OP1       40.7050   27.6130   18.8280 O.3   401  AMZ401     -0.1145
     21  O4        41.0670   27.3730   16.2860 O.2   401  AMZ401     -0.2224
     22  OP2       43.0980   27.4460   17.8760 O.3   401  AMZ401     -0.1145
@<TRIPOS>BOND
     1    13    12    1
     2    14    11    1
     3    11    12    1
     4    11    10    1
     5    12    16    1
     6    21    19    2
     7     6     5    1
     8    16    17    1
     9    16    15    1
    10    10     9    1
    11    10    15    1
    12     5     9    1
    13     5     4    1
    14     9     8    1
    15    17    18    1
    16     3     2   am
    17    18    19    1
    18     4     2    1
    19     4     7    2
    20    19    22    1
    21    19    20    1
    22     2     1    2
    23     8     7    1
