@<TRIPOS>MOLECULE
2r84_AMP_A_1.pdb
 23 25 0 0 0
SMALL
GASTEIGER

@<TRIPOS>ATOM
      1  P         42.9160   39.0360    5.1100 P.3   400  AMP400      0.5327
      2  O1P       42.3450   37.8360    4.3890 O.2   400  AMP400     -0.2224
      3  O2P       42.3050   40.3560    4.7070 O.3   400  AMP400     -0.1145
      4  O3P       43.0840   38.8470    6.5980 O.3   400  AMP400     -0.1145
      5  O5'       44.4140   39.1430    4.5380 O.3   400  AMP400     -0.2675
      6  C5'       45.3330   38.0650    4.6890 C.3   400  AMP400      0.1860
      7  C4'       46.7280   38.6380    4.8810 C.3   400  AMP400      0.1823
      8  O4'       47.0850   39.4750    3.7780 O.3   400  AMP400     -0.3135
      9  C3'       46.8140   39.5220    6.1130 C.3   400  AMP400      0.2184
     10  O3'       47.1270   38.7660    7.2860 O.3   400  AMP400     -0.2174
     11  C2'       47.8900   40.5250    5.7510 C.3   400  AMP400      0.2570
     12  O2'       49.1790   40.0050    6.0900 O.3   400  AMP400     -0.2130
     13  C1'       47.7720   40.6460    4.2380 C.3   400  AMP400      0.3186
     14  N9        47.0120   41.8870    3.9000 N.pl3 400  AMP400     -0.1439
     15  C8        45.6790   42.0680    4.0230 C.3   400  AMP400      0.3377
     16  N7        45.3100   43.3170    3.6400 N.2   400  AMP400     -0.2095
     17  C5        46.4250   43.9620    3.2580 C.2   400  AMP400      0.2526
     18  C6        46.7480   45.3130    2.7410 C.2   400  AMP400      0.4393
     19  N6        45.7720   46.2350    2.5550 N.pl3 400  AMP400      0.2180
     20  N1        48.0440   45.5880    2.4620 N.2   400  AMP400      0.0021
     21  C2        49.0210   44.6740    2.6440 C.3   400  AMP400      0.5254
     22  N3        48.8010   43.4300    3.1120 N.2   400  AMP400     -0.0055
     23  C4        47.5450   43.0190    3.4320 C.2   400  AMP400      0.3518
@<TRIPOS>BOND
     1    20    21    1
     2    20    18    2
     3    19    18    1
     4    21    22    1
     5    18    17    1
     6    22    23    2
     7    17    23    1
     8    17    16    2
     9    23    14    1
    10    16    15    1
    11     8    13    1
    12     8     7    1
    13    14    15    1
    14    14    13    1
    15    13    11    1
    16     2     1    2
    17     5     6    1
    18     5     1    1
    19     6     7    1
    20     3     1    1
    21     7     9    1
    22     1     4    1
    23    11    12    1
    24    11     9    1
    25     9    10    1
