@<TRIPOS>MOLECULE
2r85_AMP_A_1.pdb
 23 25 0 0 0
SMALL
GASTEIGER

@<TRIPOS>ATOM
      1  P         42.8210   39.3820    5.0850 P.3   400  AMP400      0.5327
      2  O1P       42.2300   40.6990    4.6450 O.3   400  AMP400     -0.1145
      3  O2P       42.8590   39.2250    6.5820 O.3   400  AMP400     -0.1145
      4  O3P       42.2890   38.1670    4.3650 O.2   400  AMP400     -0.2224
      5  O5'       44.3540   39.4790    4.6240 O.3   400  AMP400     -0.2675
      6  C5'       45.2550   38.3850    4.7800 C.3   400  AMP400      0.1860
      7  C4'       46.6650   38.9350    4.9160 C.3   400  AMP400      0.1823
      8  O4'       47.0140   39.7310    3.7770 O.3   400  AMP400     -0.3135
      9  C3'       46.7910   39.8800    6.0990 C.3   400  AMP400      0.2184
     10  O3'       46.9700   39.2010    7.3510 O.3   400  AMP400     -0.2174
     11  C2'       47.9530   40.7630    5.6940 C.3   400  AMP400      0.2570
     12  O2'       49.2170   40.1390    5.9730 O.3   400  AMP400     -0.2130
     13  C1'       47.7730   40.8730    4.1870 C.3   400  AMP400      0.3186
     14  N9        47.0240   42.1280    3.8920 N.pl3 400  AMP400     -0.1439
     15  C8        45.6930   42.3270    4.0310 C.3   400  AMP400      0.3377
     16  N7        45.3430   43.5960    3.6800 N.2   400  AMP400     -0.2095
     17  C5        46.4770   44.2190    3.3020 C.2   400  AMP400      0.2526
     18  C6        46.8300   45.5680    2.8110 C.2   400  AMP400      0.4393
     19  N6        45.8630   46.5090    2.6660 N.pl3 400  AMP400      0.2180
     20  N1        48.1310   45.8210    2.5280 N.2   400  AMP400      0.0021
     21  C2        49.0940   44.8820    2.6750 C.3   400  AMP400      0.5254
     22  N3        48.8480   43.6320    3.1260 N.2   400  AMP400     -0.0055
     23  C4        47.5810   43.2520    3.4460 C.2   400  AMP400      0.3518
@<TRIPOS>BOND
     1    20    21    1
     2    20    18    2
     3    19    18    1
     4    21    22    1
     5    18    17    1
     6    22    23    2
     7    17    23    1
     8    17    16    2
     9    23    14    1
    10    16    15    1
    11     8    13    1
    12     8     7    1
    13    14    15    1
    14    14    13    1
    15    13    11    1
    16     4     1    2
    17     5     6    1
    18     5     1    1
    19     2     1    1
    20     6     7    1
    21     7     9    1
    22     1     3    1
    23    11    12    1
    24    11     9    1
    25     9    10    1
