@<TRIPOS>MOLECULE
2r86_ATP_A_1.pdb
 31 33 0 0 0
SMALL
GASTEIGER

@<TRIPOS>ATOM
      1  PG        38.8160   34.8670    6.7380 P.3   400  ATP400      0.5373
      2  O1G       38.7150   36.2700    6.1710 O.3   400  ATP400     -0.1143
      3  O2G       38.0890   33.8200    5.9190 O.2   400  ATP400     -0.2221
      4  O3G       38.5700   34.7740    8.2300 O.3   400  ATP400     -0.1143
      5  PB        41.5800   35.4750    6.8380 P.3   400  ATP400      0.2277
      6  O1B       42.8740   34.6940    6.7150 O.2   400  ATP400     -0.5168
      7  O2B       41.2740   36.2450    8.1090 O.3   400  ATP400     -0.4368
      8  O3B       40.3650   34.4460    6.5680 O.3   400  ATP400     -0.2258
      9  PA        42.1950   37.9010    5.5520 P.3   400  ATP400      0.2189
     10  O1A       41.7850   38.6960    6.7650 O.3   400  ATP400     -0.4371
     11  O2A       42.0230   38.4970    4.1780 O.2   400  ATP400     -0.5170
     12  O3A       41.4580   36.4710    5.5690 O.3   400  ATP400     -0.2700
     13  O5'       43.7140   37.4410    5.7830 O.3   400  ATP400     -0.3112
     14  C5'       44.6080   37.1290    4.7230 C.3   400  ATP400      0.1813
     15  C4'       45.9830   37.6660    5.0900 C.3   400  ATP400      0.1821
     16  O4'       46.4300   38.5790    4.0860 O.3   400  ATP400     -0.3135
     17  C3'       45.9930   38.4430    6.4010 C.3   400  ATP400      0.2184
     18  O3'       46.3630   37.6120    7.5020 O.3   400  ATP400     -0.2174
     19  C2'       47.0070   39.5380    6.1830 C.3   400  ATP400      0.2570
     20  O2'       48.2910   39.0700    6.5910 O.3   400  ATP400     -0.2130
     21  C1'       47.0120   39.7410    4.6770 C.3   400  ATP400      0.3186
     22  N9        46.2050   40.9380    4.3270 N.pl3 400  ATP400     -0.1439
     23  C8        44.8710   41.0730    4.4880 C.3   400  ATP400      0.3377
     24  N7        44.4430   42.2890    4.0710 N.2   400  ATP400     -0.2095
     25  C5        45.5190   42.9600    3.6270 C.2   400  ATP400      0.2526
     26  C6        45.7770   44.2980    3.0500 C.2   400  ATP400      0.4393
     27  N6        44.7650   45.1690    2.8660 N.pl3 400  ATP400      0.2180
     28  N1        47.0500   44.6130    2.7180 N.2   400  ATP400      0.0021
     29  C2        48.0630   43.7470    2.9000 C.3   400  ATP400      0.5254
     30  N3        47.9030   42.5170    3.4190 N.2   400  ATP400     -0.0055
     31  C4        46.6800   42.0700    3.7980 C.2   400  ATP400      0.3518
@<TRIPOS>BOND
     1    28    29    1
     2    28    26    2
     3    27    26    1
     4    29    30    1
     5    26    25    1
     6    30    31    2
     7    25    31    1
     8    25    24    2
     9    31    22    1
    10    24    23    1
    11    16    21    1
    12    16    15    1
    13    11     9    2
    14    22    23    1
    15    22    21    1
    16    21    19    1
    17    14    15    1
    18    14    13    1
    19    15    17    1
    20     9    12    1
    21     9    13    1
    22     9    10    1
    23    12     5    1
    24     3     1    2
    25     2     1    1
    26    19    17    1
    27    19    20    1
    28    17    18    1
    29     8     1    1
    30     8     5    1
    31     6     5    2
    32     1     4    1
    33     5     7    1
