@<TRIPOS>MOLECULE
2r87_ADP_A_1.pdb
 27 29 0 0 0
SMALL
GASTEIGER

@<TRIPOS>ATOM
      1  PB         1.7540   -3.2000  -24.1270 P.3   400  ADP400      0.5373
      2  O1B        1.9090   -3.1710  -22.6170 O.3   400  ADP400     -0.1143
      3  O2B        1.8440   -1.8500  -24.8000 O.3   400  ADP400     -0.1143
      4  O3B        2.5760   -4.2520  -24.8460 O.2   400  ADP400     -0.2221
      5  PA        -0.2860   -4.9200  -25.1220 P.3   400  ADP400      0.2231
      6  O1A       -0.3230   -6.1010  -24.1750 O.3   400  ADP400     -0.4370
      7  O2A        0.4290   -5.0390  -26.4420 O.2   400  ADP400     -0.5169
      8  O3A        0.2090   -3.6120  -24.3270 O.3   400  ADP400     -0.2261
      9  O5'       -1.8130   -4.5180  -25.4440 O.3   400  ADP400     -0.3111
     10  C5'       -2.3000   -3.1770  -25.3900 C.3   400  ADP400      0.1813
     11  C4'       -3.8130   -3.1810  -25.6000 C.3   400  ADP400      0.1821
     12  O4'       -4.1290   -3.9240  -26.7850 O.3   400  ADP400     -0.3135
     13  C3'       -4.5450   -3.8620  -24.4520 C.3   400  ADP400      0.2184
     14  O3'       -5.7670   -3.1680  -24.1920 O.3   400  ADP400     -0.2174
     15  C2'       -4.8490   -5.2630  -24.9570 C.3   400  ADP400      0.2570
     16  O2'       -6.0540   -5.8190  -24.4080 O.3   400  ADP400     -0.2130
     17  C1'       -4.9530   -5.0570  -26.4610 C.3   400  ADP400      0.3186
     18  N9        -4.5050   -6.2700  -27.1840 N.pl3 400  ADP400     -0.1439
     19  C8        -3.2300   -6.6270  -27.4430 C.3   400  ADP400      0.3377
     20  N7        -3.1900   -7.7980  -28.1260 N.2   400  ADP400     -0.2095
     21  C5        -4.4570   -8.2040  -28.3180 C.2   400  ADP400      0.2526
     22  C6        -5.1250   -9.3600  -28.9640 C.2   400  ADP400      0.4393
     23  N6        -4.3930  -10.3330  -29.5600 N.pl3 400  ADP400      0.2180
     24  N1        -6.4780   -9.4020  -28.9340 N.2   400  ADP400      0.0021
     25  C2        -7.2130   -8.4400  -28.3430 C.3   400  ADP400      0.5254
     26  N3        -6.6740   -7.3630  -27.7390 N.2   400  ADP400     -0.0055
     27  C4        -5.3260   -7.1930  -27.6950 C.2   400  ADP400      0.3518
@<TRIPOS>BOND
     1    23    22    1
     2    22    24    2
     3    22    21    1
     4    24    25    1
     5    25    26    1
     6    21    20    2
     7    21    27    1
     8    20    19    1
     9    26    27    2
    10    27    18    1
    11    19    18    1
    12    18    17    1
    13    12    17    1
    14    12    11    1
    15    17    15    1
    16     7     5    2
    17    11    10    1
    18    11    13    1
    19     9    10    1
    20     9     5    1
    21     5     8    1
    22     5     6    1
    23    15    13    1
    24    15    16    1
    25     4     1    2
    26     3     1    1
    27    13    14    1
    28     8     1    1
    29     1     2    1
