@<TRIPOS>MOLECULE
2r8a_C8E_A_1.pdb
 21 20 0 0 0
SMALL
GASTEIGER

@<TRIPOS>ATOM
      1  C1        -8.8290  -46.6950    0.7530 C.3   501  C8E501      0.0000
      2  C2        -8.6000  -45.2860    0.4850 C.3   501  C8E501      0.0000
      3  C3        -9.8250  -44.4950    0.3080 C.3   501  C8E501      0.0000
      4  C4       -10.0300  -43.7320    1.5260 C.3   501  C8E501      0.0000
      5  C5       -11.3280  -44.1150    2.1310 C.3   501  C8E501      0.0001
      6  C6       -11.1270  -44.5630    3.4940 C.3   501  C8E501      0.0026
      7  C7       -12.2950  -43.9770    4.1250 C.3   501  C8E501      0.0321
      8  C8       -13.0080  -45.0240    4.8750 C.3   501  C8E501      0.1423
      9  O9       -14.3660  -45.0190    5.2950 O.3   501  C8E501     -0.3511
     10  C10      -14.8650  -44.0190    6.1790 C.3   501  C8E501      0.1741
     11  C11      -16.3230  -44.3860    6.3510 C.3   501  C8E501      0.1742
     12  O12      -17.1800  -43.2610    6.6630 O.3   501  C8E501     -0.3484
     13  C13      -17.1440  -42.0880    5.7640 C.3   501  C8E501      0.1742
     14  C14      -17.1930  -42.0500    4.1940 C.3   501  C8E501      0.1742
     15  O15      -16.9510  -43.0690    3.1880 O.3   501  C8E501     -0.3484
     16  C16      -15.5560  -43.0900    2.8140 C.3   501  C8E501      0.1742
     17  C17      -15.1420  -42.1880    1.6450 C.3   501  C8E501      0.1742
     18  O18      -15.6330  -42.3740    0.3040 O.3   501  C8E501     -0.3483
     19  C19      -14.8070  -43.2640   -0.4990 C.3   501  C8E501      0.1777
     20  C20      -15.0550  -43.5500   -2.0330 C.3   501  C8E501      0.2140
     21  O21      -16.3530  -43.3300   -2.5890 O.3   501  C8E501     -0.2176
@<TRIPOS>BOND
     1    21    20    1
     2    20    19    1
     3    19    18    1
     4    18    17    1
     5     3     2    1
     6     3     4    1
     7     2     1    1
     8     4     5    1
     9    17    16    1
    10     5     6    1
    11    16    15    1
    12    15    14    1
    13     6     7    1
    14     7     8    1
    15    14    13    1
    16     8     9    1
    17     9    10    1
    18    13    12    1
    19    10    11    1
    20    11    12    1
