@<TRIPOS>MOLECULE
2r8f_AGS_A_1.pdb
 31 33 0 0 0
SMALL
GASTEIGER

@<TRIPOS>ATOM
      1  PG       -18.1150   39.0720   18.5830 P.3   400  AGS400      0.4340
      2  S1G      -18.1360   37.3530   17.4440 S.3   400  AGS400      0.0416
      3  O2G      -17.3720   38.7240   19.7960 O.3   400  AGS400     -0.1305
      4  O3G      -19.4900   39.5090   18.9350 O.2   400  AGS400     -0.2423
      5  PB       -17.5140   41.8470   18.2210 P.3   400  AGS400      0.2262
      6  O1B      -18.9000   42.3700   18.4030 O.2   400  AGS400     -0.5168
      7  O2B      -16.6880   42.0200   19.4180 O.3   400  AGS400     -0.4369
      8  O3B      -17.3980   40.2940   17.8390 O.3   400  AGS400     -0.2405
      9  PA       -17.7360   43.3600   15.9180 P.3   400  AGS400      0.2189
     10  O1A      -18.8480   42.4800   15.4360 O.2   400  AGS400     -0.5170
     11  O2A      -18.2120   44.6480   16.4900 O.3   400  AGS400     -0.4371
     12  O3A      -16.8340   42.6460   17.0480 O.3   400  AGS400     -0.2701
     13  O5'      -16.7040   43.7610   14.7280 O.3   400  AGS400     -0.3112
     14  C5'      -15.2790   43.6830   14.8140 C.3   400  AGS400      0.1813
     15  C4'      -14.7570   44.9310   15.5160 C.3   400  AGS400      0.1821
     16  O4'      -15.5280   46.0800   15.1170 O.3   400  AGS400     -0.3135
     17  C3'      -13.3070   45.3470   15.2220 C.3   400  AGS400      0.2184
     18  O3'      -12.6220   45.4010   16.4710 O.3   400  AGS400     -0.2174
     19  C2'      -13.4160   46.7180   14.6970 C.3   400  AGS400      0.2570
     20  O2'      -12.3560   46.9330   13.7690 O.3   400  AGS400     -0.2130
     21  C1'      -14.7570   46.7190   14.1130 C.3   400  AGS400      0.3186
     22  N9       -15.3610   47.9870   13.5100 N.pl3 400  AGS400     -0.1439
     23  C8       -14.8750   49.2420   13.4950 C.3   400  AGS400      0.3377
     24  N7       -15.7800   50.0230   12.8390 N.2   400  AGS400     -0.2095
     25  C5       -16.8350   49.2690   12.4460 C.2   400  AGS400      0.2526
     26  C6       -18.0490   49.4910   11.7470 C.2   400  AGS400      0.4393
     27  N6       -18.4360   50.7050   11.2820 N.pl3 400  AGS400      0.2180
     28  N1       -18.9000   48.4490   11.5230 N.2   400  AGS400      0.0021
     29  C2       -18.5990   47.2050   11.9520 C.3   400  AGS400      0.5254
     30  N3       -17.4510   46.9760   12.6140 N.2   400  AGS400     -0.0055
     31  C4       -16.5540   47.9860   12.8710 C.2   400  AGS400      0.3518
@<TRIPOS>BOND
     1    27    26    1
     2    28    26    2
     3    28    29    1
     4    26    25    1
     5    29    30    1
     6    25    24    2
     7    25    31    1
     8    30    31    2
     9    24    23    1
    10    31    22    1
    11    23    22    1
    12    22    21    1
    13    20    19    1
    14    21    19    1
    15    21    16    1
    16    19    17    1
    17    13    14    1
    18    13     9    1
    19    14    15    1
    20    16    15    1
    21    17    15    1
    22    17    18    1
    23    10     9    2
    24     9    11    1
    25     9    12    1
    26    12     5    1
    27     2     1    1
    28     8     5    1
    29     8     1    1
    30     5     6    2
    31     5     7    1
    32     1     4    2
    33     1     3    1
