@<TRIPOS>MOLECULE
2r8g_DGT_A_1.pdb
 31 33 0 0 0
SMALL
GASTEIGER

@<TRIPOS>ATOM
      1  PG        23.3950   39.4870    3.6900 P.3   7000  DGT7000     0.5373
      2  O1G       22.9340   39.0640    2.3490 O.2   7000  DGT7000    -0.2221
      3  O2G       22.8010   38.5290    4.8410 O.3   7000  DGT7000    -0.1143
      4  O3G       22.8840   40.9790    4.0220 O.3   7000  DGT7000    -0.1143
      5  O3B       25.0000   39.4750    3.8650 O.3   7000  DGT7000    -0.2258
      6  PB        25.7310   40.3320    5.0190 P.3   7000  DGT7000     0.2277
      7  O1B       26.9330   40.9800    4.4450 O.2   7000  DGT7000    -0.5168
      8  O2B       24.7170   41.1630    5.7070 O.3   7000  DGT7000    -0.4368
      9  O3A       26.1730   39.1580    6.0290 O.3   7000  DGT7000    -0.2700
     10  PA        24.9990   38.2480    6.6520 P.3   7000  DGT7000     0.2189
     11  O1A       25.3570   36.8860    7.1220 O.2   7000  DGT7000    -0.5170
     12  O2A       23.7180   38.9530    7.3290 O.3   7000  DGT7000    -0.4371
     13  O5'       25.7280   38.7510    8.0060 O.3   7000  DGT7000    -0.3112
     14  C5'       25.5370   40.0360    8.5990 C.3   7000  DGT7000     0.1812
     15  C4'       26.8760   40.5730    9.0950 C.3   7000  DGT7000     0.1772
     16  O4'       27.5510   39.7140   10.0280 O.3   7000  DGT7000    -0.3347
     17  C3'       27.8840   40.7990    7.9700 C.3   7000  DGT7000     0.1857
     18  O3'       27.5840   42.0380    7.3220 O.3   7000  DGT7000    -0.2203
     19  C2'       29.1540   40.9650    8.8030 C.3   7000  DGT7000     0.0865
     20  C1'       28.9730   39.8410    9.8280 C.3   7000  DGT7000     0.1981
     21  N9        29.5370   38.5410    9.3860 N.pl3 7000  DGT7000    -0.2374
     22  C8        28.8830   37.6240    8.6820 C.3   7000  DGT7000     0.2245
     23  N7        29.6790   36.5790    8.4580 N.2   7000  DGT7000    -0.2322
     24  C5        30.8540   36.8330    9.0260 C.2   7000  DGT7000     0.2182
     25  C6        32.0430   36.1160    9.1170 C.1   7000  DGT7000     0.2372
     26  O6        32.1480   35.0060    8.6030 O.2   7000  DGT7000    -0.2069
     27  N1        33.1270   36.6820    9.8020 N.2   7000  DGT7000    -0.2485
     28  C2        32.9830   37.9530   10.3770 C.1   7000  DGT7000     0.2531
     29  N2        34.0120   38.5100   11.0120 N.pl3 7000  DGT7000    -0.0226
     30  N3        31.8200   38.6100   10.2710 N.2   7000  DGT7000    -0.3074
     31  C4        30.7680   38.0880    9.6180 C.2   7000  DGT7000     0.2299
@<TRIPOS>BOND
     1     2     1    2
     2     1     5    1
     3     1     4    1
     4     1     3    1
     5     5     6    1
     6     7     6    2
     7     6     8    1
     8     6     9    1
     9     9    10    1
    10    10    11    2
    11    10    12    1
    12    10    13    1
    13    18    17    1
    14    17    19    1
    15    17    15    1
    16    13    14    1
    17    23    22    1
    18    23    24    2
    19    14    15    1
    20    26    25    2
    21    22    21    1
    22    19    20    1
    23    24    25    1
    24    24    31    1
    25    15    16    1
    26    25    27    2
    27    21    31    1
    28    21    20    1
    29    31    30    2
    30    27    28    2
    31    20    16    1
    32    30    28    2
    33    28    29    1
