@<TRIPOS>MOLECULE
2r8h_DGT_A_1.pdb
 31 33 0 0 0
SMALL
GASTEIGER

@<TRIPOS>ATOM
      1  PG        23.7130   38.8390    3.1870 P.3   7000  DGT7000     0.5373
      2  O1G       23.6740   40.0750    2.3750 O.2   7000  DGT7000    -0.2221
      3  O2G       24.5260   37.6530    2.4640 O.3   7000  DGT7000    -0.1143
      4  O3G       22.2310   38.2710    3.4590 O.3   7000  DGT7000    -0.1143
      5  O3B       24.3830   39.0220    4.6400 O.3   7000  DGT7000    -0.2258
      6  PB        25.7640   39.8150    4.8770 P.3   7000  DGT7000     0.2277
      7  O1B       26.5480   39.7490    3.6230 O.2   7000  DGT7000    -0.5168
      8  O2B       25.4570   41.1440    5.4500 O.3   7000  DGT7000    -0.4368
      9  O3A       26.4690   38.8990    5.9980 O.3   7000  DGT7000    -0.2700
     10  PA        25.5740   38.1580    7.1160 P.3   7000  DGT7000     0.2189
     11  O1A       26.1560   37.5460    8.3310 O.3   7000  DGT7000    -0.4371
     12  O2A       24.1290   37.7230    6.5570 O.2   7000  DGT7000    -0.5170
     13  O5'       25.0540   39.5530    7.7300 O.3   7000  DGT7000    -0.3112
     14  C5'       25.3780   40.0450    9.0360 C.3   7000  DGT7000     0.1812
     15  C4'       26.8750   40.1750    9.3360 C.3   7000  DGT7000     0.1772
     16  O4'       27.4690   38.9680    9.8330 O.3   7000  DGT7000    -0.3347
     17  C3'       27.8000   40.5600    8.1830 C.3   7000  DGT7000     0.1857
     18  O3'       27.5970   41.9280    7.8160 O.3   7000  DGT7000    -0.2203
     19  C2'       29.1240   40.4410    8.9360 C.3   7000  DGT7000     0.0865
     20  C1'       28.8880   39.2070    9.8130 C.3   7000  DGT7000     0.1981
     21  N9        29.6200   38.0270    9.3020 N.pl3 7000  DGT7000    -0.2374
     22  C8        29.1310   37.0940    8.4880 C.3   7000  DGT7000     0.2245
     23  N7        30.0870   36.2130    8.2010 N.2   7000  DGT7000    -0.2322
     24  C5        31.1910   36.5860    8.8390 C.2   7000  DGT7000     0.2182
     25  C6        32.4820   36.0760    8.8910 C.1   7000  DGT7000     0.2372
     26  O6        32.7730   35.0680    8.2510 O.2   7000  DGT7000    -0.2069
     27  N1        33.4450   36.7410    9.6620 N.2   7000  DGT7000    -0.2485
     28  C2        33.0860   37.9020   10.3600 C.1   7000  DGT7000     0.2531
     29  N2        33.9890   38.5530   11.0870 N.pl3 7000  DGT7000    -0.0226
     30  N3        31.8290   38.3650   10.2850 N.2   7000  DGT7000    -0.3074
     31  C4        30.8940   37.7440    9.5500 C.2   7000  DGT7000     0.2299
@<TRIPOS>BOND
     1     2     1    2
     2     3     1    1
     3     1     4    1
     4     1     5    1
     5     7     6    2
     6     5     6    1
     7     6     8    1
     8     6     9    1
     9     9    10    1
    10    12    10    2
    11    10    13    1
    12    10    11    1
    13    13    14    1
    14    18    17    1
    15    17    19    1
    16    17    15    1
    17    23    22    1
    18    23    24    2
    19    26    25    2
    20    22    21    1
    21    24    25    1
    22    24    31    1
    23    25    27    2
    24    19    20    1
    25    14    15    1
    26    21    31    1
    27    21    20    1
    28    15    16    1
    29    31    30    2
    30    27    28    2
    31    20    16    1
    32    30    28    2
    33    28    29    1
