@<TRIPOS>MOLECULE
2r8i_DTP_A_1.pdb
 30 32 0 0 0
SMALL
GASTEIGER

@<TRIPOS>ATOM
      1  PG        23.7310   39.1600    3.1810 P.3   7000  DTP7000     0.5373
      2  O1G       23.2200   40.3900    2.5330 O.3   7000  DTP7000    -0.1143
      3  O2G       23.7160   37.9210    2.1540 O.2   7000  DTP7000    -0.2221
      4  O3G       22.7950   38.7070    4.4080 O.3   7000  DTP7000    -0.1143
      5  PB        25.6210   40.1110    5.0580 P.3   7000  DTP7000     0.2277
      6  O1B       27.0440   40.2520    5.4380 O.2   7000  DTP7000    -0.5168
      7  O2B       24.4880   40.3850    5.9690 O.3   7000  DTP7000    -0.4368
      8  O3B       25.2410   39.2670    3.7390 O.3   7000  DTP7000    -0.2258
      9  PA        24.7070   38.0790    6.8150 P.3   7000  DTP7000     0.2189
     10  O1A       25.0150   36.6940    7.2450 O.2   7000  DTP7000    -0.5170
     11  O2A       23.8260   38.9930    7.5720 O.3   7000  DTP7000    -0.4371
     12  O3A       25.7360   38.6370    5.7050 O.3   7000  DTP7000    -0.2700
     13  O5'       25.8570   38.5900    7.8240 O.3   7000  DTP7000    -0.3112
     14  C5'       25.6480   39.7500    8.6380 C.3   7000  DTP7000     0.1813
     15  C4'       26.9550   40.1970    9.2970 C.3   7000  DTP7000     0.1795
     16  O4'       27.4920   39.2100   10.1940 O.3   7000  DTP7000    -0.3155
     17  C3'       28.0790   40.4320    8.2890 C.3   7000  DTP7000     0.1883
     18  O3'       27.8650   41.6810    7.6250 O.3   7000  DTP7000    -0.2202
     19  C2'       29.2070   40.5740    9.3080 C.3   7000  DTP7000     0.1151
     20  C1'       28.9240   39.3640   10.2020 C.3   7000  DTP7000     0.2873
     21  N9        29.5410   38.1550    9.6130 N.pl3 7000  DTP7000    -0.1460
     22  C8        28.9440   37.2760    8.8110 C.3   7000  DTP7000     0.3377
     23  N7        29.8160   36.3350    8.4560 N.2   7000  DTP7000    -0.2095
     24  C5        30.9780   36.6130    9.0360 C.2   7000  DTP7000     0.2526
     25  C6        32.2310   36.0130    9.0380 C.2   7000  DTP7000     0.4393
     26  N6        32.4530   34.9000    8.3430 N.pl3 7000  DTP7000     0.2180
     27  N1        33.2150   36.5760    9.7540 N.2   7000  DTP7000     0.0021
     28  C2        33.0120   37.6800   10.4500 C.3   7000  DTP7000     0.5254
     29  N3        31.8340   38.2780   10.4690 N.2   7000  DTP7000    -0.0055
     30  C4        30.8040   37.7740    9.7770 C.2   7000  DTP7000     0.3518
@<TRIPOS>BOND
     1     3     1    2
     2     2     1    1
     3     1     8    1
     4     1     4    1
     5     8     5    1
     6     5     6    2
     7     5    12    1
     8     5     7    1
     9    12     9    1
    10     9    10    2
    11     9    11    1
    12     9    13    1
    13    18    17    1
    14    13    14    1
    15    17    15    1
    16    17    19    1
    17    26    25    1
    18    23    22    1
    19    23    24    2
    20    14    15    1
    21    22    21    1
    22    24    25    1
    23    24    30    1
    24    25    27    2
    25    15    16    1
    26    19    20    1
    27    21    30    1
    28    21    20    1
    29    27    28    1
    30    30    29    2
    31    16    20    1
    32    28    29    1
