@<TRIPOS>MOLECULE
2r8j_DCP_A_1.pdb
 28 29 0 0 0
SMALL
GASTEIGER

@<TRIPOS>ATOM
      1  N1        19.1840  -23.2990  -10.0080 N.am  2001  DCP2001    -0.1802
      2  C2        18.6460  -23.2640   -8.7200 C.1   2001  DCP2001     0.2756
      3  N3        19.1980  -22.5300   -7.7120 N.2   2001  DCP2001    -0.3024
      4  C4        20.3550  -21.7520   -7.9080 C.2   2001  DCP2001     0.2346
      5  C5        21.0000  -21.6930   -9.1470 C.2   2001  DCP2001     0.0687
      6  C6        20.3350  -22.5350  -10.2290 C.2   2001  DCP2001     0.0835
      7  O2        17.6190  -23.9090   -8.4110 O.2   2001  DCP2001    -0.1925
      8  N4        20.8240  -21.0620   -6.8550 N.pl3 2001  DCP2001    -0.0921
      9  C1'       18.5600  -24.1110  -11.1100 C.3   2001  DCP2001     0.2090
     10  C2'       17.8470  -23.2070  -12.0970 C.3   2001  DCP2001     0.0874
     11  C3'       18.2670  -23.7130  -13.4590 C.3   2001  DCP2001     0.1857
     12  C4'       19.3700  -24.7660  -13.2600 C.3   2001  DCP2001     0.1773
     13  O4'       19.5700  -24.7880  -11.8230 O.3   2001  DCP2001    -0.3339
     14  O3'       17.2490  -24.3650  -14.1760 O.3   2001  DCP2001    -0.2203
     15  C5'       20.4040  -24.1330  -14.1050 C.3   2001  DCP2001     0.1812
     16  O5'       21.4960  -23.5550  -13.4450 O.3   2001  DCP2001    -0.3112
     17  PA        21.9150  -22.0200  -13.9550 P.3   2001  DCP2001     0.2189
     18  O1A       22.7270  -22.2070  -15.2460 O.2   2001  DCP2001    -0.5170
     19  O2A       22.7470  -21.3750  -12.8210 O.3   2001  DCP2001    -0.4371
     20  O3A       20.4220  -21.2880  -14.1000 O.3   2001  DCP2001    -0.2700
     21  PB        19.6630  -20.7340  -15.4590 P.3   2001  DCP2001     0.2277
     22  O1B       18.3410  -20.2950  -14.8020 O.3   2001  DCP2001    -0.4368
     23  O2B       19.4350  -21.8840  -16.4750 O.2   2001  DCP2001    -0.5168
     24  O3B       20.2830  -19.3350  -16.1740 O.3   2001  DCP2001    -0.2258
     25  PG        21.6390  -19.2490  -17.1370 P.3   2001  DCP2001     0.5373
     26  O1G       22.8470  -19.6990  -16.2460 O.3   2001  DCP2001    -0.1143
     27  O2G       21.7490  -17.7550  -17.5550 O.3   2001  DCP2001    -0.1143
     28  O3G       21.3990  -20.2130  -18.3200 O.2   2001  DCP2001    -0.2221
@<TRIPOS>BOND
     1    28    25    2
     2    27    25    1
     3    25    26    1
     4    25    24    1
     5    23    21    2
     6    24    21    1
     7    21    22    1
     8    21    20    1
     9    18    17    2
    10    14    11    1
    11    15    16    1
    12    15    12    1
    13    20    17    1
    14    17    16    1
    15    17    19    1
    16    11    12    1
    17    11    10    1
    18    12    13    1
    19    10     9    1
    20    13     9    1
    21     9     1    1
    22     6     1    1
    23     6     5    2
    24     1     2   am
    25     5     4    1
    26     2     7    2
    27     2     3    2
    28     4     3    2
    29     4     8    1
