@<TRIPOS>MOLECULE
2r8k_DTP_A_1.pdb
 30 32 0 0 0
SMALL
GASTEIGER

@<TRIPOS>ATOM
      1  PG        18.8080  -20.9530   17.0990 P.3   2001  DTP2001     0.5373
      2  O1G       20.0900  -21.7440   17.2480 O.3   2001  DTP2001    -0.1143
      3  O2G       17.5370  -21.6140   16.7180 O.2   2001  DTP2001    -0.2221
      4  O3G       18.5680  -20.1280   18.4700 O.3   2001  DTP2001    -0.1143
      5  PB        20.3850  -19.5310   15.2030 P.3   2001  DTP2001     0.2277
      6  O1B       21.4540  -19.1680   16.1480 O.3   2001  DTP2001    -0.4368
      7  O2B       20.1200  -18.5820   14.0810 O.2   2001  DTP2001    -0.5168
      8  O3B       19.0450  -19.8100   16.0030 O.3   2001  DTP2001    -0.2258
      9  PA        21.7930  -21.6100   13.6710 P.3   2001  DTP2001     0.2189
     10  O1A       22.2650  -22.9200   14.1630 O.3   2001  DTP2001    -0.4371
     11  O2A       21.2610  -21.4780   12.2660 O.2   2001  DTP2001    -0.5170
     12  O3A       20.6110  -21.0250   14.6260 O.3   2001  DTP2001    -0.2700
     13  O5'       23.0370  -20.6300   13.8830 O.3   2001  DTP2001    -0.3112
     14  C5'       22.9860  -19.2680   13.5230 C.3   2001  DTP2001     0.1813
     15  C4'       23.8710  -18.9410   12.3680 C.3   2001  DTP2001     0.1795
     16  O4'       23.5030  -19.6500   11.2080 O.3   2001  DTP2001    -0.3155
     17  C3'       23.7470  -17.4930   12.0130 C.3   2001  DTP2001     0.1883
     18  O3'       24.5330  -16.6700   12.7860 O.3   2001  DTP2001    -0.2202
     19  C2'       24.0260  -17.4270   10.5260 C.3   2001  DTP2001     0.1151
     20  C1'       23.8310  -18.8690   10.0500 C.3   2001  DTP2001     0.2873
     21  N9        22.7010  -19.0950    9.1110 N.pl3 2001  DTP2001    -0.1460
     22  C8        21.8290  -20.1650    9.1740 C.3   2001  DTP2001     0.3377
     23  N7        20.9040  -20.1200    8.2090 N.2   2001  DTP2001    -0.2095
     24  C5        21.1950  -18.9900    7.5070 C.2   2001  DTP2001     0.2526
     25  C6        20.5990  -18.3830    6.3840 C.2   2001  DTP2001     0.4393
     26  N6        19.5320  -18.8840    5.7520 N.pl3 2001  DTP2001     0.2180
     27  N1        21.1450  -17.2050    5.8990 N.2   2001  DTP2001     0.0021
     28  C2        22.2450  -16.6320    6.5020 C.3   2001  DTP2001     0.5254
     29  N3        22.8660  -17.1680    7.5890 N.2   2001  DTP2001    -0.0055
     30  C4        22.3170  -18.3320    8.0620 C.2   2001  DTP2001     0.3518
@<TRIPOS>BOND
     1    26    25    1
     2    27    25    2
     3    27    28    1
     4    25    24    1
     5    28    29    1
     6    24    30    1
     7    24    23    2
     8    29    30    2
     9    30    21    1
    10    23    22    1
    11    21    22    1
    12    21    20    1
    13    20    19    1
    14    20    16    1
    15    19    17    1
    16    16    15    1
    17    17    15    1
    18    17    18    1
    19    11     9    2
    20    15    14    1
    21    14    13    1
    22     9    13    1
    23     9    10    1
    24     9    12    1
    25     7     5    2
    26    12     5    1
    27     5     8    1
    28     5     6    1
    29     8     1    1
    30     3     1    2
    31     1     2    1
    32     1     4    1
