@<TRIPOS>MOLECULE
2r8o_T5X_A_1.pdb
 40 41 0 0 0
SMALL
GASTEIGER

@<TRIPOS>ATOM
      1  O2A       16.9250  -16.6580    4.8670 O.3   671  T5X671     -0.4370
      2  PA        15.8690  -17.5970    4.3370 P.3   671  T5X671      0.2230
      3  O1A       15.8870  -17.9390    2.8820 O.2   671  T5X671     -0.5169
      4  O3A       15.8980  -18.9120    5.2640 O.3   671  T5X671     -0.2261
      5  PB        15.4730  -20.4490    4.9880 P.3   671  T5X671      0.5373
      6  O3B       16.2620  -21.1430    6.0530 O.3   671  T5X671     -0.1143
      7  O2B       15.8450  -20.8820    3.6000 O.2   671  T5X671     -0.2221
      8  O1B       13.9620  -20.4270    5.1320 O.3   671  T5X671     -0.1143
      9  O7        14.4350  -16.9730    4.6340 O.3   671  T5X671     -0.3134
     10  C7        14.3370  -16.3410    5.9040 C.3   671  T5X671      0.1544
     11  C6        12.9180  -15.8690    6.0820 C.3   671  T5X671      0.0661
     12  C5        12.8300  -15.2720    7.4580 C.2   671  T5X671      0.0164
     13  S1        13.2360  -16.2270    8.9220 S.3   671  T5X671     -0.0951
     14  C2        12.4300  -15.0250    9.9870 C.3   671  T5X671      0.1586
     15  CX2       11.9830  -15.4660   11.3640 C.3   671  T5X671      0.2134
     16  CX3       10.6100  -16.1630   11.2290 C.3   671  T5X671      0.2173
     17  CX4        9.7740  -16.2280   12.5160 C.3   671  T5X671      0.2147
     18  CX5        8.3340  -16.6280   12.2170 C.3   671  T5X671      0.1892
     19  OX5        7.5190  -16.3710   13.3670 O.3   671  T5X671     -0.2674
     20  PX         6.0800  -17.0720   13.5430 P.3   671  T5X671      0.5327
     21  OX7        5.3300  -16.8270   12.2570 O.2   671  T5X671     -0.2224
     22  OX6        5.4930  -16.3750   14.7470 O.3   671  T5X671     -0.1145
     23  OX8        6.3830  -18.5430   13.7680 O.3   671  T5X671     -0.1145
     24  OX4       10.3050  -17.1860   13.4380 O.3   671  T5X671     -0.2176
     25  OX3       10.7470  -17.4890   10.6840 O.3   671  T5X671     -0.2175
     26  CX1       13.0480  -16.3510   12.0220 C.3   671  T5X671      0.2174
     27  OX1       14.2270  -15.6060   12.3850 O.3   671  T5X671     -0.2175
     28  OX2       11.8380  -14.2960   12.1740 O.3   671  T5X671     -0.2176
     29  N3        12.0880  -14.0160    9.1520 N.pl3 671  T5X671     -0.2969
     30  C4        12.1710  -14.1130    7.8140 C.2   671  T5X671      0.0279
     31  CM4       11.5280  -13.2500    6.7550 C.3   671  T5X671      0.0473
     32  C7,       11.7040  -12.7130    9.6900 C.3   671  T5X671      0.1237
     33  C5,       12.7850  -11.6450    9.6450 C.2   671  T5X671      0.0654
     34  C4,       13.9900  -11.7000   10.3680 C.2   671  T5X671      0.2292
     35  N4,       14.3190  -12.7340   11.1790 N.pl3 671  T5X671     -0.0925
     36  N3,       14.8910  -10.6890   10.2750 N.2   671  T5X671     -0.3368
     37  C2,       14.6210   -9.6240    9.5030 C.1   671  T5X671      0.0663
     38  CM2       15.6080   -8.4960    9.4240 C.3   671  T5X671      0.1291
     39  N1,       13.4660   -9.5480    8.8070 N.2   671  T5X671     -0.1861
     40  C6,       12.5470  -10.5260    8.8540 C.2   671  T5X671      0.1115
@<TRIPOS>BOND
     1     3     2    2
     2     7     5    2
     3     2     9    1
     4     2     1    1
     5     2     4    1
     6     9    10    1
     7     5     8    1
     8     5     4    1
     9     5     6    1
    10    10    11    1
    11    11    12    1
    12    31    30    1
    13    12    30    2
    14    12    13    1
    15    30    29    1
    16    39    40    1
    17    39    37    2
    18    40    33    2
    19    13    14    1
    20    29    32    1
    21    29    14    1
    22    38    37    1
    23    37    36    2
    24    33    32    1
    25    33    34    1
    26    14    15    1
    27    36    34    2
    28    34    35    1
    29    25    16    1
    30    16    15    1
    31    16    17    1
    32    15    26    1
    33    15    28    1
    34    26    27    1
    35    18    17    1
    36    18    19    1
    37    21    20    2
    38    17    24    1
    39    19    20    1
    40    20    23    1
    41    20    22    1
