@<TRIPOS>MOLECULE
2r8p_T6F_A_1.pdb
 42 43 0 0 0
SMALL
GASTEIGER

@<TRIPOS>ATOM
      1  O2A       16.9520  -16.9400    5.1400 O.3   671  T6F671     -0.4370
      2  PA        15.8500  -17.6750    4.4380 P.3   671  T6F671      0.2230
      3  O1A       15.9150  -17.9760    2.9810 O.2   671  T6F671     -0.5169
      4  O3A       15.4310  -18.9520    5.3240 O.3   671  T6F671     -0.2261
      5  PB        15.7160  -20.5310    5.1720 P.3   671  T6F671      0.5373
      6  O3B       16.9950  -20.6820    5.9690 O.3   671  T6F671     -0.1143
      7  O2B       15.8300  -20.9170    3.7180 O.2   671  T6F671     -0.2221
      8  O1B       14.5870  -21.2290    5.8730 O.3   671  T6F671     -0.1143
      9  O7        14.4830  -16.8340    4.4870 O.3   671  T6F671     -0.3138
     10  C7        13.5620  -16.8490    5.5630 C.3   671  T6F671      0.1501
     11  C6        13.3140  -15.3920    5.8650 C.3   671  T6F671      0.0447
     12  C5        12.8820  -15.2290    7.2980 C.3   671  T6F671      0.0661
     13  S1        13.5030  -16.0800    8.7580 S.3   671  T6F671     -0.1217
     14  C2        12.5700  -15.0490    9.9470 C.3   671  T6F671      0.1397
     15  CF2       12.0390  -15.4770   11.3100 C.3   671  T6F671      0.2098
     16  OF2       11.8120  -14.3270   12.1320 O.3   671  T6F671     -0.2179
     17  CF1       13.1270  -16.2930   12.0220 C.3   671  T6F671      0.2171
     18  OF1       14.2270  -15.4830   12.5060 O.3   671  T6F671     -0.2175
     19  CF3       10.6970  -16.2300   11.1320 C.3   671  T6F671      0.2171
     20  OF3       10.8990  -17.5690   10.6440 O.3   671  T6F671     -0.2175
     21  CF4        9.7650  -16.3110   12.3610 C.3   671  T6F671      0.2174
     22  OF4       10.3250  -17.1750   13.3640 O.3   671  T6F671     -0.2175
     23  CF5        8.3760  -16.8610   12.0000 C.3   671  T6F671      0.2147
     24  OF5        7.7560  -16.1190   10.9360 O.3   671  T6F671     -0.2176
     25  CF6        7.4130  -16.8800   13.1880 C.3   671  T6F671      0.1892
     26  OF6        6.1590  -17.4050   12.7430 O.3   671  T6F671     -0.2674
     27  PF         4.8090  -17.2640   13.6210 P.3   671  T6F671      0.5327
     28  OF8        3.7480  -16.8320   12.6270 O.2   671  T6F671     -0.2224
     29  OF7        5.1650  -16.2470   14.6860 O.3   671  T6F671     -0.1145
     30  OF9        4.5740  -18.6650   14.1590 O.3   671  T6F671     -0.1145
     31  N3        12.2510  -14.0340    9.1110 N.3   671  T6F671     -0.2597
     32  C4        12.2400  -14.0950    7.7640 C.3   671  T6F671      0.0686
     33  CM4       11.4730  -13.2470    6.7670 C.3   671  T6F671      0.0183
     34  C7,       11.8080  -12.7730    9.6860 C.3   671  T6F671      0.1055
     35  C5,       12.8750  -11.6870    9.6550 C.2   671  T6F671      0.0616
     36  C4,       14.0860  -11.7370   10.3690 C.2   671  T6F671      0.2289
     37  N4,       14.4460  -12.7820   11.1720 N.pl3 671  T6F671     -0.0925
     38  N3,       14.9590  -10.7000   10.2570 N.2   671  T6F671     -0.3368
     39  C2,       14.6570   -9.6250    9.4970 C.1   671  T6F671      0.0663
     40  CM2       15.6130   -8.4710    9.4060 C.3   671  T6F671      0.1291
     41  N1,       13.4860   -9.5610    8.8190 N.2   671  T6F671     -0.1861
     42  C6,       12.6020  -10.5690    8.8710 C.2   671  T6F671      0.1112
@<TRIPOS>BOND
     1     3     2    2
     2     7     5    2
     3     2     9    1
     4     2     1    1
     5     2     4    1
     6     9    10    1
     7     5     4    1
     8     5     8    1
     9     5     6    1
    10    10    11    1
    11    11    12    1
    12    33    32    1
    13    12    32    1
    14    12    13    1
    15    32    31    1
    16    13    14    1
    17    41    42    1
    18    41    39    2
    19    42    35    2
    20    31    34    1
    21    31    14    1
    22    40    39    1
    23    39    38    2
    24    35    34    1
    25    35    36    1
    26    14    15    1
    27    38    36    2
    28    36    37    1
    29    20    19    1
    30    24    23    1
    31    19    15    1
    32    19    21    1
    33    15    17    1
    34    15    16    1
    35    23    21    1
    36    23    25    1
    37    17    18    1
    38    21    22    1
    39    28    27    2
    40    26    25    1
    41    26    27    1
    42    27    30    1
    43    27    29    1
