@<TRIPOS>MOLECULE
2r8q_IBM_A_1.pdb
 16 17 0 0 0
SMALL
GASTEIGER

@<TRIPOS>ATOM
      1  N9        32.4900   -1.6050   12.1320 N.2     3  IBM3       -0.2256
      2  C8        33.8010   -1.5470   11.7270 C.3     3  IBM3        0.2523
      3  N7        34.4880   -0.5900   12.2990 N.2     3  IBM3       -0.2364
      4  C5        33.5670    0.0220   13.1370 C.ar    3  IBM3        0.1681
      5  C4        32.3360   -0.5890   13.0460 C.ar    3  IBM3        0.1667
      6  N3        31.2070   -0.2650   13.7140 N.ar    3  IBM3       -0.2651
      7  C2        31.3340    0.7960   14.5650 C.ar    3  IBM3        0.3350
      8  N1        32.5460    1.4770   14.7220 N.ar    3  IBM3       -0.2454
      9  C6        33.6580    1.0920   14.0130 C.ar    3  IBM3        0.2846
     10  O6        34.7180    1.6830   14.1510 O.2     3  IBM3       -0.2651
     11  O2        30.3570    1.1630   15.2090 O.2     3  IBM3       -0.2461
     12  C10       32.6300    2.6010   15.6430 C.3     3  IBM3        0.1383
     13  C11       29.9610   -0.9930   13.5420 C.3     3  IBM3        0.1119
     14  C12       30.1370   -2.4230   14.0610 C.3     3  IBM3        0.0228
     15  C13       29.7710   -2.5140   15.5360 C.3     3  IBM3        0.0020
     16  C14       29.3140   -3.4020   13.2360 C.3     3  IBM3        0.0020
@<TRIPOS>BOND
     1     2     1    1
     2     2     3    1
     3     1     5    2
     4     3     4    2
     5     5     4   ar
     6     5     6   ar
     7     4     9   ar
     8    16    14    1
     9    13     6    1
    10    13    14    1
    11     6     7   ar
    12     9    10    2
    13     9     8   ar
    14    14    15    1
    15     7     8   ar
    16     7    11    2
    17     8    12    1
