@<TRIPOS>MOLECULE
2r8t_FBP_A_1.pdb
 20 20 0 0 0
SMALL
GASTEIGER

@<TRIPOS>ATOM
      1  P1        33.2710   -0.6530   16.1990 P.3   337  FBP337      0.5328
      2  O1P       32.3630   -0.5010   14.9660 O.2   337  FBP337     -0.2224
      3  O2P       32.3390   -1.0800   17.3510 O.3   337  FBP337     -0.1145
      4  O3P       34.3620   -1.6700   15.9110 O.3   337  FBP337     -0.1145
      5  O1        33.9270    0.8060   16.4780 O.3   337  FBP337     -0.2648
      6  C1        33.1740    1.7910   17.1240 C.3   337  FBP337      0.2152
      7  C2        33.6060    3.1310   16.5660 C.3   337  FBP337      0.2780
      8  O2        35.0470    3.2900   16.6590 O.3   337  FBP337     -0.1897
      9  C3        32.9200    4.2540   17.3180 C.3   337  FBP337      0.2408
     10  O3        33.6100    4.5450   18.5130 O.3   337  FBP337     -0.2149
     11  C4        32.9600    5.3790   16.2820 C.3   337  FBP337      0.2167
     12  O4        31.9550    6.3560   16.4880 O.3   337  FBP337     -0.2175
     13  C5        32.7800    4.6120   14.9830 C.3   337  FBP337      0.1808
     14  O5        33.1940    3.2630   15.2230 O.3   337  FBP337     -0.3255
     15  C6        33.5920    5.2240   13.8390 C.3   337  FBP337      0.1859
     16  O6        33.2510    4.5180   12.6460 O.3   337  FBP337     -0.2675
     17  P2        34.2610    4.1370   11.4390 P.3   337  FBP337      0.5327
     18  O4P       35.1270    2.9450   11.8290 O.3   337  FBP337     -0.1145
     19  O5P       35.1620    5.3170   11.1250 O.3   337  FBP337     -0.1145
     20  O6P       33.4110    3.7050   10.2640 O.2   337  FBP337     -0.2224
@<TRIPOS>BOND
     1    20    17    2
     2    19    17    1
     3    17    18    1
     4    17    16    1
     5    16    15    1
     6    15    13    1
     7     2     1    2
     8    13    14    1
     9    13    11    1
    10    14     7    1
    11     4     1    1
    12     1     5    1
    13     1     3    1
    14    11    12    1
    15    11     9    1
    16     5     6    1
    17     7     8    1
    18     7     6    1
    19     7     9    1
    20     9    10    1
