@<TRIPOS>MOLECULE
2r96_FMN_A_1.pdb
 31 33 0 0 0
SMALL
GASTEIGER

@<TRIPOS>ATOM
      1  N1        34.8450  -40.8060   33.1130 N.2   198  FMN198     -0.2887
      2  C2        35.4420  -39.9400   33.9790 C.1   198  FMN198      0.3669
      3  O2        36.2190  -40.3950   34.8250 O.2   198  FMN198     -0.1744
      4  N3        35.1670  -38.5880   33.8990 N.2   198  FMN198     -0.2300
      5  C4        34.3130  -38.0650   32.9540 C.1   198  FMN198      0.2513
      6  O4        34.5330  -36.9120   32.5410 O.2   198  FMN198     -0.2057
      7  C4A       33.7180  -38.9670   32.0800 C.2   198  FMN198      0.2703
      8  N5        32.8610  -38.5000   31.1000 N.2   198  FMN198     -0.3882
      9  C5A       32.2830  -39.3870   30.2120 C.2   198  FMN198      0.1277
     10  C6        31.4210  -38.9100   29.2220 C.3   198  FMN198      0.0820
     11  C7        30.8260  -39.8130   28.3260 C.2   198  FMN198     -0.0408
     12  C7M       30.0680  -39.3040   27.1320 C.3   198  FMN198      0.0265
     13  C8        31.0990  -41.1880   28.4230 C.2   198  FMN198     -0.0280
     14  C8M       30.6700  -42.1310   27.3300 C.3   198  FMN198      0.0304
     15  C9        31.9660  -41.6480   29.4140 C.2   198  FMN198      0.0123
     16  C9A       32.5550  -40.7610   30.3140 C.2   198  FMN198      0.0793
     17  N10       33.4050  -41.2340   31.3160 N.pl3 198  FMN198     -0.2545
     18  C10       33.9950  -40.3290   32.1690 C.2   198  FMN198      0.2449
     19  C1'       33.5050  -42.7150   31.6400 C.3   198  FMN198      0.1336
     20  C2'       32.2250  -43.3280   32.1990 C.3   198  FMN198      0.2048
     21  O2'       31.8290  -42.6780   33.3900 O.3   198  FMN198     -0.2185
     22  C3'       32.4690  -44.8110   32.4620 C.3   198  FMN198      0.2165
     23  O3'       32.5400  -45.5070   31.2300 O.3   198  FMN198     -0.2175
     24  C4'       31.3770  -45.4010   33.3410 C.3   198  FMN198      0.2147
     25  O4'       31.6980  -45.1230   34.6750 O.3   198  FMN198     -0.2176
     26  C5'       31.2560  -46.9100   33.2050 C.3   198  FMN198      0.1892
     27  O5'       30.1510  -47.3260   33.9600 O.3   198  FMN198     -0.2674
     28  P         29.1950  -48.4760   33.3930 P.3   198  FMN198      0.5327
     29  O1P       30.0510  -49.6450   32.9610 O.3   198  FMN198     -0.1145
     30  O2P       28.2980  -48.8720   34.5320 O.3   198  FMN198     -0.1145
     31  O3P       28.4080  -47.9680   32.2010 O.2   198  FMN198     -0.2224
@<TRIPOS>BOND
     1    12    11    1
     2    14    13    1
     3    11    13    2
     4    11    10    1
     5    13    15    1
     6    10     9    1
     7    15    16    2
     8     9    16    1
     9     9     8    2
    10    16    17    1
    11     8     7    2
    12    23    22    1
    13    17    19    1
    14    17    18    1
    15    19    20    1
    16     7    18    1
    17     7     5    1
    18    18     1    2
    19    20    22    1
    20    20    21    1
    21    31    28    2
    22    22    24    1
    23     6     5    2
    24     5     4    2
    25    29    28    1
    26     1     2    2
    27    26    24    1
    28    26    27    1
    29    24    25    1
    30    28    27    1
    31    28    30    1
    32     4     2    2
    33     2     3    2
