@<TRIPOS>MOLECULE
2r97_FMN_A_1.pdb
 31 33 0 0 0
SMALL
GASTEIGER

@<TRIPOS>ATOM
      1  N1        -9.1640   14.9500   -4.7820 N.2   198  FMN198     -0.2887
      2  C2        -8.2690   14.2000   -5.5010 C.1   198  FMN198      0.3669
      3  O2        -8.4910   13.9350   -6.6920 O.2   198  FMN198     -0.1744
      4  N3        -7.1120   13.7720   -4.8910 N.2   198  FMN198     -0.2300
      5  C4        -6.8370   14.1090   -3.5630 C.1   198  FMN198      0.2513
      6  O4        -6.1050   13.3470   -2.9270 O.2   198  FMN198     -0.2057
      7  C4A       -7.7410   14.8950   -2.8370 C.2   198  FMN198      0.2706
      8  N5        -7.4780   15.2660   -1.5220 N.2   198  FMN198     -0.3841
      9  C5A       -8.3980   16.0290   -0.8160 C.2   198  FMN198      0.1452
     10  C6        -8.1430   16.3750    0.5090 C.2   198  FMN198      0.0252
     11  C7        -9.0720   17.1530    1.2250 C.2   198  FMN198     -0.0375
     12  C7M       -8.6020   17.7980    2.5160 C.3   198  FMN198      0.0268
     13  C8       -10.2700   17.5660    0.5970 C.3   198  FMN198      0.0417
     14  C8M      -11.4260   18.1560    1.3750 C.3   198  FMN198      0.0091
     15  C9       -10.5140   17.2000   -0.7350 C.2   198  FMN198     -0.0049
     16  C9A       -9.5860   16.4360   -1.4490 C.2   198  FMN198      0.0795
     17  N10       -9.8400   16.0590   -2.7860 N.pl3 198  FMN198     -0.2545
     18  C10       -8.9190   15.3070   -3.4630 C.2   198  FMN198      0.2449
     19  C1'      -11.2130   16.2010   -3.4040 C.3   198  FMN198      0.1336
     20  C2'      -12.1730   15.1850   -2.8080 C.3   198  FMN198      0.2048
     21  O2'      -11.7550   13.8650   -3.1430 O.3   198  FMN198     -0.2185
     22  C3'      -13.6270   15.4840   -3.2040 C.3   198  FMN198      0.2165
     23  O3'      -14.1080   16.5830   -2.4440 O.3   198  FMN198     -0.2175
     24  C4'      -14.4940   14.2750   -2.8670 C.3   198  FMN198      0.2147
     25  O4'      -14.3360   13.2160   -3.7790 O.3   198  FMN198     -0.2176
     26  C5'      -15.9490   14.6410   -2.9030 C.3   198  FMN198      0.1892
     27  O5'      -16.6640   13.5040   -2.4960 O.3   198  FMN198     -0.2674
     28  P        -17.8800   13.7720   -1.5100 P.3   198  FMN198      0.5327
     29  O1P      -18.8440   14.7340   -2.1790 O.2   198  FMN198     -0.2224
     30  O2P      -18.6280   12.5220   -1.2230 O.3   198  FMN198     -0.1145
     31  O3P      -17.3600   14.4450   -0.2700 O.3   198  FMN198     -0.1145
@<TRIPOS>BOND
     1     3     2    2
     2     2     4    2
     3     2     1    2
     4     4     5    2
     5     1    18    2
     6    25    24    1
     7     5     6    2
     8     5     7    1
     9    18     7    1
    10    18    17    1
    11    19    20    1
    12    19    17    1
    13    22    24    1
    14    22    20    1
    15    22    23    1
    16    21    20    1
    17    26    24    1
    18    26    27    1
    19     7     8    2
    20    17    16    1
    21    27    28    1
    22    29    28    2
    23     8     9    2
    24    28    30    1
    25    28    31    1
    26    16     9    1
    27    16    15    2
    28     9    10    1
    29    15    13    1
    30    10    11    2
    31    13    11    1
    32    13    14    1
    33    11    12    1
