@<TRIPOS>MOLECULE
2r9c_GRD_A_1.pdb
 40 42 0 0 0
SMALL
GASTEIGER

@<TRIPOS>ATOM
      1  C4        -2.8980    4.0540   23.2430 C.2     1  GRD1        0.3501
      2  C5        -2.1650    3.1780   22.4660 C.2     1  GRD1        0.2525
      3  C6        -1.4810    2.1530   23.1020 C.2     1  GRD1        0.4393
      4  C8        -3.1130    4.6140   21.1540 C.3     1  GRD1        0.3359
      5  N1        -1.5240    2.0540   24.4640 N.2     1  GRD1        0.0021
      6  N3        -2.9220    3.9350   24.6100 N.2     1  GRD1       -0.0055
      7  CAN      -18.8200   11.1120   19.0550 C.ar    1  GRD1       -0.0002
      8  CAL      -18.3550   12.4170   18.8310 C.ar    1  GRD1       -0.0000
      9  CAU       -6.5420    5.4240   21.9980 C.3     1  GRD1        0.1195
     10  CBM      -17.2370   10.8790   20.8780 C.ar    1  GRD1        0.0213
     11  CAQ      -18.2600   10.3440   20.0840 C.ar    1  GRD1       -0.0007
     12  CAA      -11.4670    8.5010   23.0620 C.3     1  GRD1        0.0019
     13  OAH      -13.6420    6.9190   20.7290 O.2     1  GRD1       -0.2715
     14  OAG      -15.2990    8.1460   23.3870 O.2     1  GRD1       -0.2245
     15  CAS      -10.6740    7.2160   23.0900 C.3     1  GRD1        0.0248
     16  CAT       -5.7210    5.7510   23.2230 C.3     1  GRD1        0.0743
     17  N7        -2.3150    3.5430   21.1560 N.2     1  GRD1       -0.2096
     18  N9        -3.4720    4.9350   22.4060 N.pl3   1  GRD1       -0.1675
     19  C2        -2.2270    2.9360   25.2110 C.3     1  GRD1        0.5254
     20  N6        -0.7760    1.2540   22.3740 N.pl3   1  GRD1        0.2180
     21  OAI       -8.8080    5.7350   20.3540 O.2     1  GRD1       -0.2705
     22  CBK       -8.9420    5.3170   21.4930 C.2     1  GRD1        0.2736
     23  N1C       -7.9410    5.1380   22.3450 N.am    1  GRD1       -0.2031
     24  CAV       -4.3000    6.0810   22.7820 C.3     1  GRD1        0.2060
     25  CBU      -10.3350    4.9900   21.9510 C.3     1  GRD1        0.2487
     26  OAJ      -10.2880    4.2090   23.1660 O.3     1  GRD1       -0.2113
     27  CBS      -11.1770    6.2520   21.9910 C.3     1  GRD1        0.1347
     28  N1E      -12.5350    5.7980   22.3560 N.am    1  GRD1       -0.2026
     29  CBJ      -13.6390    6.1740   21.7110 C.2     1  GRD1        0.2614
     30  CBR      -14.9450    5.6430   22.2610 C.3     1  GRD1        0.1761
     31  CAY      -15.2350    4.3090   21.5680 C.3     1  GRD1        0.0312
     32  CBP      -16.5410    3.6450   22.0050 C.3     1  GRD1        0.0022
     33  CAB      -16.7160    2.3280   21.2500 C.3     1  GRD1        0.0001
     34  CAC      -16.5640    3.4140   23.5150 C.3     1  GRD1        0.0001
     35  N1D      -16.0120    6.5770   21.9350 N.am    1  GRD1       -0.1611
     36  CBI      -16.0820    7.7860   22.5240 C.2     1  GRD1        0.4218
     37  OBF      -17.1350    8.7020   22.1590 O.3     1  GRD1       -0.4285
     38  CAW      -16.6450   10.0580   21.9620 C.3     1  GRD1        0.2368
     39  CAP      -16.7710   12.1790   20.6490 C.ar    1  GRD1       -0.0007
     40  CAM      -17.3300   12.9520   19.6210 C.ar    1  GRD1       -0.0002
@<TRIPOS>BOND
     1     8     7   ar
     2     8    40   ar
     3     7    11   ar
     4    40    39   ar
     5    11    10   ar
     6    21    22    2
     7    39    10   ar
     8    13    29    2
     9    10    38    1
    10     4    17    1
    11     4    18    1
    12    17     2    2
    13    33    32    1
    14    22    25    1
    15    22    23   am
    16    31    32    1
    17    31    30    1
    18    29    30    1
    19    29    28   am
    20    35    30    1
    21    35    36   am
    22    25    27    1
    23    25    26    1
    24    38    37    1
    25    27    28    1
    26    27    15    1
    27     9    23    1
    28     9    16    1
    29    32    34    1
    30    37    36    1
    31    20     3    1
    32    18    24    1
    33    18     1    1
    34     2     3    1
    35     2     1    1
    36    36    14    2
    37    24    16    1
    38    12    15    1
    39     3     5    2
    40     1     6    2
    41     5    19    1
    42     6    19    1
