@<TRIPOS>MOLECULE
2r9f_K2Z_A_1.pdb
 37 38 0 0 0
SMALL
GASTEIGER

@<TRIPOS>ATOM
      1  CAU       -2.7420    3.6010   23.0790 C.3   367  K2Z367      0.0897
      2  CAS       -1.7850    2.4820   22.6450 C.3   367  K2Z367      0.0897
      3  NBK       -0.6360    3.0670   21.9370 N.3   367  K2Z367     -0.2691
      4  CAE        0.2700    1.9770   21.5230 C.3   367  K2Z367      0.0897
      5  CAT       -1.1160    3.8040   20.7560 C.3   367  K2Z367      0.0897
      6  CAV       -2.0530    4.9360   21.2250 C.3   367  K2Z367      0.0897
      7  NBL       -3.2240    4.3590   21.9040 N.3   367  K2Z367     -0.2703
      8  CAR       -4.1530    5.4480   22.2910 C.3   367  K2Z367      0.0740
      9  CAP       -5.5390    4.8880   22.6680 C.3   367  K2Z367      0.0407
     10  CAQ       -6.6340    5.6950   21.9850 C.3   367  K2Z367      0.1167
     11  NAY       -8.0060    5.2520   22.3500 N.am  367  K2Z367     -0.2032
     12  CBF       -8.9830    5.2860   21.4420 C.2   367  K2Z367      0.2736
     13  OAH       -8.8350    5.6550   20.2830 O.2   367  K2Z367     -0.2705
     14  CBM      -10.3960    4.8750   21.8830 C.3   367  K2Z367      0.2487
     15  OAI      -10.4380    4.1040   23.1000 O.3   367  K2Z367     -0.2113
     16  CBJ      -11.2780    6.1310   21.9560 C.3   367  K2Z367      0.1347
     17  CAO      -10.7530    7.2030   22.9510 C.3   367  K2Z367      0.0248
     18  CAA      -11.6230    8.4740   22.9340 C.3   367  K2Z367      0.0019
     19  NBA      -12.6380    5.6880   22.3030 N.am  367  K2Z367     -0.2026
     20  C        -13.7000    6.1030   21.6140 C.2   367  K2Z367      0.2614
     21  O        -13.6490    6.8890   20.6570 O.2   367  K2Z367     -0.2715
     22  CA       -15.0450    5.5410   22.1190 C.3   367  K2Z367      0.1761
     23  CB       -15.3480    4.2320   21.3700 C.3   367  K2Z367      0.0312
     24  CG       -16.6300    3.5400   21.8770 C.3   367  K2Z367      0.0022
     25  CD2      -16.8090    2.2120   21.1300 C.3   367  K2Z367      0.0001
     26  CD1      -16.6140    3.2700   23.3910 C.3   367  K2Z367      0.0001
     27  N        -16.0880    6.5370   21.8600 N.am  367  K2Z367     -0.1611
     28  CBD      -16.1170    7.7260   22.4760 C.2   367  K2Z367      0.4218
     29  OAF      -15.2990    8.0450   23.3520 O.2   367  K2Z367     -0.2245
     30  OBB      -17.1240    8.5710   22.1220 O.3   367  K2Z367     -0.4285
     31  CAW      -16.8410    9.9920   22.2900 C.3   367  K2Z367      0.2368
     32  CBG      -17.1990   10.9160   21.2960 C.ar  367  K2Z367      0.0213
     33  CAM      -18.4120   10.7850   20.6050 C.ar  367  K2Z367     -0.0007
     34  CAK      -18.7650   11.7140   19.6160 C.ar  367  K2Z367     -0.0002
     35  CAJ      -17.9000   12.7750   19.3160 C.ar  367  K2Z367     -0.0000
     36  CAL      -16.6890   12.9080   20.0050 C.ar  367  K2Z367     -0.0002
     37  CAN      -16.3410   11.9810   20.9940 C.ar  367  K2Z367     -0.0007
@<TRIPOS>BOND
     1    35    34   ar
     2    35    36   ar
     3    34    33   ar
     4    36    37   ar
     5    13    12    2
     6    33    32   ar
     7    21    20    2
     8     5     6    1
     9     5     3    1
    10    37    32   ar
    11    25    24    1
    12     6     7    1
    13    32    31    1
    14    23    24    1
    15    23    22    1
    16    12    14    1
    17    12    11   am
    18     4     3    1
    19    20    22    1
    20    20    19   am
    21    27    22    1
    22    27    28   am
    23    24    26    1
    24    14    16    1
    25    14    15    1
    26     7     8    1
    27     7     1    1
    28     3     2    1
    29    16    19    1
    30    16    17    1
    31    10    11    1
    32    10     9    1
    33    30    31    1
    34    30    28    1
    35     8     9    1
    36    28    29    2
    37     2     1    1
    38    18    17    1
