@<TRIPOS>MOLECULE
2r9m_Y11_A_1.pdb
 29 31 0 0 0
SMALL
GASTEIGER

@<TRIPOS>ATOM
      1  C01       61.3310   36.1020   62.8230 C.2   281  Y11281      0.3238
      2  C02       59.2690   37.3430   62.3390 C.3   281  Y11281      0.1271
      3  C03       58.8430   38.2930   61.2280 C.3   281  Y11281      0.1637
      4  C04       59.7360   36.9080   59.5530 C.3   281  Y11281      0.1637
      5  C05       60.2550   35.8810   60.5720 C.3   281  Y11281      0.1271
      6  O06       61.2850   36.4360   64.0110 O.2   281  Y11281     -0.2508
      7  O07       58.5680   37.5640   60.0420 O.3   281  Y11281     -0.3501
      8  N08       60.3440   36.4300   61.9280 N.am  281  Y11281     -0.2577
      9  N09       62.3570   35.3790   62.3690 N.am  281  Y11281     -0.1808
     10  C10       63.4590   35.0310   63.2860 C.3   281  Y11281      0.1743
     11  C11       64.4500   34.0740   62.6200 C.3   281  Y11281      0.0312
     12  C12       63.7860   32.8280   62.0240 C.3   281  Y11281      0.0022
     13  C13       64.8370   31.8880   61.4310 C.3   281  Y11281      0.0001
     14  C14       64.2260   30.6440   60.7980 C.3   281  Y11281      0.0000
     15  C15       63.3720   29.8580   61.8190 C.3   281  Y11281      0.0000
     16  C16       62.3490   30.7690   62.5580 C.3   281  Y11281      0.0000
     17  C17       63.0280   32.0520   63.1030 C.3   281  Y11281      0.0001
     18  C18       64.1760   36.3170   63.7160 C.2   281  Y11281      0.2615
     19  O19       64.4530   37.1700   62.8840 O.2   281  Y11281     -0.2715
     20  N20       64.4700   36.4330   65.0140 N.am  281  Y11281     -0.2015
     21  C21       64.3930   38.8910   65.1690 C.3   281  Y11281      0.0432
     22  C22       62.9040   38.9060   65.4720 C.3   281  Y11281      0.0742
     23  C23       63.3840   37.4030   67.4710 C.3   281  Y11281      0.0742
     24  C24       64.8820   37.5390   67.1370 C.3   281  Y11281      0.0432
     25  N25       62.5730   38.5260   66.8800 N.3   281  Y11281     -0.2714
     26  C26       61.1170   38.1810   66.9530 C.3   281  Y11281      0.0896
     27  C27       66.6000   37.7470   65.3290 C.2   281  Y11281      0.1151
     28  N28       67.3300   38.7740   65.7340 N.2   281  Y11281     -0.1496
     29  C29       65.1060   37.6190   65.6310 C.3   281  Y11281      0.1192
@<TRIPOS>BOND
     1     4     7    1
     2     4     5    1
     3     7     3    1
     4     5     8    1
     5    14    13    1
     6    14    15    1
     7     3     2    1
     8    13    12    1
     9    15    16    1
    10     8     2    1
    11     8     1   am
    12    12    11    1
    13    12    17    1
    14     9     1   am
    15     9    10    1
    16    16    17    1
    17    11    10    1
    18     1     6    2
    19    19    18    2
    20    10    18    1
    21    18    20   am
    22    20    29    1
    23    21    22    1
    24    21    29    1
    25    27    29    1
    26    27    28    2
    27    22    25    1
    28    29    24    1
    29    25    26    1
    30    25    23    1
    31    24    23    1
