@<TRIPOS>MOLECULE
2r9n_Y14_A_1.pdb
 34 37 0 0 0
SMALL
GASTEIGER

@<TRIPOS>ATOM
      1  C01       61.4210   36.1630   62.5680 C.2   281  Y14281      0.3238
      2  C02       59.4370   37.5050   62.0490 C.3   281  Y14281      0.1271
      3  C03       59.0480   38.4170   60.8930 C.3   281  Y14281      0.1637
      4  C04       59.8240   36.8780   59.2870 C.3   281  Y14281      0.1637
      5  C05       60.2960   35.8680   60.3490 C.3   281  Y14281      0.1271
      6  O06       61.4130   36.5680   63.7350 O.2   281  Y14281     -0.2508
      7  O07       58.7060   37.6330   59.7610 O.3   281  Y14281     -0.3501
      8  N08       60.4390   36.4950   61.6710 N.am  281  Y14281     -0.2577
      9  N09       62.3990   35.3580   62.1440 N.am  281  Y14281     -0.1808
     10  C10       63.4870   34.9900   63.0690 C.3   281  Y14281      0.1743
     11  C11       64.4810   34.0340   62.3990 C.3   281  Y14281      0.0312
     12  C12       63.8720   32.7410   61.8540 C.3   281  Y14281      0.0022
     13  C13       64.9520   31.8060   61.2900 C.3   281  Y14281      0.0001
     14  C14       64.3960   30.4770   60.7580 C.3   281  Y14281      0.0000
     15  C15       63.5620   29.7570   61.8210 C.3   281  Y14281      0.0000
     16  C16       62.5150   30.6890   62.4750 C.3   281  Y14281      0.0000
     17  C17       63.1490   31.9980   62.9700 C.3   281  Y14281      0.0001
     18  C18       64.2090   36.2750   63.5150 C.2   281  Y14281      0.2615
     19  O19       64.5460   37.1180   62.6830 O.2   281  Y14281     -0.2715
     20  C20       65.1950   37.4860   66.9250 C.3   281  Y14281      0.0984
     21  C21       64.1230   38.8080   65.3120 C.3   281  Y14281      0.0445
     22  C22       63.1340   38.5180   66.4630 C.3   281  Y14281      0.0746
     23  N23       64.4510   36.4090   64.8200 N.am  281  Y14281     -0.2002
     24  N24       63.8310   37.5800   67.3660 N.3   281  Y14281     -0.2671
     25  C25       63.6960   37.9910   68.7630 C.3   281  Y14281      0.0992
     26  C26       64.5350   37.1600   69.7280 C.ar  281  Y14281     -0.0061
     27  C27       65.0570   37.7520   70.8820 C.ar  281  Y14281     -0.0029
     28  C28       65.8000   37.0000   71.8100 C.ar  281  Y14281     -0.0003
     29  C29       66.0240   35.6410   71.5820 C.ar  281  Y14281     -0.0000
     30  C30       65.5100   35.0410   70.4310 C.ar  281  Y14281     -0.0003
     31  C31       64.7730   35.7970   69.5140 C.ar  281  Y14281     -0.0029
     32  C32       66.4990   37.9530   64.8830 C.2   281  Y14281      0.1165
     33  N33       67.3570   38.8070   65.4080 N.2   281  Y14281     -0.1496
     34  C34       65.0970   37.6340   65.4090 C.3   281  Y14281      0.1324
@<TRIPOS>BOND
     1     4     7    1
     2     4     5    1
     3     7     3    1
     4     5     8    1
     5    14    13    1
     6    14    15    1
     7     3     2    1
     8    13    12    1
     9     8     2    1
    10     8     1   am
    11    15    16    1
    12    12    11    1
    13    12    17    1
    14     9     1   am
    15     9    10    1
    16    11    10    1
    17    16    17    1
    18     1     6    2
    19    19    18    2
    20    10    18    1
    21    18    23   am
    22    23    34    1
    23    32    33    2
    24    32    34    1
    25    21    34    1
    26    21    22    1
    27    34    20    1
    28    22    24    1
    29    20    24    1
    30    24    25    1
    31    25    26    1
    32    31    26   ar
    33    31    30   ar
    34    26    27   ar
    35    30    29   ar
    36    27    28   ar
    37    29    28   ar
