@<TRIPOS>MOLECULE
2r9o_Y15_A_1.pdb
 33 35 0 0 0
SMALL
GASTEIGER

@<TRIPOS>ATOM
      1  C01       61.3750   36.2260   62.6880 C.2   281  Y15281      0.3238
      2  C02       59.3960   37.5570   62.1350 C.3   281  Y15281      0.1271
      3  C03       58.9600   38.4470   60.9720 C.3   281  Y15281      0.1637
      4  C04       59.7930   36.9390   59.3720 C.3   281  Y15281      0.1637
      5  C05       60.2920   35.9400   60.4360 C.3   281  Y15281      0.1271
      6  O06       61.3040   36.5860   63.8690 O.2   281  Y15281     -0.2508
      7  O07       58.6490   37.6460   59.8410 O.3   281  Y15281     -0.3501
      8  N08       60.4090   36.5560   61.7660 N.am  281  Y15281     -0.2577
      9  N09       62.4030   35.4740   62.2750 N.am  281  Y15281     -0.1808
     10  C10       63.4940   35.1160   63.2100 C.3   281  Y15281      0.1743
     11  C11       64.4630   34.1150   62.5610 C.3   281  Y15281      0.0312
     12  C12       63.8400   32.8180   62.0220 C.3   281  Y15281      0.0022
     13  C13       64.9160   31.8440   61.5180 C.3   281  Y15281      0.0001
     14  C14       64.3310   30.5290   60.9910 C.3   281  Y15281      0.0000
     15  C15       63.4610   29.8480   62.0360 C.3   281  Y15281      0.0000
     16  C16       62.4080   30.8020   62.6110 C.3   281  Y15281      0.0000
     17  C17       63.0560   32.0990   63.1190 C.3   281  Y15281      0.0001
     18  C18       64.2590   36.3890   63.6610 C.2   281  Y15281      0.2616
     19  O19       64.6450   37.2140   62.8360 O.2   281  Y15281     -0.2715
     20  C20       65.2340   37.5340   67.0900 C.3   281  Y15281      0.1682
     21  C21       64.3050   38.9790   65.3200 C.3   281  Y15281      0.0305
     22  N22       64.4820   36.5230   64.9720 N.am  281  Y15281     -0.1991
     23  O23       63.9830   37.1300   67.6140 O.3   281  Y15281     -0.3468
     24  C24       63.7240   37.7410   68.8780 C.3   281  Y15281      0.1687
     25  C25       64.7460   37.2920   69.8760 C.ar  281  Y15281      0.0073
     26  C26       65.1880   38.1590   70.8640 C.ar  281  Y15281     -0.0019
     27  C27       66.1270   37.7500   71.7940 C.ar  281  Y15281     -0.0002
     28  C28       66.6380   36.4660   71.7430 C.ar  281  Y15281     -0.0000
     29  C29       66.2070   35.5860   70.7560 C.ar  281  Y15281     -0.0002
     30  C30       65.2670   36.0040   69.8290 C.ar  281  Y15281     -0.0019
     31  C31       66.5350   37.9690   65.0890 C.2   281  Y15281      0.1175
     32  N32       67.3500   38.9300   65.5100 N.2   281  Y15281     -0.1496
     33  C33       65.1380   37.7050   65.5820 C.3   281  Y15281      0.1437
@<TRIPOS>BOND
     1     4     7    1
     2     4     5    1
     3     7     3    1
     4     5     8    1
     5     3     2    1
     6    14    13    1
     7    14    15    1
     8    13    12    1
     9     8     2    1
    10     8     1   am
    11    12    11    1
    12    12    17    1
    13    15    16    1
    14     9     1   am
    15     9    10    1
    16    11    10    1
    17    16    17    1
    18     1     6    2
    19    19    18    2
    20    10    18    1
    21    18    22   am
    22    22    33    1
    23    31    32    2
    24    31    33    1
    25    21    33    1
    26    33    20    1
    27    20    23    1
    28    23    24    1
    29    24    25    1
    30    30    25   ar
    31    30    29   ar
    32    25    26   ar
    33    29    28   ar
    34    26    27   ar
    35    28    27   ar
