@<TRIPOS>MOLECULE
2r9q_III_X_1.pdb
 44 44 0 0 0
SMALL
GASTEIGER

@<TRIPOS>ATOM
      1  N         11.6870   34.4830   32.1400 N.3   1000  SER1000    -0.1202
      2  CA        11.2720   33.2340   31.4480 C.3   1000  SER1000     0.2020
      3  C         11.7590   33.1940   29.9920 C.2   1000  SER1000     0.2619
      4  O         11.9580   32.1070   29.4320 O.2   1000  SER1000    -0.2717
      5  CB         9.7580   33.0550   31.5370 C.3   1000  SER1000     0.2103
      6  OG         9.3170   31.8880   30.8640 O.3   1000  SER1000    -0.2182
      7  N         11.9440   34.3640   29.3760 N.am  1001  ASN1001    -0.1960
      8  CA        12.8460   34.4580   28.2190 C.3   1001  ASN1001     0.1804
      9  C         14.2220   34.8980   28.7630 C.2   1001  ASN1001     0.2463
     10  O         14.2930   35.7650   29.6260 O.2   1001  ASN1001    -0.2730
     11  CB        12.2560   35.3330   27.0840 C.3   1001  ASN1001     0.1195
     12  CG        12.8870   36.7260   26.9590 C.2   1001  ASN1001     0.2630
     13  OD1       12.1770   37.7190   26.8900 O.2   1001  ASN1001    -0.2716
     14  ND2       14.2030   36.7950   26.8690 N.am  1001  ASN1001    -0.0877
     15  N         15.3120   34.2390   28.3350 N.am  1002  PRO1002    -0.2716
     16  CA        16.6190   34.5930   28.8950 C.3   1002  PRO1002     0.1536
     17  C         17.2490   35.8760   28.3460 C.2   1002  PRO1002     0.2598
     18  O         16.6610   36.5540   27.5140 O.2   1002  PRO1002    -0.2715
     19  CB        17.4860   33.3840   28.5290 C.3   1002  PRO1002     0.0310
     20  CG        16.5330   32.3500   28.0000 C.3   1002  PRO1002     0.0237
     21  CD        15.4270   33.1130   27.4030 C.3   1002  PRO1002     0.0939
     22  N         18.4250   36.2160   28.8660 N.am  1003  ALA1003    -0.1964
     23  CA        19.2970   37.2160   28.2470 C.3   1003  ALA1003     0.1728
     24  C         20.1520   36.4400   27.2450 C.2   1003  ALA1003     0.2616
     25  O         20.4080   35.2670   27.4660 O.2   1003  ALA1003    -0.2715
     26  CB        20.1530   37.8910   29.2940 C.3   1003  ALA1003     0.0334
     27  N         20.6180   37.0330   26.1520 N.am  1004  CYS1004    -0.1954
     28  CA        20.6880   38.4710   25.8870 C.3   1004  CYS1004     0.1843
     29  C         19.3700   39.0340   25.3220 C.2   1004  CYS1004     0.2625
     30  O         18.7260   38.4190   24.4860 O.2   1004  CYS1004    -0.2714
     31  CB        21.8250   38.6960   24.8640 C.3   1004  CYS1004     0.0997
     32  SG        22.9660   40.0250   25.1340 S.3   1004  CYS1004    -0.0797
     33  N         19.0090   40.2330   25.7530 N.am  1005  VAL1005    -0.1963
     34  CA        17.7020   40.8240   25.4500 C.3   1005  VAL1005     0.1727
     35  C         17.7910   41.9130   24.3730 C.2   1005  VAL1005     0.2616
     36  O         18.6080   42.8220   24.4720 O.2   1005  VAL1005    -0.2715
     37  CB        17.0650   41.3610   26.7660 C.3   1005  VAL1005     0.0290
     38  CG1       16.1610   42.5600   26.5260 C.3   1005  VAL1005     0.0023
     39  CG2       16.3370   40.2370   27.4650 C.3   1005  VAL1005     0.0023
     40  N         16.9530   41.8010   23.3440 N.am  1006  ALA1006    -0.1977
     41  CA        16.9110   42.7650   22.2460 C.3   1006  ALA1006     0.1597
     42  C         15.6370   43.5940   22.2960 C.2   1006  ALA1006     0.2287
     43  O         14.5730   43.1060   22.6660 O.2   1006  ALA1006    -0.2864
     44  CB        17.0140   42.0540   20.9290 C.3   1006  ALA1006     0.0319
@<TRIPOS>BOND
     1    44    41    1
     2    41    42    1
     3    41    40    1
     4    42    43    2
     5    40    35   am
     6    35    36    2
     7    35    34    1
     8    30    29    2
     9    31    32    1
    10    31    28    1
    11    29    33   am
    12    29    28    1
    13    34    33    1
    14    34    37    1
    15    28    27    1
    16    27    24   am
    17    38    37    1
    18    37    39    1
    19    14    12   am
    20    13    12    2
    21    12    11    1
    22    11     8    1
    23    24    25    2
    24    24    23    1
    25    21    20    1
    26    21    15    1
    27    18    17    2
    28    20    19    1
    29     8     9    1
    30     8     7    1
    31    23    22    1
    32    23    26    1
    33    15     9   am
    34    15    16    1
    35    17    22   am
    36    17    16    1
    37    19    16    1
    38     9    10    2
    39     7     3   am
    40     4     3    2
    41     3     2    1
    42     6     5    1
    43     2     5    1
    44     2     1    1
