@<TRIPOS>MOLECULE
2r9r_NAP_A_1.pdb
 48 52 0 0 0
SMALL
GASTEIGER

@<TRIPOS>ATOM
      1  PA       -22.6910   39.3100   74.3960 P.3   1001  NAP1001     0.2189
      2  O1A      -22.2870   38.4970   75.5640 O.3   1001  NAP1001    -0.4371
      3  O2A      -23.9270   40.0860   74.4450 O.2   1001  NAP1001    -0.5170
      4  O5B      -22.6500   38.3030   73.1620 O.3   1001  NAP1001    -0.3112
      5  C5B      -23.0180   38.8090   71.8470 C.3   1001  NAP1001     0.1813
      6  C4B      -22.9950   37.6370   70.8910 C.3   1001  NAP1001     0.1820
      7  O4B      -24.0510   36.6410   71.3010 O.3   1001  NAP1001    -0.3136
      8  C3B      -23.3260   37.9520   69.4420 C.3   1001  NAP1001     0.2157
      9  O3B      -22.1030   38.1410   68.7140 O.3   1001  NAP1001    -0.2175
     10  C2B      -24.0930   36.7300   68.9800 C.3   1001  NAP1001     0.2314
     11  O2B      -23.1460   35.7200   68.6450 O.3   1001  NAP1001    -0.2630
     12  C1B      -24.8920   36.3330   70.1690 C.3   1001  NAP1001     0.3158
     13  N9A      -26.2230   36.9760   70.3270 N.pl3 1001  NAP1001    -0.1439
     14  C8A      -26.5400   38.2820   70.6880 C.3   1001  NAP1001     0.3377
     15  N7A      -27.8440   38.5410   70.7370 N.2   1001  NAP1001    -0.2095
     16  C5A      -28.4060   37.3570   70.3930 C.2   1001  NAP1001     0.2526
     17  C6A      -29.7610   36.9710   70.2500 C.2   1001  NAP1001     0.4393
     18  N6A      -30.7930   37.8110   70.4510 N.pl3 1001  NAP1001     0.2180
     19  N1A      -29.9800   35.6770   69.8840 N.2   1001  NAP1001     0.0021
     20  C2A      -29.0020   34.7990   69.6620 C.3   1001  NAP1001     0.5254
     21  N3A      -27.6710   35.0580   69.7630 N.2   1001  NAP1001    -0.0055
     22  C4A      -27.4210   36.3760   70.1380 C.2   1001  NAP1001     0.3518
     23  O3       -21.4720   40.3150   74.0730 O.3   1001  NAP1001    -0.2703
     24  PN       -19.9680   40.3280   73.6390 P.3   1001  NAP1001     0.2189
     25  O1N      -19.8950   40.2810   72.1560 O.2   1001  NAP1001    -0.5170
     26  O2N      -19.2980   39.2250   74.3660 O.3   1001  NAP1001    -0.4371
     27  O5D      -19.4050   41.7170   74.2350 O.3   1001  NAP1001    -0.3112
     28  C5D      -19.9570   43.0100   73.8290 C.3   1001  NAP1001     0.1813
     29  C4D      -18.8860   44.0490   73.7020 C.3   1001  NAP1001     0.1799
     30  O4D      -18.2100   44.2300   74.9790 O.3   1001  NAP1001    -0.3327
     31  C3D      -17.7410   43.7600   72.7380 C.3   1001  NAP1001     0.2158
     32  O3D      -18.0820   43.8090   71.4090 O.3   1001  NAP1001    -0.2175
     33  C2D      -16.7340   44.7590   73.2230 C.3   1001  NAP1001     0.2309
     34  O2D      -17.0490   46.0350   72.6910 O.3   1001  NAP1001    -0.2158
     35  C1D      -16.9100   44.6850   74.7470 C.3   1001  NAP1001     0.2263
     36  N1N      -15.8850   43.8040   75.4240 N.pl3 1001  NAP1001    -0.2787
     37  C2N      -14.9890   44.4050   76.2700 C.3   1001  NAP1001     0.1244
     38  C3N      -13.9920   43.6830   76.9020 C.2   1001  NAP1001     0.0544
     39  C7N      -13.0040   44.3190   77.8180 C.2   1001  NAP1001     0.2818
     40  O7N      -11.9550   43.7080   78.0790 O.2   1001  NAP1001    -0.2670
     41  N7N      -13.3430   45.5210   78.2980 N.am  1001  NAP1001    -0.0839
     42  C4N      -13.8830   42.2590   76.6710 C.2   1001  NAP1001     0.0033
     43  C5N      -14.8100   41.6200   75.8030 C.2   1001  NAP1001     0.0157
     44  C6N      -15.7980   42.3740   75.1820 C.2   1001  NAP1001     0.0633
     45  P2B      -23.3260   34.6300   67.4810 P.3   1001  NAP1001     0.5328
     46  O1X      -23.6020   33.3470   68.2070 O.3   1001  NAP1001    -0.1145
     47  O2X      -24.4700   35.2210   66.6890 O.2   1001  NAP1001    -0.2224
     48  O3X      -22.0560   34.5960   66.7040 O.3   1001  NAP1001    -0.1145
@<TRIPOS>BOND
     1    47    45    2
     2    48    45    1
     3    45    46    1
     4    45    11    1
     5    11    10    1
     6     9     8    1
     7    10     8    1
     8    10    12    1
     9     8     6    1
    10    20    21    1
    11    20    19    1
    12    21    22    2
    13    19    17    2
    14    22    13    1
    15    22    16    1
    16    12    13    1
    17    12     7    1
    18    17    16    1
    19    17    18    1
    20    13    14    1
    21    16    15    2
    22    14    15    1
    23     6     7    1
    24     6     5    1
    25    32    31    1
    26     5     4    1
    27    25    24    2
    28    34    33    1
    29    31    33    1
    30    31    29    1
    31     4     1    1
    32    33    35    1
    33    24    23    1
    34    24    27    1
    35    24    26    1
    36    29    28    1
    37    29    30    1
    38    28    27    1
    39    23     1    1
    40     1     3    2
    41     1     2    1
    42    35    30    1
    43    35    36    1
    44    44    36    1
    45    44    43    2
    46    36    37    1
    47    43    42    1
    48    37    38    1
    49    42    38    2
    50    38    39    1
    51    39    40    2
    52    39    41   am
