@<TRIPOS>MOLECULE
2r9r_PGW_B_1.pdb
 22 21 0 0 0
SMALL
GASTEIGER

@<TRIPOS>ATOM
      1  C01        0.3310   52.1460  180.9310 C.3   500  PGW500      0.2544
      2  C1         0.0480   54.3100  179.0860 C.2   500  PGW500      0.3171
      3  O01        1.0990   54.2480  179.9480 O.3   500  PGW500     -0.4456
      4  C02        0.8580   53.5490  181.1860 C.3   500  PGW500      0.2450
      5  C2         0.2570   54.9800  177.7240 C.3   500  PGW500      0.1096
      6  O02       -1.0240   53.7730  179.3570 O.2   500  PGW500     -0.2501
      7  C03        0.0560   54.3440  182.2210 C.3   500  PGW500      0.2293
      8  C3        -0.6570   54.4260  176.6320 C.3   500  PGW500      0.0116
      9  O03        1.2490   51.5720  179.9890 O.3   500  PGW500     -0.4444
     10  C4        -0.0630   54.8060  175.2740 C.3   500  PGW500      0.0006
     11  O04        0.1360   49.6020  180.0060 O.2   500  PGW500     -0.2501
     12  C5        -0.8860   54.3190  174.0800 C.3   500  PGW500      0.0000
     13  C6        -0.1350   54.6280  172.7830 C.3   500  PGW500      0.0000
     14  C7        -1.0090   54.3500  171.5590 C.3   500  PGW500      0.0000
     15  C8        -0.2700   54.6850  170.2610 C.3   500  PGW500      0.0000
     16  C9        -1.1930   54.4510  169.0640 C.3   500  PGW500      0.0000
     17  O11        0.7600   55.5160  182.6500 O.3   500  PGW500     -0.2162
     18  C19        0.7590   50.4590  179.3830 C.2   500  PGW500      0.3171
     19  C20        1.0530   50.3120  177.8890 C.3   500  PGW500      0.1096
     20  C21       -0.0530   49.5670  177.1420 C.3   500  PGW500      0.0116
     21  C22        0.2120   49.6970  175.6410 C.3   500  PGW500      0.0006
     22  C23       -0.8470   48.9600  174.8220 C.3   500  PGW500      0.0000
@<TRIPOS>BOND
     1    16    15    1
     2    15    14    1
     3    14    13    1
     4    13    12    1
     5    12    10    1
     6    22    21    1
     7    10     8    1
     8    21    20    1
     9     8     5    1
    10    20    19    1
    11     5     2    1
    12    19    18    1
    13     2     6    2
    14     2     3    1
    15    18     9    1
    16    18    11    2
    17     3     4    1
    18     9     1    1
    19     1     4    1
    20     4     7    1
    21     7    17    1
