@<TRIPOS>MOLECULE
2r9s_255_A_1.pdb
 31 34 0 0 0
SMALL
GASTEIGER

@<TRIPOS>ATOM
      1  O25       12.7730   20.6790   23.0370 O.2   502  255502     -0.1516
      2  S31       14.2350   20.6540   23.8180 S.O2  502  255502      0.0767
      3  O26       14.3650   21.9860   24.7930 O.2   502  255502     -0.1516
      4  N24       15.5100   20.6620   22.6580 N.3   502  255502     -0.0807
      5  C30       15.4590   19.4310   21.8450 C.3   502  255502      0.0827
      6  C01       15.0560   19.7910   20.3990 C.3   502  255502      0.0194
      7  C02       16.8490   18.7560   21.8370 C.3   502  255502      0.0194
      8  C03       14.4150   18.4590   22.4410 C.3   502  255502      0.0194
      9  C20       14.3520   19.1500   24.8330 C.ar  502  255502      0.1235
     10  C13       13.1690   18.7210   25.7090 C.ar  502  255502      0.0199
     11  C11       13.2690   17.4540   26.5620 C.ar  502  255502      0.0011
     12  C17       14.5530   16.6140   26.5410 C.ar  502  255502     -0.0023
     13  C10       15.7360   17.0440   25.6650 C.ar  502  255502      0.0011
     14  C12       15.6360   18.3090   24.8120 C.ar  502  255502      0.0199
     15  C18       14.6540   15.3500   27.3940 C.2   502  255502     -0.0015
     16  C15       15.9820   14.9860   28.0760 C.3   502  255502      0.1512
     17  N22       16.0820   13.7330   28.9200 N.2   502  255502     -0.2692
     18  C28       14.8860   12.8480   29.0910 C.2   502  255502      0.0632
     19  C14       14.9890   11.5760   29.9500 C.2   502  255502      0.0150
     20  C06       13.7560   10.6620   30.1270 C.2   502  255502      0.0022
     21  C09       12.4210   11.0260   29.4440 C.2   502  255502      0.0129
     22  C27       12.3190   12.2950   28.5870 C.2   502  255502      0.0591
     23  C29       13.5560   13.2120   28.4090 C.3   502  255502      0.0991
     24  C16       13.4560   14.4640   27.5650 C.2   502  255502     -0.0171
     25  N23       11.0580   12.6350   27.9430 N.pl3 502  255502     -0.1978
     26  C19       10.3170   11.6160   27.2190 C.ar  502  255502      0.1515
     27  N21        8.9920   11.9420   26.6230 N.ar  502  255502     -0.2274
     28  C07        8.2230   10.8860   25.8720 C.ar  502  255502      0.1004
     29  C04        8.8050    9.4750   25.7220 C.ar  502  255502      0.0208
     30  C05       10.1390    9.1470   26.3210 C.ar  502  255502      0.0045
     31  C08       10.9040   10.1990   27.0690 C.ar  502  255502      0.0361
@<TRIPOS>BOND
     1     6     5    1
     2     7     5    1
     3     5     8    1
     4     5     4    1
     5     4     2    1
     6     1     2    2
     7     2     3    2
     8     2     9    1
     9    14     9   ar
    10    14    13   ar
    11     9    10   ar
    12    13    12   ar
    13    10    11   ar
    14    29    28   ar
    15    29    30   ar
    16    28    27   ar
    17    30    31   ar
    18    12    11   ar
    19    12    15    1
    20    27    26   ar
    21    31    26   ar
    22    26    25    1
    23    15    24    2
    24    15    16    1
    25    24    23    1
    26    25    22    1
    27    16    17    1
    28    23    22    1
    29    23    18    1
    30    22    21    2
    31    17    18    2
    32    18    19    1
    33    21    20    1
    34    19    20    2
