@<TRIPOS>MOLECULE
2r9v_ATP_A_1.pdb
 31 33 0 0 0
SMALL
GASTEIGER

@<TRIPOS>ATOM
      1  PG        60.9350    5.4250   83.3400 P.3   506  ATP506      0.5373
      2  O1G       62.1670    5.8160   82.5340 O.2   506  ATP506     -0.2221
      3  O2G       59.6290    5.9090   82.7190 O.3   506  ATP506     -0.1143
      4  O3G       60.8760    3.9540   83.7650 O.3   506  ATP506     -0.1143
      5  PB        60.5610    7.6770   85.1340 P.3   506  ATP506      0.2277
      6  O1B       61.5040    8.8440   84.7890 O.3   506  ATP506     -0.4368
      7  O2B       59.1310    7.7960   84.6680 O.2   506  ATP506     -0.5168
      8  O3B       61.1690    6.2440   84.7350 O.3   506  ATP506     -0.2258
      9  PA        59.2680    6.6500   87.5520 P.3   506  ATP506      0.2189
     10  O1A       59.1950    5.2780   86.9170 O.2   506  ATP506     -0.5170
     11  O2A       58.0350    7.4820   87.8660 O.3   506  ATP506     -0.4371
     12  O3A       60.4280    7.5100   86.7420 O.3   506  ATP506     -0.2700
     13  O5'       60.1420    6.5540   88.9280 O.3   506  ATP506     -0.3112
     14  C5'       61.4810    6.0090   89.0000 C.3   506  ATP506      0.1813
     15  C4'       61.6000    5.2390   90.3170 C.3   506  ATP506      0.1821
     16  O4'       61.6640    6.1380   91.4430 O.3   506  ATP506     -0.3135
     17  C3'       60.3740    4.3520   90.5730 C.3   506  ATP506      0.2184
     18  O3'       60.7770    3.1390   91.2070 O.3   506  ATP506     -0.2174
     19  C2'       59.4830    5.1850   91.4920 C.3   506  ATP506      0.2570
     20  O2'       58.5870    4.3800   92.2810 O.3   506  ATP506     -0.2130
     21  C1'       60.5190    5.9870   92.2970 C.3   506  ATP506      0.3186
     22  N9        60.0440    7.3360   92.7360 N.pl3 506  ATP506     -0.1439
     23  C8        59.4500    8.2870   91.9840 C.3   506  ATP506      0.3377
     24  N7        59.1610    9.4010   92.7050 N.2   506  ATP506     -0.2095
     25  C5        59.5820    9.1490   93.9650 C.2   506  ATP506      0.2526
     26  C6        59.5860    9.8940   95.2510 C.2   506  ATP506      0.4393
     27  N6        59.0570   11.1270   95.2690 N.pl3 506  ATP506      0.2180
     28  N1        60.1090    9.2850   96.3540 N.2   506  ATP506      0.0021
     29  C2        60.6420    8.0330   96.3050 C.3   506  ATP506      0.5254
     30  N3        60.6860    7.2920   95.1680 N.2   506  ATP506     -0.0055
     31  C4        60.1700    7.7900   93.9910 C.2   506  ATP506      0.3518
@<TRIPOS>BOND
     1     2     1    2
     2     3     1    1
     3     1     4    1
     4     1     8    1
     5     7     5    2
     6     8     5    1
     7     6     5    1
     8     5    12    1
     9    12     9    1
    10    10     9    2
    11     9    11    1
    12     9    13    1
    13    13    14    1
    14    14    15    1
    15    15    17    1
    16    15    16    1
    17    17    18    1
    18    17    19    1
    19    16    21    1
    20    19    20    1
    21    19    21    1
    22    23    24    1
    23    23    22    1
    24    21    22    1
    25    24    25    2
    26    22    31    1
    27    25    31    1
    28    25    26    1
    29    31    30    2
    30    30    29    1
    31    26    27    1
    32    26    28    2
    33    29    28    1
