@<TRIPOS>MOLECULE
2r9w_23C_A_1.pdb
 29 32 0 0 0
SMALL
GASTEIGER

@<TRIPOS>ATOM
      1  CD2       22.9090    9.3210   15.6750 C.ar  365  23C365     -0.0039
      2  CAN       22.4060    9.2820   16.9720 C.ar  365  23C365     -0.0003
      3  CAH       21.3400   10.0720   17.3400 C.ar  365  23C365     -0.0000
      4  CAG       20.7510   10.9320   16.4290 C.ar  365  23C365     -0.0000
      5  CAL       21.2410   10.9980   15.1300 C.ar  365  23C365     -0.0000
      6  CAX       22.3160   10.1940   14.7590 C.ar  365  23C365     -0.0003
      7  CAM       22.7950   10.2750   13.4610 C.ar  365  23C365     -0.0000
      8  CAI       23.8630    9.4750   13.0910 C.ar  365  23C365     -0.0003
      9  CD1       24.4450    8.6080   13.9970 C.ar  365  23C365     -0.0042
     10  CG        23.9950    8.5220   15.3010 C.ar  365  23C365     -0.0199
     11  CB        24.7120    7.5120   16.2130 C.3   365  23C365      0.0582
     12  CA        23.7960    6.2670   16.3550 C.3   365  23C365      0.1900
     13  C         24.3490    5.1940   17.3360 C.2   365  23C365      0.3832
     14  OXT       24.0970    5.3900   18.5510 O.co2 365  23C365     -0.2438
     15  O         24.9630    4.2210   16.8750 O.co2 365  23C365     -0.2438
     16  N         23.3960    5.7440   15.0260 N.am  365  23C365     -0.2133
     17  CAW       22.1140    5.6400   14.6600 C.2   365  23C365      0.2555
     18  OAD       21.1580    5.9120   15.3850 O.2   365  23C365     -0.2695
     19  CBA       22.0290    5.1580   13.3540 C.ar  365  23C365      0.0586
     20  CAP       20.9590    4.8580   12.5070 C.ar  365  23C365      0.0112
     21  CAT       21.2080    4.3710   11.2250 C.ar  365  23C365      0.0799
     22  CAR       20.0820    4.0090   10.2690 C.2   365  23C365      0.3878
     23  OAE       19.0120    3.5780   10.7470 O.co2 365  23C365     -0.2406
     24  OAA       20.3180    4.1100    9.0460 O.co2 365  23C365     -0.2406
     25  CAK       22.5210    4.1870   10.8070 C.ar  365  23C365      0.0067
     26  CAO       23.5720    4.4900   11.6530 C.ar  365  23C365      0.0049
     27  CAZ       23.3420    4.9770   12.9340 C.ar  365  23C365      0.0584
     28  CAV       24.1670    5.3610   13.9950 C.2   365  23C365      0.2555
     29  OAC       25.4050    5.3390   13.9930 O.2   365  23C365     -0.2695
@<TRIPOS>BOND
     1    24    22   ar
     2    22    23   ar
     3    22    21    1
     4    25    21   ar
     5    25    26   ar
     6    21    20   ar
     7    26    27   ar
     8    20    19   ar
     9    27    19   ar
    10    27    28    1
    11     8     7   ar
    12     8     9   ar
    13    19    17    1
    14     7     6   ar
    15    29    28    2
    16    28    16   am
    17     9    10   ar
    18    17    16   am
    19    17    18    2
    20     6     5   ar
    21     6     1   ar
    22    16    12    1
    23     5     4   ar
    24    10     1   ar
    25    10    11    1
    26     1     2   ar
    27    11    12    1
    28    12    13    1
    29     4     3   ar
    30    15    13   ar
    31     2     3   ar
    32    13    14   ar
