@<TRIPOS>MOLECULE
2r9x_WH6_A_1.pdb
 30 33 0 0 0
SMALL
GASTEIGER

@<TRIPOS>ATOM
      1  CAZ       21.9590    9.9130   15.1240 C.ar  365  WH6365     -0.0039
      2  CAN       21.8530   10.0300   16.5100 C.ar  365  WH6365     -0.0003
      3  CAH       20.7710   10.6810   17.0840 C.ar  365  WH6365     -0.0000
      4  CAG       19.7800   11.2260   16.2690 C.ar  365  WH6365     -0.0000
      5  CAL       19.8690   11.1200   14.8830 C.ar  365  WH6365     -0.0000
      6  CAY       20.9590   10.4600   14.3090 C.ar  365  WH6365     -0.0003
      7  CAM       21.0470   10.3510   12.9240 C.ar  365  WH6365     -0.0000
      8  CAI       22.1380    9.6910   12.3530 C.ar  365  WH6365     -0.0003
      9  CAJ       23.1350    9.1570   13.1590 C.ar  365  WH6365     -0.0042
     10  CAV       23.0560    9.2640   14.5530 C.ar  365  WH6365     -0.0205
     11  CAR       24.1660    8.6250   15.3810 C.3   365  WH6365      0.0472
     12  CBC       23.6920    7.2370   15.9160 C.3   365  WH6365      0.0986
     13  CAQ       24.8770    6.6180   16.6400 C.3   365  WH6365      0.1346
     14  CAS       24.4570    5.4100   17.4510 C.2   365  WH6365      0.3666
     15  OAE       24.9510    4.3190   17.1050 O.co2 365  WH6365     -0.2456
     16  OAA       23.6440    5.6090   18.3790 O.co2 365  WH6365     -0.2456
     17  N1        23.2260    6.5050   14.7210 N.am  365  WH6365     -0.2236
     18  CAX       21.9340    6.2910   14.3930 C.2   365  WH6365      0.2551
     19  OAD       20.9600    6.6080   15.0840 O.2   365  WH6365     -0.2695
     20  CBB       21.8700    5.6490   13.1470 C.ar  365  WH6365      0.0586
     21  CAP       20.8270    5.1780   12.3400 C.ar  365  WH6365      0.0112
     22  CAU       21.1210    4.5500   11.1240 C.ar  365  WH6365      0.0799
     23  CAT       20.0180    4.0090   10.1990 C.2   365  WH6365      0.3878
     24  OAF       20.1740    4.1220    8.9600 O.co2 365  WH6365     -0.2406
     25  OAB       19.0400    3.4550   10.7250 O.co2 365  WH6365     -0.2406
     26  CAK       22.4390    4.3950   10.7200 C.ar  365  WH6365      0.0067
     27  CAO       23.4770    4.8550   11.5240 C.ar  365  WH6365      0.0049
     28  CBA       23.1990    5.4840   12.7340 C.ar  365  WH6365      0.0584
     29  CAW       24.0050    6.0480   13.7300 C.2   365  WH6365      0.2551
     30  OAC       25.2410    6.0900   13.7190 O.2   365  WH6365     -0.2695
@<TRIPOS>BOND
     1    24    23   ar
     2    23    25   ar
     3    23    22    1
     4    26    22   ar
     5    26    27   ar
     6    22    21   ar
     7    27    28   ar
     8    21    20   ar
     9     8     7   ar
    10     8     9   ar
    11    28    20   ar
    12    28    29    1
    13     7     6   ar
    14    20    18    1
    15     9    10   ar
    16    30    29    2
    17    29    17   am
    18     6     5   ar
    19     6     1   ar
    20    18    17   am
    21    18    19    2
    22    10     1   ar
    23    10    11    1
    24    17    12    1
    25     5     4   ar
    26     1     2   ar
    27    11    12    1
    28    12    13    1
    29     4     3   ar
    30     2     3   ar
    31    13    14    1
    32    15    14   ar
    33    14    16   ar
