@<TRIPOS>MOLECULE
2ra0_JNJ_A_1.pdb
 39 44 0 0 0
SMALL
GASTEIGER

@<TRIPOS>ATOM
      1  C1        43.9070   51.2840   24.4330 C.ar    1  JNJ1        0.1591
      2  C2        43.3570   50.5290   23.3490 C.ar    1  JNJ1        0.0439
      3  C3        42.3530   50.7490   22.3340 C.ar    1  JNJ1        0.0034
      4  N6        44.2490   53.1180   25.9430 N.am    1  JNJ1       -0.0823
      5  C7        44.0370   49.2880   23.3870 C.ar    1  JNJ1        0.1117
      6  C8        41.7550   45.1730   18.7260 C.ar    1  JNJ1        0.0674
      7  C9        42.9750   45.8850   18.5390 C.ar    1  JNJ1        0.0472
      8  C10       43.3080   46.9630   19.4140 C.ar    1  JNJ1        0.1416
      9  C11       42.4380   47.3580   20.4880 C.ar    1  JNJ1        0.0298
     10  C12       41.2190   46.6270   20.6500 C.ar    1  JNJ1        0.0038
     11  C13       40.8840   45.5590   19.7890 C.ar    1  JNJ1        0.0177
     12  C14       40.4510   44.0180   16.8200 C.ar    1  JNJ1        0.1407
     13  C15       41.2780   42.0460   17.0630 C.ar    1  JNJ1        0.1192
     14  C16       41.8790   42.8110   18.0180 C.ar    1  JNJ1        0.1019
     15  C19       40.8700   46.3960   14.5900 C.3     1  JNJ1        0.0900
     16  C20       43.5490   52.6610   24.8590 C.2     1  JNJ1        0.3037
     17  C21       46.0410   46.3770   26.5150 C.ar    1  JNJ1        0.0766
     18  C22       45.2260   47.4270   25.9960 C.ar    1  JNJ1        0.0253
     19  C24       47.1000   48.1230   24.5260 C.ar    1  JNJ1        0.0224
     20  C27       45.9170   45.3320   27.4680 C.ar    1  JNJ1        0.2110
     21  N1        44.8600   50.5690   25.0910 N.ar    1  JNJ1       -0.1603
     22  N2        44.9260   49.3580   24.4540 N.ar    1  JNJ1       -0.2273
     23  C4        42.0540   49.7140   21.3900 C.ar    1  JNJ1        0.0025
     24  C5        42.7410   48.4580   21.4350 C.ar    1  JNJ1        0.0311
     25  C6        43.7350   48.2620   22.4420 C.ar    1  JNJ1        0.1577
     26  F1        44.3790   47.0830   22.4890 F       1  JNJ1       -0.2026
     27  F2        44.4740   47.6020   19.2050 F       1  JNJ1       -0.2041
     28  N3        41.3700   44.0850   17.8910 N.ar    1  JNJ1       -0.2911
     29  N4        40.4060   42.7850   16.3310 N.ar    1  JNJ1       -0.2276
     30  C17       39.6250   45.1900   16.2980 C.3     1  JNJ1        0.1375
     31  N5        40.4150   46.4210   15.9920 N.3     1  JNJ1       -0.2639
     32  C18       39.6070   47.6300   16.2050 C.3     1  JNJ1        0.0900
     33  O1        42.6960   53.3650   24.3130 O.2     1  JNJ1       -0.2649
     34  C23       45.7530   48.3080   24.9970 C.ar    1  JNJ1        0.0832
     35  C25       47.9310   47.0740   25.0380 C.ar    1  JNJ1        0.0418
     36  C26       47.3480   46.2340   26.0270 C.ar    1  JNJ1        0.1783
     37  O2        47.9370   45.1790   26.6530 O.2     1  JNJ1       -0.3520
     38  N7        47.0430   44.6110   27.5580 N.ar    1  JNJ1       -0.0586
     39  N8        44.8120   45.1060   28.1820 N.pl3   1  JNJ1       -0.1037
@<TRIPOS>BOND
     1    15    31    1
     2    31    32    1
     3    31    30    1
     4    30    12    1
     5    29    12   ar
     6    29    13   ar
     7    12    28   ar
     8    13    14   ar
     9    28    14   ar
    10    28     6    1
    11     7     6   ar
    12     7     8   ar
    13     6    11   ar
    14    27     8    1
    15     8     9   ar
    16    11    10   ar
    17     9    10   ar
    18     9    24    1
    19    23    24   ar
    20    23     3   ar
    21    24    25   ar
    22     3     2   ar
    23    25    26    1
    24    25     5   ar
    25     2     5   ar
    26     2     1   ar
    27     5    22   ar
    28    33    16    2
    29     1    16    1
    30     1    21   ar
    31    22    34    1
    32    22    21   ar
    33    19    34   ar
    34    19    35   ar
    35    16     4   am
    36    34    18   ar
    37    35    36   ar
    38    18    17   ar
    39    36    17   ar
    40    36    37   ar
    41    17    20   ar
    42    37    38   ar
    43    20    38   ar
    44    20    39    1
