@<TRIPOS>MOLECULE
2rab_NAD_A_1.pdb
 44 48 0 0 0
SMALL
GASTEIGER

@<TRIPOS>ATOM
      1  PA        20.1180   37.8590  115.5930 P.3   600  NAD600      0.2189
      2  O1A       20.0960   37.4050  114.1830 O.2   600  NAD600     -0.5170
      3  O2A       21.3400   37.3590  116.2760 O.3   600  NAD600     -0.4371
      4  O5B       20.0970   39.4730  115.6450 O.3   600  NAD600     -0.3112
      5  C5B       21.2910   40.1960  115.8750 C.3   600  NAD600      0.1813
      6  C4B       21.0240   41.6790  115.6760 C.3   600  NAD600      0.1821
      7  O4B       21.0250   42.3670  116.9110 O.3   600  NAD600     -0.3135
      8  C3B       22.0910   42.3480  114.8240 C.3   600  NAD600      0.2184
      9  O3B       21.5380   42.7200  113.5820 O.3   600  NAD600     -0.2174
     10  C2B       22.5050   43.5870  115.6050 C.3   600  NAD600      0.2570
     11  O2B       22.5420   44.7290  114.7790 O.3   600  NAD600     -0.2130
     12  C1B       21.4070   43.7060  116.6480 C.3   600  NAD600      0.3186
     13  N9A       21.7950   44.4790  117.8520 N.pl3 600  NAD600     -0.1439
     14  C8A       22.1640   43.9820  119.0770 C.3   600  NAD600      0.3377
     15  N7A       22.4150   45.0220  119.9080 N.2   600  NAD600     -0.2095
     16  C5A       22.2170   46.1820  119.2400 C.2   600  NAD600      0.2526
     17  C6A       22.3370   47.5230  119.6180 C.2   600  NAD600      0.4393
     18  N6A       22.3470   47.8460  120.9110 N.pl3 600  NAD600      0.2180
     19  N1A       22.0620   48.5110  118.6860 N.2   600  NAD600      0.0021
     20  C2A       21.6650   48.1700  117.4040 C.3   600  NAD600      0.5254
     21  N3A       21.5480   46.8390  117.0420 N.2   600  NAD600     -0.0055
     22  C4A       21.8190   45.8550  117.9440 C.2   600  NAD600      0.3518
     23  O3        18.7970   37.3220  116.3920 O.3   600  NAD600     -0.2703
     24  PN        17.2250   37.3050  115.9510 P.3   600  NAD600      0.2189
     25  O1N       17.0160   37.9910  114.6540 O.2   600  NAD600     -0.5170
     26  O2N       16.4480   37.7710  117.1240 O.3   600  NAD600     -0.4371
     27  O5D       16.8990   35.7380  115.7070 O.3   600  NAD600     -0.3112
     28  C5D       16.9890   34.7290  116.7000 C.3   600  NAD600      0.1813
     29  C4D       16.9820   33.3140  116.0930 C.3   600  NAD600      0.1799
     30  O4D       15.6630   32.8550  115.7930 O.3   600  NAD600     -0.3327
     31  C3D       17.8010   33.1840  114.8070 C.3   600  NAD600      0.2158
     32  O3D       19.0990   32.6740  115.0440 O.3   600  NAD600     -0.2175
     33  C2D       16.9930   32.2510  113.9140 C.3   600  NAD600      0.2309
     34  O2D       17.6120   30.9880  113.7550 O.3   600  NAD600     -0.2158
     35  C1D       15.6190   32.1190  114.5740 C.3   600  NAD600      0.2263
     36  N1N       14.6020   32.6450  113.6300 N.pl3 600  NAD600     -0.2787
     37  C2N       14.2430   31.9120  112.5200 C.3   600  NAD600      0.1244
     38  C3N       13.2980   32.3920  111.6000 C.2   600  NAD600      0.0544
     39  C7N       13.1100   31.7050  110.2660 C.2   600  NAD600      0.2818
     40  O7N       13.6670   30.4300  110.0540 O.2   600  NAD600     -0.2670
     41  N7N       12.4210   32.3030  109.2950 N.am  600  NAD600     -0.0839
     42  C4N       12.7090   33.6380  111.8270 C.2   600  NAD600      0.0033
     43  C5N       13.0720   34.3750  112.9500 C.2   600  NAD600      0.0157
     44  C6N       14.0190   33.8660  113.8430 C.2   600  NAD600      0.0633
@<TRIPOS>BOND
     1    41    39   am
     2    40    39    2
     3    39    38    1
     4    38    42    2
     5    38    37    1
     6    42    43    1
     7    37    36    1
     8    43    44    2
     9     9     8    1
    10    36    44    1
    11    36    35    1
    12    34    33    1
    13    33    35    1
    14    33    31    1
    15     2     1    2
    16    35    30    1
    17    25    24    2
    18    11    10    1
    19    31    32    1
    20    31    29    1
    21     8    10    1
    22     8     6    1
    23     1     4    1
    24     1     3    1
    25     1    23    1
    26    10    12    1
    27     4     5    1
    28     6     5    1
    29     6     7    1
    30    27    24    1
    31    27    28    1
    32    30    29    1
    33    24    23    1
    34    24    26    1
    35    29    28    1
    36    12     7    1
    37    12    13    1
    38    21    20    1
    39    21    22    2
    40    20    19    1
    41    13    22    1
    42    13    14    1
    43    22    16    1
    44    19    17    2
    45    14    15    1
    46    16    17    1
    47    16    15    2
    48    17    18    1
