@<TRIPOS>MOLECULE
2raf_NAP_A_1.pdb
 48 52 0 0 0
SMALL
GASTEIGER

@<TRIPOS>ATOM
      1  PA        40.1680   85.5190   61.9720 P.3   200  NAP200      0.2189
      2  O1A       41.2880   85.1940   62.8840 O.3   200  NAP200     -0.4371
      3  O2A       39.1220   86.4300   62.5320 O.2   200  NAP200     -0.5170
      4  O5B       40.6560   86.0680   60.5620 O.3   200  NAP200     -0.3112
      5  C5B       39.7370   86.3950   59.5610 C.3   200  NAP200      0.1813
      6  C4B       40.1960   87.7670   59.0800 C.3   200  NAP200      0.1820
      7  O4B       39.5650   88.0290   57.8440 O.3   200  NAP200     -0.3136
      8  C3B       39.8530   88.8800   60.0870 C.3   200  NAP200      0.2157
      9  O3B       40.9960   89.3930   60.7850 O.3   200  NAP200     -0.2175
     10  C2B       39.1590   89.9210   59.2220 C.3   200  NAP200      0.2314
     11  O2B       39.6500   91.2230   59.4250 O.3   200  NAP200     -0.2630
     12  C1B       39.4850   89.4570   57.8060 C.3   200  NAP200      0.3158
     13  N9A       38.5530   89.9140   56.7760 N.pl3 200  NAP200     -0.1439
     14  C8A       37.1700   89.9840   56.7990 C.3   200  NAP200      0.3377
     15  N7A       36.7440   90.4620   55.6050 N.2   200  NAP200     -0.2095
     16  C5A       37.8540   90.6770   54.8330 C.2   200  NAP200      0.2526
     17  C6A       38.0460   91.1730   53.5360 C.2   200  NAP200      0.4393
     18  N6A       36.9950   91.5020   52.7890 N.pl3 200  NAP200      0.2180
     19  N1A       39.3320   91.2960   53.0270 N.2   200  NAP200      0.0021
     20  C2A       40.4550   90.9300   53.7490 C.3   200  NAP200      0.5254
     21  N3A       40.2410   90.4760   55.0460 N.2   200  NAP200     -0.0055
     22  C4A       38.9810   90.3510   55.5630 C.2   200  NAP200      0.3518
     23  O3        39.5000   84.1200   61.5400 O.3   200  NAP200     -0.2703
     24  PN        40.2690   82.7560   61.0790 P.3   200  NAP200      0.2189
     25  O1N       41.4640   83.2590   60.4520 O.2   200  NAP200     -0.5170
     26  O2N       40.2770   81.8410   62.2560 O.3   200  NAP200     -0.4371
     27  O5D       39.2400   82.1760   59.9860 O.3   200  NAP200     -0.3112
     28  C5D       39.3090   82.5340   58.6310 C.3   200  NAP200      0.1813
     29  C4D       38.5500   81.4820   57.8230 C.3   200  NAP200      0.1799
     30  O4D       39.1780   80.2420   58.0560 O.3   200  NAP200     -0.3327
     31  C3D       37.1140   81.2810   58.2320 C.3   200  NAP200      0.2158
     32  O3D       36.3440   81.1360   57.0890 O.3   200  NAP200     -0.2175
     33  C2D       37.0990   80.0050   59.0580 C.3   200  NAP200      0.2309
     34  O2D       35.8890   79.2780   59.0110 O.3   200  NAP200     -0.2158
     35  C1D       38.2220   79.2510   58.3880 C.3   200  NAP200      0.2263
     36  N1N       38.9080   78.2380   59.1910 N.pl3 200  NAP200     -0.2787
     37  C2N       39.3500   78.5200   60.4660 C.3   200  NAP200      0.1244
     38  C3N       40.0500   77.5610   61.2120 C.2   200  NAP200      0.0544
     39  C7N       40.8060   77.9860   62.4650 C.2   200  NAP200      0.2818
     40  O7N       41.5420   77.0430   63.1760 O.2   200  NAP200     -0.2670
     41  N7N       40.7460   79.2620   62.9110 N.am  200  NAP200     -0.0839
     42  C4N       40.3140   76.2900   60.6220 C.2   200  NAP200      0.0033
     43  C5N       39.8790   76.0370   59.3180 C.2   200  NAP200      0.0157
     44  C6N       39.1720   77.0240   58.5910 C.2   200  NAP200      0.0633
     45  P2B       39.0540   92.2010   60.5600 P.3   200  NAP200      0.5328
     46  O1X       37.5580   92.3150   60.3340 O.2   200  NAP200     -0.2224
     47  O2X       39.7780   93.5300   60.3990 O.3   200  NAP200     -0.1145
     48  O3X       39.3100   91.6060   61.9330 O.3   200  NAP200     -0.1145
@<TRIPOS>BOND
     1    18    17    1
     2    19    17    2
     3    19    20    1
     4    17    16    1
     5    20    21    1
     6    16    22    1
     7    16    15    2
     8    21    22    2
     9    22    13    1
    10    15    14    1
    11    13    14    1
    12    13    12    1
    13    32    31    1
    14    12     7    1
    15    12    10    1
    16    29    30    1
    17    29    31    1
    18    29    28    1
    19     7     6    1
    20    30    35    1
    21    31    33    1
    22    35    33    1
    23    35    36    1
    24    44    36    1
    25    44    43    2
    26    28    27    1
    27    34    33    1
    28     6     5    1
    29     6     8    1
    30    36    37    1
    31    10    11    1
    32    10     8    1
    33    43    42    1
    34    11    45    1
    35     5     4    1
    36    27    24    1
    37     8     9    1
    38    46    45    2
    39    47    45    1
    40    25    24    2
    41    37    38    1
    42    45    48    1
    43     4     1    1
    44    42    38    2
    45    24    23    1
    46    24    26    1
    47    38    39    1
    48    23     1    1
    49     1     3    2
    50     1     2    1
    51    39    41   am
    52    39    40    2
