@<TRIPOS>MOLECULE
2rah_11P_A_1.pdb
 19 20 0 0 0
SMALL
GASTEIGER

@<TRIPOS>ATOM
      1  O5        16.1530  -32.7300   28.0220 O.3   356  11P356     -0.3553
      2  O6        17.4240  -34.0960   26.3010 O.2   356  11P356     -0.4572
      3  O7        16.0140  -35.1840   28.0930 O.3   356  11P356     -0.3553
      4  O8        15.0230  -36.7640   26.1770 O.3   356  11P356     -0.3553
      5  P4        16.1890  -33.9900   27.1810 P.3   356  11P356      0.1514
      6  C1        14.7900  -34.1490   26.0340 C.3   356  11P356      0.2196
      7  O2        13.7050  -34.3040   26.7810 O.3   356  11P356     -0.2105
      8  P1        15.0750  -35.6940   25.1130 P.3   356  11P356      0.1514
      9  O10       14.0140  -35.7960   24.0400 O.2   356  11P356     -0.4572
     10  O9        16.4490  -35.5860   24.4690 O.3   356  11P356     -0.3553
     11  C3        14.4240  -32.9920   25.0890 C.3   356  11P356      0.0652
     12  C16       15.3440  -32.7950   23.8760 C.3   356  11P356      0.0124
     13  C17       15.2960  -31.3100   23.5250 C.3   356  11P356      0.0266
     14  C23       14.8290  -30.6870   24.8210 C.ar  356  11P356     -0.0230
     15  C26       14.8610  -29.3420   25.1750 C.ar  356  11P356      0.0161
     16  C29       14.3730  -29.0090   26.4380 C.ar  356  11P356      0.0985
     17  N25       13.8980  -29.9490   27.2790 N.ar  356  11P356     -0.2427
     18  C28       13.8670  -31.2520   26.9450 C.ar  356  11P356      0.0944
     19  C27       14.3440  -31.6330   25.6920 C.ar  356  11P356     -0.0040
@<TRIPOS>BOND
     1    13    12    1
     2    13    14    1
     3    12    11    1
     4     9     8    2
     5    10     8    1
     6    14    15   ar
     7    14    19   ar
     8    11    19    1
     9    11     6    1
    10     8     6    1
    11     8     4    1
    12    15    16   ar
    13    19    18   ar
    14     6     7    1
    15     6     5    1
    16     2     5    2
    17    16    17   ar
    18    18    17   ar
    19     5     1    1
    20     5     3    1
