@<TRIPOS>MOLECULE
2rak_PIB_A_1.pdb
 22 22 0 0 0
SMALL
GASTEIGER

@<TRIPOS>ATOM
      1  C1         4.2800   33.2750   15.7880 C.3   1163  PIB1163     0.1873
      2  C2         5.5990   34.0280   16.1030 C.3   1163  PIB1163     0.2120
      3  C3         6.3770   33.3030   17.2340 C.3   1163  PIB1163     0.1918
      4  C4         6.6790   31.8380   16.8090 C.3   1163  PIB1163     0.2148
      5  C5         5.3650   31.0720   16.5240 C.3   1163  PIB1163     0.2173
      6  C6         4.6100   31.7980   15.3710 C.3   1163  PIB1163     0.2147
      7  O1         3.6100   33.9520   14.6990 O.3   1163  PIB1163    -0.3111
      8  O2         6.3940   34.1080   14.9260 O.3   1163  PIB1163    -0.2177
      9  O3         7.6180   34.0090   17.4670 O.3   1163  PIB1163    -0.2673
     10  O4         7.3780   31.1820   17.8620 O.3   1163  PIB1163    -0.2176
     11  O5         5.6840   29.7190   16.1270 O.3   1163  PIB1163    -0.2175
     12  O6         3.3810   31.0930   15.0870 O.3   1163  PIB1163    -0.2176
     13  P1         2.0530   34.2530   15.0200 P.3   1163  PIB1163     0.2141
     14  O11        1.9620   35.2350   16.2870 O.3   1163  PIB1163    -0.4373
     15  O12        1.3250   32.9760   15.3060 O.2   1163  PIB1163    -0.5172
     16  O13        1.4400   34.9800   13.7080 O.3   1163  PIB1163    -0.3141
     17  P3         7.9100   34.2000   19.0380 P.3   1163  PIB1163     0.5327
     18  O31        9.2940   34.9910   19.1810 O.2   1163  PIB1163    -0.2224
     19  O32        8.0500   32.8860   19.7070 O.3   1163  PIB1163    -0.1145
     20  O33        6.7220   35.0460   19.7290 O.3   1163  PIB1163    -0.1145
     21  C7         0.0460   35.2470   13.9070 C.3   1163  PIB1163     0.1492
     22  C8        -0.5390   35.9360   12.6560 C.3   1163  PIB1163     0.0351
@<TRIPOS>BOND
     1    22    21    1
     2    16    21    1
     3    16    13    1
     4     7    13    1
     5     7     1    1
     6     8     2    1
     7    13    15    2
     8    13    14    1
     9    12     6    1
    10     6     1    1
    11     6     5    1
    12     1     2    1
    13     2     3    1
    14    11     5    1
    15     5     4    1
    16     4     3    1
    17     4    10    1
    18     3     9    1
    19     9    17    1
    20    17    18    2
    21    17    19    1
    22    17    20    1
