@<TRIPOS>MOLECULE
2rao_HEM_A_1.pdb
 43 50 0 0 0
SMALL
GASTEIGER

@<TRIPOS>ATOM
      1 FE        -14.0850   13.3190   -4.5120 Fe    142  HEM142      0.0000
      2  CHA      -17.2620   14.6510   -4.4870 C.2   142  HEM142      0.0000
      3  CHB      -12.7630   16.4040   -4.1660 C.2   142  HEM142      0.0000
      4  CHC      -10.9560   11.9440   -4.4830 C.2   142  HEM142      0.0000
      5  CHD      -15.4110   10.1180   -5.0070 C.2   142  HEM142      0.0000
      6  NA       -14.8820   15.2040   -4.3240 N.2   142  HEM142      0.0000
      7  C1A      -16.2070   15.5420   -4.4180 C.2   142  HEM142      0.0000
      8  C2A      -16.2930   16.9920   -4.4670 C.2   142  HEM142      0.0000
      9  C3A      -15.0400   17.4650   -4.3760 C.2   142  HEM142      0.0000
     10  C4A      -14.1270   16.3340   -4.2890 C.2   142  HEM142      0.0000
     11  CMA      -14.5820   18.9280   -4.4010 C.3   142  HEM142      0.0000
     12  CAA      -17.6000   17.8210   -4.6050 C.3   142  HEM142      0.0000
     13  CBA      -18.0800   18.1980   -3.2070 C.3   142  HEM142      0.0000
     14  CGA      -19.3910   18.9390   -3.2260 C.2   142  HEM142      0.0000
     15  O1A      -20.2260   18.6950   -2.3250 O.co2 142  HEM142      0.0000
     16  O2A      -19.6250   19.7900   -4.1080 O.co2 142  HEM142      0.0000
     17  NB       -12.2230   14.0170   -4.3100 N.ar  142  HEM142      0.0000
     18  C1B      -11.8740   15.3500   -4.2120 C.ar  142  HEM142      0.0000
     19  C2B      -10.4360   15.4690   -4.1510 C.ar  142  HEM142      0.0000
     20  C3B       -9.9190   14.2350   -4.2400 C.ar  142  HEM142      0.0000
     21  C4B      -11.0350   13.3010   -4.3370 C.ar  142  HEM142      0.0000
     22  CMB       -9.6860   16.8390   -3.9920 C.3   142  HEM142      0.0000
     23  CAB       -8.4210   13.7920   -4.2030 C.2   142  HEM142      0.0000
     24  CBB       -7.4050   14.6170   -4.4420 C.2   142  HEM142      0.0000
     25  NC       -13.3150   11.3260   -4.6720 N.2   142  HEM142      0.0000
     26  C1C      -11.9870   11.0480   -4.7210 C.2   142  HEM142      0.0000
     27  C2C      -11.8750    9.6420   -5.0890 C.2   142  HEM142      0.0000
     28  C3C      -13.0990    9.1150   -5.2380 C.2   142  HEM142      0.0000
     29  C4C      -14.0410   10.1970   -4.9860 C.2   142  HEM142      0.0000
     30  CMC      -10.5420    8.9130   -5.2110 C.3   142  HEM142      0.0000
     31  CAC      -13.4760    7.6640   -5.6160 C.2   142  HEM142      0.0000
     32  CBC      -12.9150    7.1190   -6.7180 C.2   142  HEM142      0.0000
     33  ND       -15.9820   12.5360   -4.6730 N.ar  142  HEM142      0.0000
     34  C1D      -16.2930   11.1690   -4.9330 C.ar  142  HEM142      0.0000
     35  C2D      -17.7170   11.0230   -5.1310 C.ar  142  HEM142      0.0000
     36  C3D      -18.3040   12.4180   -4.9490 C.ar  142  HEM142      0.0000
     37  C4D      -17.1680   13.2940   -4.6860 C.ar  142  HEM142      0.0000
     38  CMD      -18.5540    9.7460   -5.4040 C.3   142  HEM142      0.0000
     39  CAD      -19.8050   12.7630   -5.0610 C.3   142  HEM142      0.0000
     40  CBD      -20.0870   12.9500   -6.5570 C.3   142  HEM142      0.0000
     41  CGD      -21.4980   13.4680   -6.7980 C.2   142  HEM142      0.0000
     42  O1D      -22.4710   12.8960   -6.2650 O.co2 142  HEM142      0.0000
     43  O2D      -21.6780   14.4380   -7.5590 O.co2 142  HEM142      0.0000
@<TRIPOS>BOND
     1    43    41   ar
     2    41    40    1
     3    41    42   ar
     4    32    31    2
     5    40    39    1
     6    31    28    1
     7    38    35    1
     8    28    27    2
     9    28    29    1
    10    30    27    1
    11    35    36   ar
    12    35    34   ar
    13    27    26    1
    14    39    36    1
    15     5    29    1
    16     5    34    2
    17    29    25    2
    18    36    37   ar
    19    34    33   ar
    20    26    25    1
    21    26     4    2
    22    37    33   ar
    23    37     2    2
    24    33     1    1
    25    25     1    1
    26    12     8    1
    27    12    13    1
    28     1     6    1
    29     1    17    1
    30     2     7    1
    31     4    21    1
    32     8     7    1
    33     8     9    2
    34    24    23    2
    35     7     6    2
    36    11     9    1
    37     9    10    1
    38    21    17   ar
    39    21    20   ar
    40     6    10    1
    41    17    18   ar
    42    10     3    2
    43    20    23    1
    44    20    19   ar
    45    18     3    1
    46    18    19   ar
    47    19    22    1
    48    16    14   ar
    49    14    13    1
    50    14    15   ar
