@<TRIPOS>MOLECULE
2rap_GTP_A_1.pdb
 32 34 0 0 0
SMALL
GASTEIGER

@<TRIPOS>ATOM
      1  PG        29.7100   30.1320   -5.9890 P.3   180  GTP180      0.5373
      2  O1G       29.1970   28.9370   -5.2650 O.3   180  GTP180     -0.1143
      3  O2G       30.8810   29.8160   -6.8270 O.2   180  GTP180     -0.2221
      4  O3G       30.0130   31.2780   -5.1170 O.3   180  GTP180     -0.1143
      5  O3B       28.5170   30.6310   -6.9950 O.3   180  GTP180     -0.2258
      6  PB        27.0170   31.1710   -6.7660 P.3   180  GTP180      0.2277
      7  O1B       26.0720   30.0500   -6.9580 O.2   180  GTP180     -0.5168
      8  O2B       26.9600   31.9130   -5.4830 O.3   180  GTP180     -0.4368
      9  O3A       26.8070   32.2120   -7.9610 O.3   180  GTP180     -0.2700
     10  PA        26.2770   33.7260   -8.0450 P.3   180  GTP180      0.2189
     11  O1A       25.0890   33.8670   -7.1870 O.3   180  GTP180     -0.4371
     12  O2A       27.4270   34.6350   -7.8430 O.2   180  GTP180     -0.5170
     13  O5'       25.8040   33.8340   -9.5550 O.3   180  GTP180     -0.3112
     14  C5'       26.6150   33.4750  -10.6790 C.3   180  GTP180      0.1813
     15  C4'       26.2190   34.2880  -11.8940 C.3   180  GTP180      0.1799
     16  O4'       24.8260   34.0170  -12.1430 O.3   180  GTP180     -0.3326
     17  C3'       26.3720   35.8020  -11.7240 C.3   180  GTP180      0.2158
     18  O3'       26.8800   36.3470  -12.9360 O.3   180  GTP180     -0.2175
     19  C2'       24.9320   36.2430  -11.4810 C.3   180  GTP180      0.2310
     20  O2'       24.7190   37.5810  -11.9010 O.3   180  GTP180     -0.2158
     21  C1'       24.0690   35.2400  -12.2400 C.3   180  GTP180      0.2293
     22  N9        22.7240   35.0050  -11.6300 N.pl3 180  GTP180     -0.2354
     23  C8        22.4430   34.6550  -10.3250 C.3   180  GTP180      0.2246
     24  N7        21.1680   34.4830  -10.0790 N.2   180  GTP180     -0.2322
     25  C5        20.5540   34.7370  -11.3070 C.2   180  GTP180      0.2182
     26  C6        19.1830   34.7120  -11.6590 C.1   180  GTP180      0.2372
     27  O6        18.2050   34.4480  -10.9570 O.2   180  GTP180     -0.2069
     28  N1        19.0000   35.0360  -13.0130 N.2   180  GTP180     -0.2485
     29  C2        20.0220   35.3390  -13.9030 C.1   180  GTP180      0.2531
     30  N2        19.6270   35.6190  -15.1470 N.pl3 180  GTP180     -0.0226
     31  N3        21.3010   35.3670  -13.5690 N.2   180  GTP180     -0.3074
     32  C4        21.4890   35.0540  -12.2570 C.2   180  GTP180      0.2300
@<TRIPOS>BOND
     1    30    29    1
     2    29    31    2
     3    29    28    2
     4    31    32    2
     5    28    26    2
     6    18    17    1
     7    32    22    1
     8    32    25    1
     9    21    16    1
    10    21    22    1
    11    21    19    1
    12    16    15    1
    13    20    19    1
    14    15    17    1
    15    15    14    1
    16    17    19    1
    17    26    25    1
    18    26    27    2
    19    22    23    1
    20    25    24    2
    21    14    13    1
    22    23    24    1
    23    13    10    1
    24    10     9    1
    25    10    12    2
    26    10    11    1
    27     9     6    1
    28     5     6    1
    29     5     1    1
    30     7     6    2
    31     3     1    2
    32     6     8    1
    33     1     2    1
    34     1     4    1
