@<TRIPOS>MOLECULE
2ray_258_X_1.pdb
 10 10 0 0 0
SMALL
GASTEIGER

@<TRIPOS>ATOM
      1  CAE       27.1020    7.2590    4.5400 C.ar  2001  2582001     0.0369
      2  CAC       26.4850    6.8460    5.7290 C.ar  2001  2582001     0.0031
      3  CAB       25.7910    5.6370    5.7410 C.ar  2001  2582001     0.0002
      4  CAD       25.7270    4.8610    4.5820 C.ar  2001  2582001     0.0031
      5  CAF       26.3320    5.2740    3.3920 C.ar  2001  2582001     0.0369
      6  CAJ       27.0350    6.4890    3.3720 C.ar  2001  2582001     0.1386
      7  OAI       27.6340    6.8790    2.2000 O.3   2001  2582001    -0.4741
      8  CAH       28.1120    8.2760    2.2090 C.3   2001  2582001     0.2228
      9  CAG       28.4300    8.7130    0.7620 C.3   2001  2582001     0.1420
     10 CLAA       26.9520    8.6990   -0.2410 Cl    2001  2582001    -0.1096
@<TRIPOS>BOND
     1    10     9    1
     2     9     8    1
     3     7     8    1
     4     7     6    1
     5     6     5   ar
     6     6     1   ar
     7     5     4   ar
     8     1     2   ar
     9     4     3   ar
    10     2     3   ar
