@<TRIPOS>MOLECULE
2raz_259_X_1.pdb
 11 11 0 0 0
SMALL
GASTEIGER

@<TRIPOS>ATOM
      1  CAA      -24.5590   23.3350   -0.3570 C.3   1001  2591001     0.0742
      2  SAH      -25.0070   23.1930   -2.0750 S.3   1001  2591001    -0.1127
      3  CAI      -23.9820   24.3270   -2.9100 C.ar  1001  2591001     0.0253
      4  CAD      -24.3620   24.7750   -4.1660 C.ar  1001  2591001     0.0079
      5  CAF      -23.5710   25.7000   -4.8300 C.ar  1001  2591001     0.0246
      6  CAJ      -22.4050   26.1730   -4.2440 C.ar  1001  2591001     0.1429
      7  NAK      -21.6860   27.0740   -4.9050 N.pl3 1001  2591001     0.0577
      8  OAC      -20.6200   27.7230   -4.2750 O.2   1001  2591001    -0.1261
      9  OAB      -22.0300   27.4140   -6.2190 O.2   1001  2591001    -0.1261
     10  CAG      -22.0190   25.7320   -2.9790 C.ar  1001  2591001     0.0246
     11  CAE      -22.8070   24.7990   -2.3110 C.ar  1001  2591001     0.0079
@<TRIPOS>BOND
     1     9     7    2
     2     7     8    2
     3     7     6    1
     4     5     6   ar
     5     5     4   ar
     6     6    10   ar
     7     4     3   ar
     8    10    11   ar
     9     3    11   ar
    10     3     2    1
    11     2     1    1
