@<TRIPOS>MOLECULE
2rb0_260_X_1.pdb
 10 10 0 0 0
SMALL
GASTEIGER

@<TRIPOS>ATOM
      1 BRAC      -24.2390   24.1180   -0.9270 Br    1001  2601001    -0.0755
      2  CAG      -22.5700   24.0990   -1.9430 C.3   1001  2601001     0.0983
      3  CAJ      -22.5740   25.0960   -3.1120 C.ar  1001  2601001     0.0441
      4  CAH      -23.2780   24.8420   -4.2940 C.ar  1001  2601001     0.1391
      5  FAA      -23.9740   23.7010   -4.4150 F     1001  2601001    -0.2044
      6  CAE      -23.2770   25.7470   -5.3590 C.ar  1001  2601001     0.0295
      7  CAD      -22.5670   26.9370   -5.2620 C.ar  1001  2601001     0.0046
      8  CAF      -21.8570   27.2120   -4.0980 C.ar  1001  2601001     0.0295
      9  CAI      -21.8610   26.2970   -3.0440 C.ar  1001  2601001     0.1391
     10  FAB      -21.1680   26.5840   -1.9320 F     1001  2601001    -0.2044
@<TRIPOS>BOND
     1     6     7   ar
     2     6     4   ar
     3     7     8   ar
     4     5     4    1
     5     4     3   ar
     6     8     9   ar
     7     3     9   ar
     8     3     2    1
     9     9    10    1
    10     2     1    1
