@<TRIPOS>MOLECULE
2rb1_261_X_1.pdb
 10 10 0 0 0
SMALL
GASTEIGER

@<TRIPOS>ATOM
      1  CAA      -24.0490   23.8800   -0.6170 C.3   1001  2611001     0.0512
      2  CAG      -23.8820   24.1340   -2.1280 C.3   1001  2611001     0.2057
      3  OAH      -22.6230   24.8730   -2.3030 O.3   1001  2611001    -0.4722
      4  CAJ      -22.5450   25.6450   -3.4210 C.ar  1001  2611001     0.1772
      5  CAF      -23.2240   25.3580   -4.5940 C.ar  1001  2611001     0.0402
      6  CAD      -23.0910   26.1900   -5.7140 C.ar  1001  2611001     0.0033
      7  CAC      -22.2640   27.3040   -5.6540 C.ar  1001  2611001     0.0035
      8  CAE      -21.5850   27.6010   -4.4780 C.ar  1001  2611001     0.0452
      9  CAI      -21.7070   26.7630   -3.3660 C.ar  1001  2611001     0.2293
     10  OAB      -21.0240   27.0270   -2.2220 O.3   1001  2611001    -0.2833
@<TRIPOS>BOND
     1     6     7   ar
     2     6     5   ar
     3     7     8   ar
     4     5     4   ar
     5     8     9   ar
     6     4     9   ar
     7     4     3    1
     8     9    10    1
     9     3     2    1
    10     2     1    1
