@<TRIPOS>MOLECULE
2rb2_263_X_1.pdb
 11 11 0 0 0
SMALL
GASTEIGER

@<TRIPOS>ATOM
      1  C4        26.5690    7.3540    4.5550 C.ar  1001  2631001    -0.0065
      2  C14       27.3560    7.6720    3.4520 C.ar  1001  2631001     0.0047
      3  C5        27.5430    6.7350    2.4350 C.ar  1001  2631001    -0.0023
      4  C6        26.9420    5.4790    2.5080 C.ar  1001  2631001    -0.0006
      5  C11       26.1500    5.1640    3.6100 C.ar  1001  2631001    -0.0043
      6  C7        25.9750    6.0990    4.6270 C.ar  1001  2631001    -0.0221
      7  C8        25.1200    5.7440    5.8330 C.3   1001  2631001     0.0310
      8  C13       28.0030    9.0530    3.3730 C.3   1001  2631001     0.1908
      9  N1        27.2860    9.8760    2.3800 N.2   1001  2631001    -0.0926
     10  N2        27.1860    9.4590    1.1460 N.2   1001  2631001    -0.1660
     11  N3        27.0960    9.0160   -0.0620 N.2   1001  2631001     0.0678
@<TRIPOS>BOND
     1    11    10    2
     2    10     9    2
     3     9     8    1
     4     3     4   ar
     5     3     2   ar
     6     4     5   ar
     7     8     2    1
     8     2     1   ar
     9     5     6   ar
    10     1     6   ar
    11     6     7    1
