@<TRIPOS>MOLECULE
2rbe_ZMG_A_1.pdb
 17 18 0 0 0
SMALL
GASTEIGER

@<TRIPOS>ATOM
      1  C1        37.1150    0.6990  159.1750 C.ar  601  ZMG601      0.0015
      2  C2        37.3990    2.0800  159.3170 C.ar  601  ZMG601      0.0024
      3  C3        37.6450    2.8820  158.1840 C.ar  601  ZMG601      0.0310
      4  C4        37.5930    2.2770  156.9080 C.ar  601  ZMG601      0.1553
      5  C5        37.3330    0.9050  156.7420 C.ar  601  ZMG601      0.1009
      6  C6        37.0830    0.1050  157.8870 C.ar  601  ZMG601      0.0189
      7  N7        37.3290    0.3460  155.5030 N.pl3 601  ZMG601     -0.1751
      8  C8        38.4270   -0.1450  154.9090 C.2   601  ZMG601      0.2441
      9  S9        40.0380   -0.0160  155.6010 S.3   601  ZMG601     -0.0472
     10  C10       40.7770   -0.8070  154.1600 C.3   601  ZMG601      0.1730
     11  C11       39.6230   -1.1590  153.2310 C.1   601  ZMG601      0.1916
     12  N12       38.4220   -0.7590  153.7210 N.2   601  ZMG601     -0.3118
     13  F13       37.7860    3.0250  155.8180 F     601  ZMG601     -0.2028
     14  O14       39.8000   -1.7450  152.1620 O.2   601  ZMG601     -0.2133
     15  C15       41.8480    0.0050  153.4000 C.3   601  ZMG601      0.0272
     16  C16       41.3870    1.3560  152.8720 C.3   601  ZMG601      0.0021
     17  C17       43.0930    0.1990  154.2560 C.3   601  ZMG601      0.0021
@<TRIPOS>BOND
     1    14    11    2
     2    16    15    1
     3    11    12    2
     4    11    10    1
     5    15    10    1
     6    15    17    1
     7    12     8    2
     8    10     9    1
     9     8     7    1
    10     8     9    1
    11     7     5    1
    12    13     4    1
    13     5     4   ar
    14     5     6   ar
    15     4     3   ar
    16     6     1   ar
    17     3     2   ar
    18     1     2   ar
