@<TRIPOS>MOLECULE
2rbe_NDP_A_1.pdb
 47 50 0 0 0
SMALL
GASTEIGER

@<TRIPOS>ATOM
      1  PA        42.9700   -6.7900  148.7600 P.3   501  NDP501      0.2189
      2  O1A       43.6860   -7.7110  149.7090 O.3   501  NDP501     -0.4371
      3  O2A       43.8280   -5.6690  148.3220 O.2   501  NDP501     -0.5170
      4  O5B       42.4560   -7.5790  147.5340 O.3   501  NDP501     -0.3112
      5  C5B       41.9090   -6.8050  146.4810 C.3   501  NDP501      0.1813
      6  C4B       41.6750   -7.6790  145.2740 C.3   501  NDP501      0.1820
      7  O4B       41.2400   -6.8650  144.2000 O.3   501  NDP501     -0.3136
      8  C3B       42.9730   -8.4070  144.8180 C.3   501  NDP501      0.2157
      9  O3B       42.5940   -9.7810  144.5710 O.3   501  NDP501     -0.2175
     10  C2B       43.3960   -7.6070  143.5960 C.3   501  NDP501      0.2314
     11  O2B       44.0700   -8.4670  142.6700 O.3   501  NDP501     -0.2630
     12  C1B       42.0340   -7.1070  143.0560 C.3   501  NDP501      0.3158
     13  N9A       42.1470   -5.8820  142.2590 N.pl3 501  NDP501     -0.1445
     14  C8A       42.8270   -4.7410  142.4900 C.3   501  NDP501      0.3372
     15  N7A       42.7200   -3.8460  141.5060 N.2   501  NDP501     -0.2193
     16  C5A       41.9240   -4.4230  140.5440 C.2   501  NDP501      0.1585
     17  C6A       41.4520   -4.1120  139.2660 C.3   501  NDP501      0.1621
     18  N6A       41.6540   -2.9160  138.6870 N.3   501  NDP501     -0.1242
     19  C2A       40.3800   -6.2130  139.0380 C.3   501  NDP501      0.3206
     20  N3A       40.7910   -6.5680  140.2860 N.2   501  NDP501     -0.0590
     21  C4A       41.5600   -5.7050  141.0300 C.2   501  NDP501      0.3366
     22  O3        41.6600   -6.2200  149.4430 O.3   501  NDP501     -0.2703
     23  PN        40.8610   -6.6480  150.7370 P.3   501  NDP501      0.2189
     24  O1N       41.4340   -6.0060  151.9400 O.3   501  NDP501     -0.4371
     25  O2N       40.7950   -8.1200  150.8830 O.2   501  NDP501     -0.5170
     26  O5D       39.4020   -6.0320  150.4580 O.3   501  NDP501     -0.3112
     27  C5D       38.4080   -6.7780  149.7550 C.3   501  NDP501      0.1813
     28  C4D       37.0050   -6.1350  150.0070 C.3   501  NDP501      0.1799
     29  O4D       36.8560   -5.9730  151.3960 O.3   501  NDP501     -0.3327
     30  C3D       36.8800   -4.7540  149.3450 C.3   501  NDP501      0.2158
     31  O3D       35.6330   -4.6690  148.6160 O.3   501  NDP501     -0.2175
     32  C2D       37.0070   -3.8190  150.5460 C.3   501  NDP501      0.2309
     33  O2D       36.4800   -2.5270  150.2380 O.3   501  NDP501     -0.2158
     34  C1D       36.4580   -4.6720  151.7180 C.3   501  NDP501      0.2263
     35  N1N       36.9810   -4.2250  153.0060 N.pl3 501  NDP501     -0.2787
     36  C2N       38.2540   -4.5040  153.4250 C.3   501  NDP501      0.1244
     37  C3N       38.6940   -4.0910  154.6990 C.2   501  NDP501      0.0544
     38  C7N       40.0240   -4.3560  155.2440 C.2   501  NDP501      0.2818
     39  O7N       40.3560   -3.8830  156.3260 O.2   501  NDP501     -0.2670
     40  N7N       40.8500   -5.1510  154.5260 N.am  501  NDP501     -0.0839
     41  C4N       37.7950   -3.3880  155.5190 C.2   501  NDP501      0.0033
     42  C5N       36.4990   -3.1050  155.0870 C.2   501  NDP501      0.0157
     43  C6N       36.1400   -3.5470  153.8190 C.2   501  NDP501      0.0633
     44  P2B       45.0080   -7.8800  141.5520 P.3   501  NDP501      0.5328
     45  O1X       44.1420   -7.3570  140.3910 O.2   501  NDP501     -0.2224
     46  O2X       45.8750   -9.0750  141.0850 O.3   501  NDP501     -0.1145
     47  O3X       45.8670   -6.7420  142.1400 O.3   501  NDP501     -0.1145
@<TRIPOS>BOND
     1    18    17    1
     2    19    20    1
     3    17    16    1
     4    20    21    2
     5    45    44    2
     6    16    21    1
     7    16    15    2
     8    21    13    1
     9    46    44    1
    10    15    14    1
    11    44    47    1
    12    44    11    1
    13    13    14    1
    14    13    12    1
    15    11    10    1
    16    12    10    1
    17    12     7    1
    18    10     8    1
    19     7     6    1
    20     9     8    1
    21     8     6    1
    22     6     5    1
    23     5     4    1
    24     4     1    1
    25     3     1    2
    26    31    30    1
    27     1    22    1
    28     1     2    1
    29    30    28    1
    30    30    32    1
    31    22    23    1
    32    27    28    1
    33    27    26    1
    34    28    29    1
    35    33    32    1
    36    26    23    1
    37    32    34    1
    38    23    25    2
    39    23    24    1
    40    29    34    1
    41    34    35    1
    42    35    36    1
    43    35    43    1
    44    36    37    1
    45    43    42    2
    46    40    38   am
    47    37    38    1
    48    37    41    2
    49    42    41    1
    50    38    39    2
