@<TRIPOS>MOLECULE
2rbm_THP_A_1.pdb
 25 26 0 0 0
SMALL
GASTEIGER

@<TRIPOS>ATOM
      1  P2        -1.8660  -17.6950  -14.1330 P.3   152  THP152      0.5327
      2  O4P       -0.7050  -18.5980  -13.9030 O.2   152  THP152     -0.2224
      3  O5P       -1.7160  -16.2110  -13.8370 O.3   152  THP152     -0.1145
      4  O6P       -3.1750  -18.2410  -13.5930 O.3   152  THP152     -0.1145
      5  P1        -5.6640  -20.6940  -19.0570 P.3   152  THP152      0.5326
      6  O1P       -6.4900  -20.7510  -20.2840 O.2   152  THP152     -0.2224
      7  O2P       -6.3240  -19.8420  -17.9970 O.3   152  THP152     -0.1145
      8  O3P       -5.0770  -21.9500  -18.5290 O.3   152  THP152     -0.1145
      9  O5'       -2.0310  -17.6320  -15.7180 O.3   152  THP152     -0.2675
     10  C5'       -2.2500  -18.8080  -16.5050 C.3   152  THP152      0.1857
     11  C4'       -3.1740  -18.5360  -17.7010 C.3   152  THP152      0.1748
     12  O4'       -2.6870  -17.4430  -18.4790 O.3   152  THP152     -0.3340
     13  C3'       -3.2010  -19.7220  -18.6610 C.3   152  THP152      0.1600
     14  O3'       -4.4580  -19.6690  -19.3470 O.3   152  THP152     -0.2700
     15  C2'       -2.1610  -19.3650  -19.7100 C.3   152  THP152      0.0847
     16  C1'       -2.2380  -17.8330  -19.7620 C.3   152  THP152      0.2089
     17  N1        -0.9230  -17.2910  -20.0880 N.am  152  THP152     -0.1794
     18  C2        -0.6860  -16.8910  -21.4190 C.1   152  THP152      0.2844
     19  O2        -1.6240  -16.9850  -22.2490 O.2   152  THP152     -0.1918
     20  N3         0.5200  -16.4110  -21.8290 N.2   152  THP152     -0.2455
     21  C4         1.5380  -16.3300  -20.9350 C.1   152  THP152      0.2134
     22  O4         2.6390  -15.9000  -21.3340 O.2   152  THP152     -0.2088
     23  C5         1.3130  -16.7220  -19.5200 C.2   152  THP152      0.0891
     24  C5M        2.4280  -16.6330  -18.4860 C.3   152  THP152      0.0462
     25  C6         0.0550  -17.1990  -19.1340 C.2   152  THP152      0.0877
@<TRIPOS>BOND
     1    19    18    2
     2    20    18    2
     3    20    21    2
     4    18    17   am
     5    22    21    2
     6    21    23    1
     7     6     5    2
     8    17    16    1
     9    17    25    1
    10    16    15    1
    11    16    12    1
    12    15    13    1
    13    23    25    2
    14    23    24    1
    15    14     5    1
    16    14    13    1
    17     5     8    1
    18     5     7    1
    19    13    11    1
    20    12    11    1
    21    11    10    1
    22    10     9    1
    23     9     1    1
    24     1     2    2
    25     1     3    1
    26     1     4    1
