@<TRIPOS>MOLECULE
2rbn_264_A_1.pdb
 10 10 0 0 0
SMALL
GASTEIGER

@<TRIPOS>ATOM
      1  CAF       27.2270    7.4950    4.7070 C.ar  1001  2641001     0.0161
      2  CAD       26.2960    6.8080    5.4920 C.ar  1001  2641001     0.0013
      3  CAC       25.6010    5.7300    4.9440 C.ar  1001  2641001     0.0001
      4  CAE       25.8280    5.3570    3.6220 C.ar  1001  2641001     0.0013
      5  CAG       26.7570    6.0470    2.8450 C.ar  1001  2641001     0.0161
      6  CAJ       27.4590    7.1290    3.3770 C.ar  1001  2641001     0.0665
      7  NAI       28.3670    7.8060    2.6550 N.pl3 1001  2641001    -0.2212
      8  CAH       28.4840    7.7070    1.1870 C.3   1001  2641001     0.2166
      9  CAB       27.3620    8.3590    0.4950 C.1   1001  2641001     0.0971
     10  NAA       26.4960    8.8450   -0.0630 N.1   1001  2641001    -0.1940
@<TRIPOS>BOND
     1    10     9    3
     2     9     8    1
     3     8     7    1
     4     7     6    1
     5     5     6   ar
     6     5     4   ar
     7     6     1   ar
     8     4     3   ar
     9     1     2   ar
    10     3     2   ar
