@<TRIPOS>MOLECULE
2rbq_263_A_1.pdb
 11 11 0 0 0
SMALL
GASTEIGER

@<TRIPOS>ATOM
      1  C4        26.8260    7.3530    4.6520 C.ar  1001  2631001    -0.0065
      2  C14       27.5050    7.5160    3.4480 C.ar  1001  2631001     0.0047
      3  C5        27.4680    6.5230    2.4610 C.ar  1001  2631001    -0.0023
      4  C6        26.7430    5.3490    2.6650 C.ar  1001  2631001    -0.0006
      5  C11       26.0580    5.1840    3.8700 C.ar  1001  2631001    -0.0043
      6  C7        26.1100    6.1840    4.8490 C.ar  1001  2631001    -0.0221
      7  C8        25.3640    5.9870    6.1560 C.3   1001  2631001     0.0310
      8  C13       28.2860    8.7950    3.2410 C.3   1001  2631001     0.1908
      9  N1        27.5170    9.7070    2.3750 N.2   1001  2631001    -0.0926
     10  N2        27.2190    9.3420    1.1510 N.2   1001  2631001    -0.1660
     11  N3        26.9380    8.9700   -0.0420 N.2   1001  2631001     0.0678
@<TRIPOS>BOND
     1    11    10    2
     2    10     9    2
     3     9     8    1
     4     3     4   ar
     5     3     2   ar
     6     4     5   ar
     7     8     2    1
     8     2     1   ar
     9     5     6   ar
    10     1     6   ar
    11     6     7    1
