@<TRIPOS>MOLECULE
2rbr_268_A_1.pdb
 10 10 0 0 0
SMALL
GASTEIGER

@<TRIPOS>ATOM
      1  CAE      -40.4040   19.4340   11.7650 C.ar  1001  2681001     0.0369
      2  CAC      -41.0830   19.2540   10.5630 C.ar  1001  2681001     0.0031
      3  CAB      -42.4650   19.3730   10.5350 C.ar  1001  2681001     0.0002
      4  CAD      -43.1810   19.6540   11.6940 C.ar  1001  2681001     0.0031
      5  CAF      -42.5040   19.8340   12.8930 C.ar  1001  2681001     0.0369
      6  CAJ      -41.1240   19.7210   12.9240 C.ar  1001  2681001     0.1387
      7  OAI      -40.5480   19.8840   14.1410 O.3   1001  2681001    -0.4726
      8  CAH      -39.1850   19.4390   14.2140 C.3   1001  2681001     0.2408
      9  CAG      -38.8540   19.2810   15.6870 C.3   1001  2681001     0.2292
     10  OAA      -37.4550   19.1130   15.8050 O.3   1001  2681001    -0.2162
@<TRIPOS>BOND
     1     3     2   ar
     2     3     4   ar
     3     2     1   ar
     4     4     5   ar
     5     1     6   ar
     6     5     6   ar
     7     6     7    1
     8     7     8    1
     9     8     9    1
    10     9    10    1
