@<TRIPOS>MOLECULE
2rbs_269_A_1.pdb
 11 11 0 0 0
SMALL
GASTEIGER

@<TRIPOS>ATOM
      1  CAF       40.3780  -19.6580   11.5770 C.ar  1001  2691001    -0.0018
      2  CAD       41.5270  -19.3080   10.8650 C.ar  1001  2691001    -0.0002
      3  CAC       42.7770  -19.4230   11.4730 C.ar  1001  2691001    -0.0000
      4  CAE       42.8900  -19.8940   12.7830 C.ar  1001  2691001    -0.0002
      5  CAG       41.7420  -20.2440   13.4920 C.ar  1001  2691001    -0.0018
      6  CAJ       40.4900  -20.1290   12.8880 C.ar  1001  2691001     0.0077
      7  CAK       39.2450  -20.5260   13.6980 C.3   1001  2691001     0.1755
      8  OAA       38.5730  -21.6020   13.0340 O.3   1001  2691001    -0.2183
      9  CAI       38.2710  -19.3420   13.8690 C.3   1001  2691001     0.0550
     10  CAH       38.9120  -18.1390   14.5690 C.3   1001  2691001     0.0978
     11 CLAB       39.5040  -18.5620   16.2030 Cl    1001  2691001    -0.1136
@<TRIPOS>BOND
     1     2     3   ar
     2     2     1   ar
     3     3     4   ar
     4     1     6   ar
     5     4     5   ar
     6     6     5   ar
     7     6     7    1
     8     8     7    1
     9     7     9    1
    10     9    10    1
    11    10    11    1
