@<TRIPOS>MOLECULE
2rbt_HEM_X_1.pdb
 43 50 0 0 0
SMALL
GASTEIGER

@<TRIPOS>ATOM
      1  CHA       14.1850   -0.5960    1.2090 C.2   400  HEM400      0.0000
      2  CHB       10.1290   -0.6210    3.8360 C.2   400  HEM400      0.0000
      3  CHC        8.7400   -4.6730    1.6200 C.2   400  HEM400      0.0000
      4  CHD       12.5700   -4.3730   -1.2930 C.2   400  HEM400      0.0000
      5  C1A       13.1950   -0.2590    2.1050 C.2   400  HEM400      0.0000
      6  C2A       13.2040    0.9270    2.9450 C.2   400  HEM400      0.0000
      7  C3A       12.0930    0.9130    3.7000 C.2   400  HEM400      0.0000
      8  C4A       11.3280   -0.2580    3.3060 C.2   400  HEM400      0.0000
      9  CMA       11.6350    1.9630    4.7280 C.3   400  HEM400      0.0000
     10  CAA       14.3260    1.9480    2.9260 C.3   400  HEM400      0.0000
     11  CBA       14.1940    2.9400    1.7560 C.3   400  HEM400      0.0000
     12  CGA       15.2960    3.9380    1.7930 C.2   400  HEM400      0.0000
     13  O1A       15.9970    4.0940    0.7650 O.co2 400  HEM400      0.0000
     14  O2A       15.5010    4.5620    2.8500 O.co2 400  HEM400      0.0000
     15  C1B        9.4060   -1.7150    3.4790 C.ar  400  HEM400      0.0000
     16  C2B        8.1960   -2.1540    4.1160 C.ar  400  HEM400      0.0000
     17  C3B        7.8260   -3.2820    3.5340 C.ar  400  HEM400      0.0000
     18  C4B        8.7980   -3.5870    2.4840 C.ar  400  HEM400      0.0000
     19  CMB        7.4790   -1.4020    5.2300 C.3   400  HEM400      0.0000
     20  CAB        6.6430   -4.1590    3.7880 C.2   400  HEM400      0.0000
     21  CBB        6.0610   -4.3120    4.9930 C.2   400  HEM400      0.0000
     22  C1C        9.6320   -4.9180    0.5720 C.2   400  HEM400      0.0000
     23  C2C        9.4330   -5.9240   -0.4500 C.2   400  HEM400      0.0000
     24  C3C       10.5150   -5.8290   -1.2700 C.2   400  HEM400      0.0000
     25  C4C       11.3610   -4.7760   -0.7800 C.2   400  HEM400      0.0000
     26  CMC        8.2250   -6.8480   -0.5500 C.3   400  HEM400      0.0000
     27  CAC       10.8200   -6.6010   -2.5460 C.2   400  HEM400      0.0000
     28  CBC       10.6010   -7.8730   -2.7560 C.2   400  HEM400      0.0000
     29  C1D       13.4140   -3.4110   -0.8090 C.ar  400  HEM400      0.0000
     30  C2D       14.7600   -3.1850   -1.2610 C.ar  400  HEM400      0.0000
     31  C3D       15.2370   -2.0390   -0.5260 C.ar  400  HEM400      0.0000
     32  C4D       14.1390   -1.6690    0.3410 C.ar  400  HEM400      0.0000
     33  CMD       15.4920   -4.0120   -2.2710 C.3   400  HEM400      0.0000
     34  CAD       16.6090   -1.4120   -0.6170 C.3   400  HEM400      0.0000
     35  CBD       16.6110   -0.1820   -1.5240 C.3   400  HEM400      0.0000
     36  CGD       17.9370    0.5410   -1.6310 C.2   400  HEM400      0.0000
     37  O1D       18.9230    0.0520   -1.0820 O.co2 400  HEM400      0.0000
     38  O2D       17.9610    1.6050   -2.3100 O.co2 400  HEM400      0.0000
     39  NA        12.0140   -0.9520    2.3170 N.2   400  HEM400      0.0000
     40  NB         9.7790   -2.6140    2.4880 N.ar  400  HEM400      0.0000
     41  NC        10.7860   -4.2010    0.3220 N.2   400  HEM400      0.0000
     42  ND        13.0160   -2.5040    0.1690 N.ar  400  HEM400      0.0000
     43 FE         11.4170   -2.5880    1.3470 Fe    400  HEM400      0.0000
@<TRIPOS>BOND
     1    28    27    2
     2    27    24    1
     3    38    36   ar
     4    33    30    1
     5    36    35    1
     6    36    37   ar
     7    35    34    1
     8     4    29    2
     9     4    25    1
    10    24    25    1
    11    24    23    2
    12    30    29   ar
    13    30    31   ar
    14    29    42   ar
    15    25    41    2
    16    34    31    1
    17    26    23    1
    18    31    32   ar
    19    23    22    1
    20    42    32   ar
    21    42    43    1
    22    41    22    1
    23    41    43    1
    24    32     1    2
    25    22     3    2
    26    13    12   ar
    27     1     5    1
    28    43    39    1
    29    43    40    1
    30     3    18    1
    31    11    12    1
    32    11    10    1
    33    12    14   ar
    34     5    39    2
    35     5     6    1
    36    39     8    1
    37    18    40   ar
    38    18    17   ar
    39    40    15   ar
    40    10     6    1
    41     6     7    2
    42     8     7    1
    43     8     2    2
    44    15     2    1
    45    15    16   ar
    46    17    20    1
    47    17    16   ar
    48     7     9    1
    49    20    21    2
    50    16    19    1
