@<TRIPOS>MOLECULE
2rbz_HEM_X_1.pdb
 43 50 0 0 0
SMALL
GASTEIGER

@<TRIPOS>ATOM
      1  CHA       14.3790   -0.6130    1.4330 C.2   400  HEM400      0.0000
      2  CHB       10.2760   -0.6670    4.0620 C.2   400  HEM400      0.0000
      3  CHC        8.9260   -4.7840    1.8680 C.2   400  HEM400      0.0000
      4  CHD       12.7770   -4.4450   -1.1040 C.2   400  HEM400      0.0000
      5  C1A       13.3840   -0.2930    2.3160 C.2   400  HEM400      0.0000
      6  C2A       13.3590    0.8970    3.1220 C.2   400  HEM400      0.0000
      7  C3A       12.2270    0.8720    3.8800 C.2   400  HEM400      0.0000
      8  C4A       11.4970   -0.3280    3.5390 C.2   400  HEM400      0.0000
      9  CMA       11.7080    1.9000    4.9180 C.3   400  HEM400      0.0000
     10  CAA       14.4800    1.9500    3.0860 C.3   400  HEM400      0.0000
     11  CBA       14.2450    2.9030    1.9010 C.3   400  HEM400      0.0000
     12  CGA       15.3890    3.9030    1.8790 C.2   400  HEM400      0.0000
     13  O1A       16.0530    4.0700    0.8240 O.co2 400  HEM400      0.0000
     14  O2A       15.6350    4.5400    2.9300 O.co2 400  HEM400      0.0000
     15  C1B        9.5600   -1.7920    3.7170 C.ar  400  HEM400      0.0000
     16  C2B        8.3760   -2.2580    4.3950 C.ar  400  HEM400      0.0000
     17  C3B        7.9890   -3.3970    3.7980 C.ar  400  HEM400      0.0000
     18  C4B        8.9550   -3.6980    2.7210 C.ar  400  HEM400      0.0000
     19  CMB        7.6780   -1.5190    5.5600 C.3   400  HEM400      0.0000
     20  CAB        6.7710   -4.3090    4.1310 C.2   400  HEM400      0.0000
     21  CBB        6.3420   -4.4230    5.3930 C.2   400  HEM400      0.0000
     22  C1C        9.8080   -5.0100    0.8200 C.2   400  HEM400      0.0000
     23  C2C        9.6610   -6.0030   -0.2190 C.2   400  HEM400      0.0000
     24  C3C       10.7090   -5.9090   -1.0740 C.2   400  HEM400      0.0000
     25  C4C       11.5660   -4.8420   -0.5710 C.2   400  HEM400      0.0000
     26  CMC        8.4120   -6.9140   -0.3130 C.3   400  HEM400      0.0000
     27  CAC       10.9930   -6.6950   -2.3720 C.2   400  HEM400      0.0000
     28  CBC       10.7370   -7.9880   -2.5950 C.2   400  HEM400      0.0000
     29  C1D       13.6070   -3.4750   -0.6140 C.ar  400  HEM400      0.0000
     30  C2D       14.9440   -3.2260   -1.1420 C.ar  400  HEM400      0.0000
     31  C3D       15.4410   -2.0320   -0.3390 C.ar  400  HEM400      0.0000
     32  C4D       14.3580   -1.6680    0.5460 C.ar  400  HEM400      0.0000
     33  CMD       15.7150   -4.0480   -2.2150 C.3   400  HEM400      0.0000
     34  CAD       16.8140   -1.3450   -0.4540 C.3   400  HEM400      0.0000
     35  CBD       16.6730   -0.1860   -1.4630 C.3   400  HEM400      0.0000
     36  CGD       17.9980    0.5530   -1.6340 C.2   400  HEM400      0.0000
     37  O1D       19.0060    0.0780   -1.0560 O.co2 400  HEM400      0.0000
     38  O2D       18.0240    1.6150   -2.3510 O.co2 400  HEM400      0.0000
     39  NA        12.2160   -1.0050    2.5810 N.2   400  HEM400      0.0000
     40  NB         9.9130   -2.6930    2.7060 N.ar  400  HEM400      0.0000
     41  NC        10.9600   -4.3210    0.5610 N.2   400  HEM400      0.0000
     42  ND        13.2790   -2.5240    0.3480 N.ar  400  HEM400      0.0000
     43 FE         11.5980   -2.6800    1.5990 Fe    400  HEM400      0.0000
@<TRIPOS>BOND
     1    28    27    2
     2    27    24    1
     3    38    36   ar
     4    33    30    1
     5    36    35    1
     6    36    37   ar
     7    35    34    1
     8    30    29   ar
     9    30    31   ar
    10     4    29    2
    11     4    25    1
    12    24    25    1
    13    24    23    2
    14    29    42   ar
    15    25    41    2
    16    34    31    1
    17    31    32   ar
    18    26    23    1
    19    23    22    1
    20    42    32   ar
    21    42    43    1
    22    32     1    2
    23    41    22    1
    24    41    43    1
    25    22     3    2
    26    13    12   ar
    27     1     5    1
    28    43    39    1
    29    43    40    1
    30     3    18    1
    31    12    11    1
    32    12    14   ar
    33    11    10    1
    34     5    39    2
    35     5     6    1
    36    39     8    1
    37    40    18   ar
    38    40    15   ar
    39    18    17   ar
    40    10     6    1
    41     6     7    2
    42     8     7    1
    43     8     2    2
    44    15     2    1
    45    15    16   ar
    46    17    20    1
    47    17    16   ar
    48     7     9    1
    49    20    21    2
    50    16    19    1
