@<TRIPOS>MOLECULE
2rc1_HEM_X_1.pdb
 43 50 0 0 0
SMALL
GASTEIGER

@<TRIPOS>ATOM
      1  CHA      -15.0310    0.1650    1.4550 C.2   400  HEM400      0.0000
      2  CHB      -10.8070    0.5990   -0.8860 C.2   400  HEM400      0.0000
      3  CHC       -9.5400   -3.8860    0.4640 C.2   400  HEM400      0.0000
      4  CHD      -13.3840   -3.9860    3.4270 C.2   400  HEM400      0.0000
      5  C1A      -13.9920    0.6610    0.6910 C.ar  400  HEM400      0.0000
      6  C2A      -13.9290    1.9820    0.0900 C.ar  400  HEM400      0.0000
      7  C3A      -12.7630    2.1140   -0.5660 C.ar  400  HEM400      0.0000
      8  C4A      -12.0510    0.8600   -0.3920 C.ar  400  HEM400      0.0000
      9  CMA      -12.2060    3.3410   -1.3640 C.3   400  HEM400      0.0000
     10  CAA      -15.0400    3.0280    0.2330 C.3   400  HEM400      0.0000
     11  CBA      -14.7730    3.9720    1.4050 C.3   400  HEM400      0.0000
     12  CGA      -15.9960    4.8470    1.5650 C.2   400  HEM400      0.0000
     13  O1A      -16.7640    4.7150    2.5730 O.co2 400  HEM400      0.0000
     14  O2A      -16.2030    5.7080    0.6600 O.co2 400  HEM400      0.0000
     15  C1B      -10.1900   -0.5960   -0.7710 C.2   400  HEM400      0.0000
     16  C2B       -9.0430   -0.9590   -1.5330 C.2   400  HEM400      0.0000
     17  C3B       -8.6450   -2.1980   -1.1570 C.2   400  HEM400      0.0000
     18  C4B       -9.5870   -2.6600   -0.1570 C.2   400  HEM400      0.0000
     19  CMB       -8.4230   -0.0060   -2.5330 C.3   400  HEM400      0.0000
     20  CAB       -7.4570   -3.0550   -1.7040 C.2   400  HEM400      0.0000
     21  CBB       -6.7330   -2.6310   -2.7840 C.2   400  HEM400      0.0000
     22  C1C      -10.4070   -4.2560    1.4480 C.ar  400  HEM400      0.0000
     23  C2C      -10.2510   -5.4120    2.2860 C.ar  400  HEM400      0.0000
     24  C3C      -11.3350   -5.4490    3.1450 C.ar  400  HEM400      0.0000
     25  C4C      -12.1800   -4.2930    2.8260 C.ar  400  HEM400      0.0000
     26  CMC       -9.0310   -6.3550    2.1840 C.3   400  HEM400      0.0000
     27  CAC      -11.6750   -6.4650    4.3020 C.2   400  HEM400      0.0000
     28  CBC      -11.3230   -7.7700    4.2870 C.2   400  HEM400      0.0000
     29  C1D      -14.2460   -2.9610    3.1050 C.2   400  HEM400      0.0000
     30  C2D      -15.6260   -2.8250    3.5440 C.2   400  HEM400      0.0000
     31  C3D      -16.0970   -1.5120    2.9060 C.2   400  HEM400      0.0000
     32  C4D      -14.9820   -0.9850    2.1780 C.2   400  HEM400      0.0000
     33  CMD      -16.4880   -3.7790    4.3950 C.3   400  HEM400      0.0000
     34  CAD      -17.4820   -0.8390    3.0010 C.3   400  HEM400      0.0000
     35  CBD      -17.5840   -0.1080    4.3430 C.3   400  HEM400      0.0000
     36  CGD      -18.8620    0.7220    4.3590 C.2   400  HEM400      0.0000
     37  O1D      -19.8820    0.4170    3.6670 O.co2 400  HEM400      0.0000
     38  O2D      -18.8440    1.7340    5.0510 O.co2 400  HEM400      0.0000
     39  NA       -12.8220   -0.0120    0.3700 N.ar  400  HEM400      0.0000
     40  NB       -10.5340   -1.6520    0.0390 N.2   400  HEM400      0.0000
     41  NC       -11.5930   -3.6050    1.7790 N.ar  400  HEM400      0.0000
     42  ND       -13.9200   -1.8610    2.3120 N.2   400  HEM400      0.0000
     43 FE        -12.2200   -1.7940    1.1200 Fe    400  HEM400      0.0000
@<TRIPOS>BOND
     1    21    20    2
     2    19    16    1
     3    20    17    1
     4    16    17    2
     5    16    15    1
     6     9     7    1
     7    17    18    1
     8     2    15    1
     9     2     8    2
    10    15    40    2
    11     7     8   ar
    12     7     6   ar
    13     8    39   ar
    14    18    40    1
    15    18     3    2
    16    40    43    1
    17     6    10    1
    18     6     5   ar
    19    10    11    1
    20    39     5   ar
    21    39    43    1
    22     3    22    1
    23    14    12   ar
    24     5     1    2
    25    43    41    1
    26    43    42    1
    27    11    12    1
    28    22    41   ar
    29    22    23   ar
    30     1    32    1
    31    12    13   ar
    32    41    25   ar
    33    32    42    2
    34    32    31    1
    35    26    23    1
    36    23    24   ar
    37    42    29    1
    38    25    24   ar
    39    25     4    1
    40    31    34    1
    41    31    30    2
    42    34    35    1
    43    29     4    2
    44    29    30    1
    45    24    27    1
    46    30    33    1
    47    37    36   ar
    48    28    27    2
    49    35    36    1
    50    36    38   ar
