@<TRIPOS>MOLECULE
2rc2_HEM_X_1.pdb
 43 50 0 0 0
SMALL
GASTEIGER

@<TRIPOS>ATOM
      1  CHA       14.3410   -0.5220    1.2920 C.2   400  HEM400      0.0000
      2  CHB       10.2320   -0.5290    3.8760 C.2   400  HEM400      0.0000
      3  CHC        8.8960   -4.6460    1.7160 C.2   400  HEM400      0.0000
      4  CHD       12.7020   -4.3570   -1.2610 C.2   400  HEM400      0.0000
      5  C1A       13.3390   -0.1740    2.1560 C.2   400  HEM400      0.0000
      6  C2A       13.3300    1.0150    2.9760 C.2   400  HEM400      0.0000
      7  C3A       12.1990    1.0170    3.7020 C.2   400  HEM400      0.0000
      8  C4A       11.4550   -0.1790    3.3500 C.2   400  HEM400      0.0000
      9  CMA       11.7310    2.0780    4.7250 C.3   400  HEM400      0.0000
     10  CAA       14.4460    2.0720    2.9670 C.3   400  HEM400      0.0000
     11  CBA       14.2540    3.0150    1.7810 C.3   400  HEM400      0.0000
     12  CGA       15.3760    4.0220    1.8020 C.2   400  HEM400      0.0000
     13  O1A       16.0860    4.1710    0.7700 O.co2 400  HEM400      0.0000
     14  O2A       15.5830    4.6810    2.8600 O.co2 400  HEM400      0.0000
     15  C1B        9.5290   -1.6650    3.5470 C.ar  400  HEM400      0.0000
     16  C2B        8.3320   -2.1380    4.2060 C.ar  400  HEM400      0.0000
     17  C3B        7.9590   -3.2850    3.6070 C.ar  400  HEM400      0.0000
     18  C4B        8.9270   -3.5710    2.5610 C.ar  400  HEM400      0.0000
     19  CMB        7.6540   -1.3970    5.3740 C.3   400  HEM400      0.0000
     20  CAB        6.7630   -4.1920    3.9280 C.2   400  HEM400      0.0000
     21  CBB        6.2550   -4.3080    5.1560 C.2   400  HEM400      0.0000
     22  C1C        9.7570   -4.8860    0.6680 C.2   400  HEM400      0.0000
     23  C2C        9.5790   -5.8780   -0.3730 C.2   400  HEM400      0.0000
     24  C3C       10.6380   -5.7970   -1.2120 C.2   400  HEM400      0.0000
     25  C4C       11.5030   -4.7440   -0.7150 C.2   400  HEM400      0.0000
     26  CMC        8.3680   -6.8270   -0.4860 C.3   400  HEM400      0.0000
     27  CAC       10.9180   -6.5960   -2.5010 C.2   400  HEM400      0.0000
     28  CBC       10.6290   -7.8800   -2.6650 C.2   400  HEM400      0.0000
     29  C1D       13.5340   -3.3840   -0.7560 C.ar  400  HEM400      0.0000
     30  C2D       14.8920   -3.1740   -1.2010 C.ar  400  HEM400      0.0000
     31  C3D       15.4040   -1.9950   -0.4090 C.ar  400  HEM400      0.0000
     32  C4D       14.3030   -1.5810    0.4280 C.ar  400  HEM400      0.0000
     33  CMD       15.6790   -4.0040   -2.2250 C.3   400  HEM400      0.0000
     34  CAD       16.8000   -1.3620   -0.4870 C.3   400  HEM400      0.0000
     35  CBD       16.7680   -0.1660   -1.4450 C.3   400  HEM400      0.0000
     36  CGD       18.1040    0.5270   -1.5610 C.2   400  HEM400      0.0000
     37  O1D       19.1250   -0.0080   -1.0650 O.co2 400  HEM400      0.0000
     38  O2D       18.1230    1.6230   -2.1780 O.co2 400  HEM400      0.0000
     39  NA        12.1780   -0.8830    2.4020 N.2   400  HEM400      0.0000
     40  NB         9.8680   -2.5600    2.5470 N.ar  400  HEM400      0.0000
     41  NC        10.9240   -4.2030    0.4170 N.2   400  HEM400      0.0000
     42  ND        13.2120   -2.4320    0.2160 N.ar  400  HEM400      0.0000
     43 FE         11.5570   -2.5510    1.4290 Fe    400  HEM400      0.0000
@<TRIPOS>BOND
     1    28    27    2
     2    27    24    1
     3    33    30    1
     4    38    36   ar
     5    36    35    1
     6    36    37   ar
     7    35    34    1
     8     4    29    2
     9     4    25    1
    10    24    25    1
    11    24    23    2
    12    30    29   ar
    13    30    31   ar
    14    29    42   ar
    15    25    41    2
    16    34    31    1
    17    26    23    1
    18    31    32   ar
    19    23    22    1
    20    42    32   ar
    21    42    43    1
    22    41    22    1
    23    41    43    1
    24    32     1    2
    25    22     3    2
    26    13    12   ar
    27     1     5    1
    28    43    39    1
    29    43    40    1
    30     3    18    1
    31    11    12    1
    32    11    10    1
    33    12    14   ar
    34     5    39    2
    35     5     6    1
    36    39     8    1
    37    40    18   ar
    38    40    15   ar
    39    18    17   ar
    40    10     6    1
    41     6     7    2
    42     8     7    1
    43     8     2    2
    44    15     2    1
    45    15    16   ar
    46    17    20    1
    47    17    16   ar
    48     7     9    1
    49    20    21    2
    50    16    19    1
