@<TRIPOS>MOLECULE
2rc3_NAD_A_1.pdb
 44 48 0 0 0
SMALL
GASTEIGER

@<TRIPOS>ATOM
      1  PA        30.7550   63.3410    7.1490 P.3   1000  NAD1000     0.2189
      2  O1A       30.5700   64.4760    8.0730 O.3   1000  NAD1000    -0.4371
      3  O2A       29.6120   63.0790    6.2500 O.2   1000  NAD1000    -0.5170
      4  O5B       32.1160   63.5340    6.3120 O.3   1000  NAD1000    -0.3112
      5  C5B       32.1080   63.6080    4.8870 C.3   1000  NAD1000     0.1813
      6  C4B       33.2590   64.5030    4.4270 C.3   1000  NAD1000     0.1821
      7  O4B       32.9470   65.8360    4.7840 O.3   1000  NAD1000    -0.3135
      8  C3B       34.6180   64.2110    5.0640 C.3   1000  NAD1000     0.2184
      9  O3B       35.6350   64.3920    4.0790 O.3   1000  NAD1000    -0.2174
     10  C2B       34.7560   65.2670    6.1530 C.3   1000  NAD1000     0.2570
     11  O2B       36.0710   65.7020    6.4360 O.3   1000  NAD1000    -0.2130
     12  C1B       33.9890   66.4150    5.5420 C.3   1000  NAD1000     0.3186
     13  N9A       33.3980   67.3400    6.5050 N.pl3 1000  NAD1000    -0.1439
     14  C8A       32.3960   67.0750    7.4160 C.3   1000  NAD1000     0.3377
     15  N7A       32.1090   68.2150    8.0840 N.2   1000  NAD1000    -0.2095
     16  C5A       32.9020   69.2120    7.6030 C.2   1000  NAD1000     0.2526
     17  C6A       33.0250   70.5600    7.9290 C.2   1000  NAD1000     0.4393
     18  N6A       32.1690   71.1690    8.7530 N.pl3 1000  NAD1000     0.2180
     19  N1A       33.9760   71.3060    7.2560 N.2   1000  NAD1000     0.0021
     20  C2A       34.7500   70.7500    6.2570 C.3   1000  NAD1000     0.5254
     21  N3A       34.6350   69.4170    5.9430 N.2   1000  NAD1000    -0.0055
     22  C4A       33.7110   68.6680    6.6030 C.2   1000  NAD1000     0.3518
     23  O3        31.0330   62.0780    8.1050 O.3   1000  NAD1000    -0.2703
     24  PN        31.6520   60.6250    7.7760 P.3   1000  NAD1000     0.2189
     25  O1N       31.0290   59.7910    8.8130 O.3   1000  NAD1000    -0.4371
     26  O2N       33.1260   60.7420    7.7540 O.2   1000  NAD1000    -0.5170
     27  O5D       31.2240   60.2830    6.2780 O.3   1000  NAD1000    -0.3112
     28  C5D       29.9090   59.8690    5.9660 C.3   1000  NAD1000     0.1813
     29  C4D       29.9560   58.6870    4.9850 C.3   1000  NAD1000     0.1799
     30  O4D       30.6790   59.0860    3.8340 O.3   1000  NAD1000    -0.3327
     31  C3D       30.6650   57.4500    5.5380 C.3   1000  NAD1000     0.2158
     32  O3D       30.0150   56.3020    5.0240 O.3   1000  NAD1000    -0.2175
     33  C2D       32.0680   57.5730    4.9770 C.3   1000  NAD1000     0.2309
     34  O2D       32.7220   56.3350    4.8390 O.3   1000  NAD1000    -0.2158
     35  C1D       31.7870   58.2480    3.6380 C.3   1000  NAD1000     0.2263
     36  N1N       32.9180   59.0410    3.1240 N.pl3 1000  NAD1000    -0.2787
     37  C2N       33.3700   58.7110    1.8810 C.3   1000  NAD1000     0.1244
     38  C3N       34.4420   59.4090    1.3370 C.2   1000  NAD1000     0.0544
     39  C7N       34.7000   59.2610   -0.1300 C.2   1000  NAD1000     0.2818
     40  O7N       35.6470   60.1100   -0.7170 O.2   1000  NAD1000    -0.2670
     41  N7N       34.0440   58.3240   -0.8200 N.am  1000  NAD1000    -0.0839
     42  C4N       35.0510   60.4520    2.0480 C.2   1000  NAD1000     0.0033
     43  C5N       34.5760   60.7770    3.3280 C.2   1000  NAD1000     0.0157
     44  C6N       33.4970   60.0610    3.8480 C.2   1000  NAD1000     0.0633
@<TRIPOS>BOND
     1    41    39   am
     2    40    39    2
     3    39    38    1
     4    38    37    1
     5    38    42    2
     6    37    36    1
     7    42    43    1
     8    36    35    1
     9    36    44    1
    10    43    44    2
    11    35    30    1
    12    35    33    1
    13    30    29    1
    14     9     8    1
    15     6     7    1
    16     6     5    1
    17     6     8    1
    18     7    12    1
    19    34    33    1
    20     5     4    1
    21    33    31    1
    22    29    31    1
    23    29    28    1
    24    32    31    1
    25     8    10    1
    26    12    10    1
    27    12    13    1
    28    21    20    1
    29    21    22    2
    30    28    27    1
    31    10    11    1
    32     3     1    2
    33    20    19    1
    34    27    24    1
    35     4     1    1
    36    13    22    1
    37    13    14    1
    38    22    16    1
    39     1     2    1
    40     1    23    1
    41    19    17    2
    42    14    15    1
    43    16    17    1
    44    16    15    2
    45    26    24    2
    46    24    23    1
    47    24    25    1
    48    17    18    1
