@<TRIPOS>MOLECULE
2rc6_NAP_A_1.pdb
 48 52 0 0 0
SMALL
GASTEIGER

@<TRIPOS>ATOM
      1  PA         7.5660    7.3540    3.8990 P.3   416  NAP416      0.2189
      2  O1A        8.4900    6.2850    4.7670 O.3   416  NAP416     -0.4371
      3  O2A        7.9880    8.7210    4.1660 O.2   416  NAP416     -0.5170
      4  O5B        7.7380    7.0560    2.2760 O.3   416  NAP416     -0.3112
      5  C5B        7.9630    8.1250    1.3840 C.3   416  NAP416      0.1813
      6  C4B        8.7670    7.5120    0.2030 C.3   416  NAP416      0.1820
      7  O4B        9.9830    8.3310   -0.0640 O.3   416  NAP416     -0.3136
      8  C3B        9.2610    6.1110    0.6560 C.3   416  NAP416      0.2157
      9  O3B        8.7840    5.1270   -0.2190 O.3   416  NAP416     -0.2175
     10  C2B       10.7510    6.1780    0.6500 C.3   416  NAP416      0.2314
     11  O2B       11.3300    4.9640    0.1600 O.3   416  NAP416     -0.2630
     12  C1B       11.0310    7.3290   -0.3300 C.3   416  NAP416      0.3158
     13  N9A       12.3700    7.9380   -0.1700 N.pl3 416  NAP416     -0.1439
     14  C8A       13.3750    7.7340    0.9770 C.3   416  NAP416      0.3377
     15  N7A       14.5840    8.5890    0.6780 N.2   416  NAP416     -0.2095
     16  C5A       14.3350    9.3210   -0.6410 C.2   416  NAP416      0.2526
     17  C6A       15.1850   10.3300   -1.4570 C.2   416  NAP416      0.4393
     18  N6A       16.5160   10.7310   -0.9810 N.pl3 416  NAP416      0.2180
     19  N1A       14.6610   10.8710   -2.7250 N.2   416  NAP416      0.0021
     20  C2A       13.2850   10.4590   -3.2280 C.3   416  NAP416      0.5254
     21  N3A       12.4310    9.4550   -2.4130 N.2   416  NAP416     -0.0055
     22  C4A       12.9550    8.9090   -1.1550 C.2   416  NAP416      0.3518
     23  O3         5.9730    7.1680    4.3270 O.3   416  NAP416     -0.2703
     24  PN         5.5760    7.5560    5.9010 P.3   416  NAP416      0.2189
     25  O1N        5.1020    6.1640    6.6340 O.3   416  NAP416     -0.4371
     26  O2N        4.3440    8.6680    5.9120 O.2   416  NAP416     -0.5170
     27  O5D        6.9470    8.1860    6.6590 O.3   416  NAP416     -0.3112
     28  C5D        7.1690    9.5940    6.6350 C.3   416  NAP416      0.1813
     29  C4D        8.6760    9.9460    6.8930 C.3   416  NAP416      0.1796
     30  O4D        9.5470    9.3300    5.8580 O.3   416  NAP416     -0.3354
     31  C3D        9.1530    9.4490    8.2490 C.3   416  NAP416      0.2155
     32  O3D        8.0650    9.0700    9.0610 O.3   416  NAP416     -0.2176
     33  C2D       10.0740    8.2690    7.9930 C.3   416  NAP416      0.2271
     34  O2D        9.5320    7.0780    8.5600 O.3   416  NAP416     -0.2161
     35  C1D       10.1850    8.1310    6.4560 C.3   416  NAP416      0.2098
     36  N1N       11.5890    8.0310    6.0450 N.3   416  NAP416     -0.2442
     37  C2N       12.5980    7.8670    7.1940 C.3   416  NAP416      0.1053
     38  C3N       12.8580    6.3450    7.6720 C.2   416  NAP416      0.0464
     39  C7N       13.3450    6.0370    9.1040 C.2   416  NAP416      0.2812
     40  O7N       14.4570    6.2900    9.4160 O.2   416  NAP416     -0.2670
     41  N7N       12.4350    5.4370   10.0800 N.am  416  NAP416     -0.0839
     42  C4N       12.7680    5.2370    6.6020 C.2   416  NAP416     -0.0230
     43  C5N       12.2980    5.6350    5.1500 C.3   416  NAP416      0.0433
     44  C6N       11.8710    7.1320    4.8600 C.3   416  NAP416      0.0793
     45  P2B       11.8230    3.7580    1.2390 P.3   416  NAP416      0.5328
     46  O1X       13.4100    3.4180    0.9740 O.2   416  NAP416     -0.2224
     47  O2X       10.9350    2.3860    1.0140 O.3   416  NAP416     -0.1145
     48  O3X       11.6320    4.2170    2.6150 O.3   416  NAP416     -0.1145
@<TRIPOS>BOND
     1    20    19    1
     2    20    21    1
     3    19    17    2
     4    21    22    2
     5    17    18    1
     6    17    16    1
     7    22    16    1
     8    22    13    1
     9    16    15    2
    10    12    13    1
    11    12     7    1
    12    12    10    1
    13     9     8    1
    14    13    14    1
    15     7     6    1
    16    11    10    1
    17    11    45    1
    18     6     8    1
    19     6     5    1
    20    10     8    1
    21    15    14    1
    22    46    45    2
    23    47    45    1
    24    45    48    1
    25     5     4    1
    26     4     1    1
    27     1     3    2
    28     1    23    1
    29     1     2    1
    30    23    24    1
    31    44    43    1
    32    44    36    1
    33    43    42    1
    34    30    35    1
    35    30    29    1
    36    24    26    2
    37    24    25    1
    38    24    27    1
    39    36    35    1
    40    36    37    1
    41    35    33    1
    42    42    38    2
    43    28    27    1
    44    28    29    1
    45    29    31    1
    46    37    38    1
    47    38    39    1
    48    33    31    1
    49    33    34    1
    50    31    32    1
    51    39    40    2
    52    39    41   am
