@<TRIPOS>MOLECULE
2rch_HEM_A_1.pdb
 43 50 0 0 0
SMALL
GASTEIGER

@<TRIPOS>ATOM
      1  CHA       -1.5950   25.8280   36.4440 C.2   600  HEM600      0.0000
      2  CHB        0.8560   29.7740   34.9570 C.2   600  HEM600      0.0000
      3  CHC        4.9270   28.0660   37.0570 C.2   600  HEM600      0.0000
      4  CHD        2.5780   24.0550   38.2850 C.2   600  HEM600      0.0000
      5  C1A       -1.2930   27.0520   35.8820 C.ar  600  HEM600      0.0000
      6  C2A       -2.2400   27.8900   35.1880 C.ar  600  HEM600      0.0000
      7  C3A       -1.5660   28.9890   34.7950 C.ar  600  HEM600      0.0000
      8  C4A       -0.1770   28.8670   35.2110 C.ar  600  HEM600      0.0000
      9  CMA       -2.1530   30.1860   33.9990 C.3   600  HEM600      0.0000
     10  CAA       -3.7540   27.5780   34.9780 C.3   600  HEM600      0.0000
     11  CBA       -3.9530   26.5320   33.8690 C.3   600  HEM600      0.0000
     12  CGA       -5.4110   26.4110   33.4980 C.2   600  HEM600      0.0000
     13  O1A       -5.8580   27.1710   32.5900 O.co2 600  HEM600      0.0000
     14  O2A       -6.1090   25.5350   34.1100 O.co2 600  HEM600      0.0000
     15  C1B        2.2030   29.6160   35.2990 C.2   600  HEM600      0.0000
     16  C2B        3.3300   30.4520   34.9070 C.2   600  HEM600      0.0000
     17  C3B        4.4510   29.9680   35.4780 C.2   600  HEM600      0.0000
     18  C4B        4.0740   28.7970   36.2690 C.2   600  HEM600      0.0000
     19  CMB        3.1980   31.6910   33.9780 C.3   600  HEM600      0.0000
     20  CAB        5.9110   30.4880   35.4260 C.2   600  HEM600      0.0000
     21  CBB        6.1570   31.7880   35.1770 C.2   600  HEM600      0.0000
     22  C1C        4.6340   26.8800   37.6960 C.ar  600  HEM600      0.0000
     23  C2C        5.4580   26.1500   38.6300 C.ar  600  HEM600      0.0000
     24  C3C        4.8230   25.0430   38.9740 C.ar  600  HEM600      0.0000
     25  C4C        3.5480   25.0300   38.2600 C.ar  600  HEM600      0.0000
     26  CMC        6.8250   26.6220   39.1790 C.3   600  HEM600      0.0000
     27  CAC        5.4240   24.0040   39.9480 C.2   600  HEM600      0.0000
     28  CBC        4.6540   23.1000   40.5170 C.2   600  HEM600      0.0000
     29  C1D        1.2560   24.1370   37.8610 C.2   600  HEM600      0.0000
     30  C2D        0.2890   23.0670   37.9560 C.2   600  HEM600      0.0000
     31  C3D       -0.9940   23.6180   37.3940 C.2   600  HEM600      0.0000
     32  C4D       -0.6910   24.9750   37.0000 C.2   600  HEM600      0.0000
     33  CMD        0.4810   21.6360   38.5310 C.3   600  HEM600      0.0000
     34  CAD       -2.3500   22.9080   37.3180 C.3   600  HEM600      0.0000
     35  CBD       -2.9000   23.1030   38.7590 C.3   600  HEM600      0.0000
     36  CGD       -3.9880   22.1090   39.1250 C.2   600  HEM600      0.0000
     37  O1D       -4.2080   21.1370   38.3660 O.co2 600  HEM600      0.0000
     38  O2D       -4.6600   22.3000   40.1820 O.co2 600  HEM600      0.0000
     39  NA        -0.0300   27.6480   35.8840 N.ar  600  HEM600      0.0000
     40  NB         2.7130   28.6180   36.1030 N.2   600  HEM600      0.0000
     41  NC         3.4550   26.1920   37.4950 N.ar  600  HEM600      0.0000
     42  ND         0.6370   25.2300   37.2760 N.2   600  HEM600      0.0000
     43 FE          1.6110   27.0560   36.9540 Fe    600  HEM600      0.0000
@<TRIPOS>BOND
     1    13    12   ar
     2    12    11    1
     3    12    14   ar
     4    11    10    1
     5    19    16    1
     6     9     7    1
     7     7     6   ar
     8     7     8   ar
     9    16    15    1
    10    16    17    2
    11     2     8    2
    12     2    15    1
    13    10     6    1
    14    21    20    2
    15     6     5   ar
    16     8    39   ar
    17    15    40    2
    18    20    17    1
    19    17    18    1
    20     5    39   ar
    21     5     1    2
    22    39    43    1
    23    40    18    1
    24    40    43    1
    25    18     3    2
    26     1    32    1
    27    43    42    1
    28    43    41    1
    29    32    42    2
    30    32    31    1
    31     3    22    1
    32    42    29    1
    33    34    31    1
    34    34    35    1
    35    31    30    2
    36    41    22   ar
    37    41    25   ar
    38    22    23   ar
    39    29    30    1
    40    29     4    2
    41    30    33    1
    42    25     4    1
    43    25    24   ar
    44    37    36   ar
    45    23    24   ar
    46    23    26    1
    47    35    36    1
    48    24    27    1
    49    36    38   ar
    50    27    28    2
