@<TRIPOS>MOLECULE
2rch_243_A_1.pdb
 21 20 0 0 0
SMALL
GASTEIGER

@<TRIPOS>ATOM
      1  OAS       -0.6240   32.6940   26.3360 O.co2 601  243601     -0.2457
      2  CAA       -1.2820   31.8640   25.6440 C.2   601  243601      0.3649
      3  OAT       -2.4060   31.4040   25.9900 O.co2 601  243601     -0.2457
      4  CAB       -0.6260   31.2460   24.4160 C.3   601  243601      0.1141
      5  CAC        0.6790   30.4950   24.7170 C.3   601  243601      0.0118
      6  CAD        0.6710   29.6700   26.0080 C.3   601  243601      0.0006
      7  CAE       -0.1920   28.4190   25.8800 C.3   601  243601      0.0000
      8  CAF       -0.2750   27.6650   27.1980 C.3   601  243601      0.0000
      9  CAG       -1.5130   26.7780   27.2010 C.3   601  243601      0.0000
     10  CAH       -1.5190   25.9870   28.4840 C.3   601  243601      0.0003
     11  CAI       -2.1440   26.7920   29.6140 C.3   601  243601      0.0047
     12  CAJ       -1.4510   27.0390   30.7320 C.3   601  243601      0.0258
     13  CAK       -0.1120   27.0530   30.7990 C.2   601  243601     -0.0282
     14  CAL        0.4150   27.1650   32.0160 C.2   601  243601      0.0015
     15  CAM        1.8770   27.3260   32.3900 C.3   601  243601      0.1737
     16  OAU        2.0190   26.5860   33.6190 O.3   601  243601     -0.2183
     17  CAN        2.8580   26.7930   31.3480 C.3   601  243601      0.0375
     18  CAO        3.1970   27.7890   30.2450 C.3   601  243601      0.0030
     19  CAP        4.2020   27.1090   29.3330 C.3   601  243601      0.0001
     20  CAQ        4.0010   27.4730   27.8750 C.3   601  243601      0.0000
     21  CAR        5.2180   27.0330   27.0830 C.3   601  243601      0.0000
@<TRIPOS>BOND
     1     4     5    1
     2     4     2    1
     3     5     6    1
     4     2     3   ar
     5     2     1   ar
     6     7     6    1
     7     7     8    1
     8    21    20    1
     9     8     9    1
    10     9    10    1
    11    20    19    1
    12    10    11    1
    13    19    18    1
    14    11    12    1
    15    18    17    1
    16    12    13    1
    17    13    14    2
    18    17    15    1
    19    14    15    1
    20    15    16    1
