@<TRIPOS>MOLECULE
2rcl_T25_A_1.pdb
 21 21 0 0 0
SMALL
GASTEIGER

@<TRIPOS>ATOM
      1  O1        -2.5090   31.3760   25.8950 O.co2 601  T25601     -0.2457
      2  C1        -1.3040   31.7480   25.8160 C.2   601  T25601      0.3649
      3  O2        -0.7550   32.5500   26.6230 O.co2 601  T25601     -0.2457
      4  C2        -0.4610   31.1860   24.6790 C.3   601  T25601      0.1141
      5  C3         0.7240   30.3710   25.2180 C.3   601  T25601      0.0118
      6  C4         0.3230   29.1880   26.1090 C.3   601  T25601      0.0006
      7  C5        -0.8990   28.4240   25.5710 C.3   601  T25601      0.0000
      8  C6        -1.0850   27.0830   26.2740 C.3   601  T25601      0.0003
      9  C7        -2.1120   27.1440   27.3900 C.3   601  T25601      0.0047
     10  C8        -1.4990   26.5000   28.6260 C.3   601  T25601      0.0257
     11  C9        -2.3940   26.7810   29.8260 C.2   601  T25601     -0.0306
     12  C10       -1.6660   26.9970   31.1530 C.2   601  T25601     -0.0281
     13  C11       -0.1470   26.8830   31.1200 C.3   601  T25601      0.0577
     14  C12        0.3730   27.0360   32.5540 C.3   601  T25601      0.1465
     15  O3         1.0530   25.8650   33.0230 O.3   601  T25601     -0.3534
     16  C13        1.8960   26.9840   32.7120 C.3   601  T25601      0.1425
     17  C14        2.6780   26.6740   31.4410 C.3   601  T25601      0.0321
     18  C15        3.1980   27.9130   30.7120 C.3   601  T25601      0.0026
     19  C16        2.9640   27.7240   29.1940 C.3   601  T25601      0.0001
     20  C17        4.0780   26.8880   28.5800 C.3   601  T25601      0.0000
     21  C18        4.6390   27.5230   27.3210 C.3   601  T25601      0.0000
@<TRIPOS>BOND
     1     4     5    1
     2     4     2    1
     3     5     6    1
     4     7     6    1
     5     7     8    1
     6     2     1   ar
     7     2     3   ar
     8     8     9    1
     9    21    20    1
    10     9    10    1
    11    20    19    1
    12    10    11    1
    13    19    18    1
    14    11    12    2
    15    18    17    1
    16    13    12    1
    17    13    14    1
    18    17    16    1
    19    14    16    1
    20    14    15    1
    21    16    15    1
