@<TRIPOS>MOLECULE
2rcl_HEM_A_1.pdb
 43 50 0 0 0
SMALL
GASTEIGER

@<TRIPOS>ATOM
      1  CHA       -1.7180   25.7270   36.5040 C.2   600  HEM600      0.0000
      2  CHB        0.6370   29.7700   34.9680 C.2   600  HEM600      0.0000
      3  CHC        4.6940   28.0460   37.0810 C.2   600  HEM600      0.0000
      4  CHD        2.4550   23.9490   38.4490 C.2   600  HEM600      0.0000
      5  C1A       -1.4470   26.9770   35.9380 C.ar  600  HEM600      0.0000
      6  C2A       -2.4200   27.8370   35.2810 C.ar  600  HEM600      0.0000
      7  C3A       -1.7910   28.9520   34.8550 C.ar  600  HEM600      0.0000
      8  C4A       -0.3790   28.8510   35.2320 C.ar  600  HEM600      0.0000
      9  CMA       -2.4630   30.1480   34.1050 C.3   600  HEM600      0.0000
     10  CAA       -3.9230   27.4900   35.1110 C.3   600  HEM600      0.0000
     11  CBA       -4.1320   26.5310   33.9270 C.3   600  HEM600      0.0000
     12  CGA       -5.6060   26.4230   33.6020 C.2   600  HEM600      0.0000
     13  O1A       -6.0440   27.1040   32.6070 O.co2 600  HEM600      0.0000
     14  O2A       -6.3330   25.6730   34.3550 O.co2 600  HEM600      0.0000
     15  C1B        1.9910   29.6140   35.2940 C.2   600  HEM600      0.0000
     16  C2B        3.1450   30.3910   34.8520 C.2   600  HEM600      0.0000
     17  C3B        4.2540   29.9030   35.4560 C.2   600  HEM600      0.0000
     18  C4B        3.8550   28.8000   36.2810 C.2   600  HEM600      0.0000
     19  CMB        3.0740   31.5850   33.8730 C.3   600  HEM600      0.0000
     20  CAB        5.7320   30.3550   35.3390 C.2   600  HEM600      0.0000
     21  CBB        6.0800   31.6480   35.4020 C.2   600  HEM600      0.0000
     22  C1C        4.4050   26.8770   37.7510 C.ar  600  HEM600      0.0000
     23  C2C        5.2340   26.2130   38.7580 C.ar  600  HEM600      0.0000
     24  C3C        4.6390   25.0780   39.1360 C.ar  600  HEM600      0.0000
     25  C4C        3.3920   24.9720   38.3950 C.ar  600  HEM600      0.0000
     26  CMC        6.5920   26.7000   39.3360 C.3   600  HEM600      0.0000
     27  CAC        5.2720   24.1440   40.1970 C.2   600  HEM600      0.0000
     28  CBC        4.8450   22.9110   40.3860 C.2   600  HEM600      0.0000
     29  C1D        1.1370   24.0180   38.0060 C.2   600  HEM600      0.0000
     30  C2D        0.1500   22.9680   38.1420 C.2   600  HEM600      0.0000
     31  C3D       -1.1360   23.5100   37.5580 C.2   600  HEM600      0.0000
     32  C4D       -0.8260   24.8510   37.1180 C.2   600  HEM600      0.0000
     33  CMD        0.3450   21.5800   38.7760 C.3   600  HEM600      0.0000
     34  CAD       -2.4870   22.7770   37.5070 C.3   600  HEM600      0.0000
     35  CBD       -3.1360   23.0330   38.8900 C.3   600  HEM600      0.0000
     36  CGD       -4.2390   22.0480   39.2690 C.2   600  HEM600      0.0000
     37  O1D       -4.5530   21.1020   38.4670 O.co2 600  HEM600      0.0000
     38  O2D       -4.8330   22.2260   40.3850 O.co2 600  HEM600      0.0000
     39  NA        -0.2160   27.6310   35.8980 N.ar  600  HEM600      0.0000
     40  NB         2.4890   28.6430   36.1410 N.2   600  HEM600      0.0000
     41  NC         3.2910   26.0960   37.5620 N.ar  600  HEM600      0.0000
     42  ND         0.5160   25.1020   37.4080 N.2   600  HEM600      0.0000
     43 FE          1.3990   26.9620   37.0510 Fe    600  HEM600      0.0000
@<TRIPOS>BOND
     1    13    12   ar
     2    12    11    1
     3    12    14   ar
     4    19    16    1
     5    11    10    1
     6     9     7    1
     7    16    15    1
     8    16    17    2
     9     7     8   ar
    10     7     6   ar
    11     2     8    2
    12     2    15    1
    13    10     6    1
    14     8    39   ar
    15     6     5   ar
    16    15    40    2
    17    20    21    2
    18    20    17    1
    19    17    18    1
    20    39     5   ar
    21    39    43    1
    22     5     1    2
    23    40    18    1
    24    40    43    1
    25    18     3    2
    26     1    32    1
    27    43    42    1
    28    43    41    1
    29     3    22    1
    30    32    42    2
    31    32    31    1
    32    42    29    1
    33    34    31    1
    34    34    35    1
    35    31    30    2
    36    41    22   ar
    37    41    25   ar
    38    22    23   ar
    39    29    30    1
    40    29     4    2
    41    30    33    1
    42    25     4    1
    43    25    24   ar
    44    37    36   ar
    45    23    24   ar
    46    23    26    1
    47    35    36    1
    48    24    27    1
    49    36    38   ar
    50    27    28    2
