@<TRIPOS>MOLECULE
2rcm_HEM_A_1.pdb
 43 50 0 0 0
SMALL
GASTEIGER

@<TRIPOS>ATOM
      1  CHA       -1.7380   25.5970   36.3490 C.2   600  HEM600      0.0000
      2  CHB        0.6340   29.5710   34.9670 C.2   600  HEM600      0.0000
      3  CHC        4.6790   27.8240   36.9670 C.2   600  HEM600      0.0000
      4  CHD        2.4030   23.8080   38.2630 C.2   600  HEM600      0.0000
      5  C1A       -1.4690   26.8420   35.8180 C.ar  600  HEM600      0.0000
      6  C2A       -2.4200   27.6860   35.1190 C.ar  600  HEM600      0.0000
      7  C3A       -1.7550   28.8050   34.7700 C.ar  600  HEM600      0.0000
      8  C4A       -0.3770   28.6700   35.1980 C.ar  600  HEM600      0.0000
      9  CMA       -2.3120   30.0150   33.9770 C.3   600  HEM600      0.0000
     10  CAA       -3.9120   27.3480   34.8860 C.3   600  HEM600      0.0000
     11  CBA       -4.0810   26.3230   33.7480 C.3   600  HEM600      0.0000
     12  CGA       -5.5330   26.2240   33.3370 C.2   600  HEM600      0.0000
     13  O1A       -5.9140   26.9220   32.3610 O.co2 600  HEM600      0.0000
     14  O2A       -6.2800   25.4190   33.9670 O.co2 600  HEM600      0.0000
     15  C1B        1.9630   29.4070   35.2780 C.2   600  HEM600      0.0000
     16  C2B        3.0960   30.2410   34.8870 C.2   600  HEM600      0.0000
     17  C3B        4.2130   29.7290   35.4230 C.2   600  HEM600      0.0000
     18  C4B        3.8300   28.5570   36.1870 C.2   600  HEM600      0.0000
     19  CMB        2.9700   31.4670   33.9550 C.3   600  HEM600      0.0000
     20  CAB        5.6720   30.2170   35.3330 C.2   600  HEM600      0.0000
     21  CBB        5.9250   31.5140   35.1400 C.2   600  HEM600      0.0000
     22  C1C        4.4060   26.6490   37.6290 C.ar  600  HEM600      0.0000
     23  C2C        5.2320   25.9450   38.5910 C.ar  600  HEM600      0.0000
     24  C3C        4.6010   24.8270   38.9310 C.ar  600  HEM600      0.0000
     25  C4C        3.3560   24.7960   38.1900 C.ar  600  HEM600      0.0000
     26  CMC        6.5930   26.4260   39.1310 C.3   600  HEM600      0.0000
     27  CAC        5.0780   23.7310   39.9180 C.2   600  HEM600      0.0000
     28  CBC        4.1980   23.1110   40.6850 C.2   600  HEM600      0.0000
     29  C1D        1.0960   23.9130   37.8260 C.2   600  HEM600      0.0000
     30  C2D        0.1270   22.8560   37.9430 C.2   600  HEM600      0.0000
     31  C3D       -1.1480   23.4010   37.3750 C.2   600  HEM600      0.0000
     32  C4D       -0.8400   24.7470   36.9210 C.2   600  HEM600      0.0000
     33  CMD        0.3150   21.4420   38.5500 C.3   600  HEM600      0.0000
     34  CAD       -2.4850   22.6600   37.2970 C.3   600  HEM600      0.0000
     35  CBD       -3.1010   22.8170   38.6920 C.3   600  HEM600      0.0000
     36  CGD       -4.2370   21.8510   38.9710 C.2   600  HEM600      0.0000
     37  O1D       -4.4610   20.9070   38.1900 O.co2 600  HEM600      0.0000
     38  O2D       -4.8930   22.0920   40.0070 O.co2 600  HEM600      0.0000
     39  NA        -0.2180   27.4580   35.8580 N.ar  600  HEM600      0.0000
     40  NB         2.4750   28.3970   36.0330 N.2   600  HEM600      0.0000
     41  NC         3.2370   25.9450   37.4250 N.ar  600  HEM600      0.0000
     42  ND         0.4910   24.9940   37.2120 N.2   600  HEM600      0.0000
     43 FE          1.4280   26.8260   36.9140 Fe    600  HEM600      0.0000
@<TRIPOS>BOND
     1    13    12   ar
     2    12    11    1
     3    12    14   ar
     4    11    10    1
     5    19    16    1
     6     9     7    1
     7     7     6   ar
     8     7     8   ar
     9    10     6    1
    10    16    15    1
    11    16    17    2
    12     2     8    2
    13     2    15    1
    14     6     5   ar
    15    21    20    2
    16     8    39   ar
    17    15    40    2
    18    20    17    1
    19    17    18    1
    20     5    39   ar
    21     5     1    2
    22    39    43    1
    23    40    18    1
    24    40    43    1
    25    18     3    2
    26     1    32    1
    27    43    42    1
    28    43    41    1
    29    32    42    2
    30    32    31    1
    31     3    22    1
    32    42    29    1
    33    34    31    1
    34    34    35    1
    35    31    30    2
    36    41    22   ar
    37    41    25   ar
    38    22    23   ar
    39    29    30    1
    40    29     4    2
    41    30    33    1
    42    25     4    1
    43    25    24   ar
    44    37    36   ar
    45    23    24   ar
    46    23    26    1
    47    35    36    1
    48    24    27    1
    49    36    38   ar
    50    27    28    2
