@<TRIPOS>MOLECULE
2rcn_GDP_A_1.pdb
 28 30 0 0 0
SMALL
GASTEIGER

@<TRIPOS>ATOM
      1  PB        18.3700   65.5040  -14.1160 P.3   600  GDP600      0.5373
      2  O1B       17.8300   66.0120  -12.8320 O.3   600  GDP600     -0.1143
      3  O2B       17.3780   65.9200  -15.3050 O.2   600  GDP600     -0.2221
      4  O3B       18.4630   63.9020  -14.0360 O.3   600  GDP600     -0.1143
      5  O3A       19.8240   66.1860  -14.3680 O.3   600  GDP600     -0.2261
      6  PA        20.8560   65.1870  -15.1540 P.3   600  GDP600      0.2231
      7  O1A       20.2310   64.6020  -16.3640 O.2   600  GDP600     -0.5169
      8  O2A       21.3190   64.0030  -14.1730 O.3   600  GDP600     -0.4370
      9  O5'       22.1630   66.0400  -15.5680 O.3   600  GDP600     -0.3111
     10  C5'       21.7500   67.1750  -16.3510 C.3   600  GDP600      0.1813
     11  C4'       22.9950   68.0110  -16.7290 C.3   600  GDP600      0.1799
     12  O4'       23.6530   68.5040  -15.5170 O.3   600  GDP600     -0.3326
     13  C3'       24.0730   67.1810  -17.5110 C.3   600  GDP600      0.2158
     14  O3'       23.5320   65.9840  -18.0880 O.3   600  GDP600     -0.2175
     15  C2'       25.0960   66.8430  -16.4230 C.3   600  GDP600      0.2310
     16  O2'       26.3900   66.6300  -16.9800 O.3   600  GDP600     -0.2158
     17  C1'       25.0550   68.1240  -15.5790 C.3   600  GDP600      0.2293
     18  N9        25.5980   67.9090  -14.2360 N.pl3 600  GDP600     -0.2354
     19  C8        25.1310   67.0230  -13.2920 C.3   600  GDP600      0.2246
     20  N7        25.7590   67.1960  -12.1630 N.2   600  GDP600     -0.2322
     21  C5        26.5880   68.2580  -12.2780 C.2   600  GDP600      0.2182
     22  C6        27.5790   68.8470  -11.4360 C.1   600  GDP600      0.2372
     23  O6        27.7180   68.4680  -10.2870 O.2   600  GDP600     -0.2069
     24  N1        28.2810   69.9310  -11.9070 N.2   600  GDP600     -0.2485
     25  C2        28.1700   70.3190  -13.2280 C.1   600  GDP600      0.2531
     26  N2        29.0040   71.2880  -13.7220 N.pl3 600  GDP600     -0.0226
     27  N3        27.3130   69.7160  -14.0470 N.2   600  GDP600     -0.3074
     28  C4        26.4730   68.7440  -13.6070 C.2   600  GDP600      0.2300
@<TRIPOS>BOND
     1    14    13    1
     2    13    11    1
     3    13    15    1
     4    16    15    1
     5    11    10    1
     6    11    12    1
     7    15    17    1
     8     7     6    2
     9    10     9    1
    10    17    12    1
    11    17    18    1
    12     9     6    1
    13     3     1    2
    14     6     5    1
    15     6     8    1
    16     5     1    1
    17    18    28    1
    18    18    19    1
    19     1     4    1
    20     1     2    1
    21    27    28    2
    22    27    25    2
    23    26    25    1
    24    28    21    1
    25    19    20    1
    26    25    24    2
    27    21    20    2
    28    21    22    1
    29    24    22    2
    30    22    23    2
