@<TRIPOS>MOLECULE
2rcr_UQ_L_1.pdb
 48 48 0 0 0
SMALL
GASTEIGER

@<TRIPOS>ATOM
      1  C1         2.3900  -26.5820   -2.9100 C.2   800  UQ800       0.2285
      2  C2         2.5490  -26.7920   -4.3620 C.2   800  UQ800       0.2140
      3  C3         2.0200  -27.8750   -4.8730 C.2   800  UQ800       0.2140
      4  C4         1.2590  -28.8090   -4.0750 C.2   800  UQ800       0.2282
      5  C5         1.0610  -28.5940   -2.6150 C.2   800  UQ800       0.0198
      6  C6         1.5930  -27.4920   -2.0690 C.2   800  UQ800       0.0235
      7  CM5        0.2620  -29.5320   -1.7480 C.3   800  UQ800       0.0343
      8  CM3        1.2060  -27.1720   -6.8190 C.3   800  UQ800       0.2528
      9  CM2        3.0520  -24.6170   -5.3900 C.3   800  UQ800       0.2528
     10  C7         1.5520  -27.2110   -0.5860 C.3   800  UQ800       0.0548
     11  C8         0.2380  -26.9820    0.2990 C.2   800  UQ800      -0.0298
     12  C9        -0.0130  -27.4750    1.4880 C.2   800  UQ800      -0.0475
     13  C10        1.0600  -28.2950    2.2490 C.3   800  UQ800       0.0260
     14  C11       -1.4570  -27.1830    2.0450 C.3   800  UQ800       0.0264
     15  C12       -1.7790  -27.6010    3.5110 C.3   800  UQ800       0.0297
     16  C13       -3.2560  -27.2150    3.7870 C.2   800  UQ800      -0.0342
     17  C14       -3.6030  -26.0840    4.3400 C.2   800  UQ800      -0.0478
     18  C15       -5.1170  -25.8290    4.5380 C.3   800  UQ800       0.0260
     19  C16       -2.5130  -25.0420    4.7930 C.3   800  UQ800       0.0263
     20  C17       -2.6970  -24.6490    5.9520 C.3   800  UQ800       0.0297
     21  C18       -1.3620  -24.7550    6.6660 C.2   800  UQ800      -0.0342
     22  C19       -1.1180  -23.9920    7.6360 C.2   800  UQ800      -0.0478
     23  C20        0.2470  -24.1720    8.2770 C.3   800  UQ800       0.0260
     24  C21       -2.1780  -22.9580    8.1050 C.3   800  UQ800       0.0263
     25  C22       -1.7010  -21.7690    9.0270 C.3   800  UQ800       0.0297
     26  C23       -1.4840  -20.4030    8.2810 C.2   800  UQ800      -0.0342
     27  C24       -1.2110  -19.1980    8.7750 C.2   800  UQ800      -0.0478
     28  C25       -1.0780  -18.1050    7.6870 C.3   800  UQ800       0.0260
     29  C26       -1.0660  -18.8250   10.3180 C.3   800  UQ800       0.0263
     30  C27        0.3450  -18.5010   10.9380 C.3   800  UQ800       0.0297
     31  C28        1.1560  -17.5200   10.0890 C.2   800  UQ800      -0.0342
     32  C29        2.1570  -16.7660   10.4970 C.2   800  UQ800      -0.0478
     33  C30        2.7360  -15.9080    9.3560 C.3   800  UQ800       0.0260
     34  C31        2.7780  -16.6690   11.9560 C.3   800  UQ800       0.0263
     35  C32        3.7680  -15.4680   12.2010 C.3   800  UQ800       0.0297
     36  C33        5.2250  -15.9500   12.5140 C.2   800  UQ800      -0.0343
     37  C34        6.4250  -15.6110   11.9300 C.2   800  UQ800      -0.0482
     38  C35        6.6590  -14.5660   10.7460 C.3   800  UQ800       0.0260
     39  C36        7.7290  -16.2860   12.4950 C.3   800  UQ800       0.0217
     40  C37        8.7410  -15.1370   12.2750 C.3   800  UQ800       0.0043
     41  C38       10.1500  -15.4420   12.7960 C.3   800  UQ800       0.0003
     42  C39       10.9780  -14.4390   12.6560 C.3   800  UQ800       0.0000
     43  C40       10.4830  -13.1010   12.0010 C.3   800  UQ800       0.0000
     44  C41       12.4290  -14.6190   13.1630 C.3   800  UQ800       0.0000
     45  O2         3.2940  -26.0020   -5.1780 O.2   800  UQ800      -0.4652
     46  O3         2.1240  -28.0630   -6.1610 O.2   800  UQ800      -0.4652
     47  O4         0.7860  -29.7590   -4.6630 O.2   800  UQ800      -0.2836
     48  O1         2.8620  -25.6170   -2.3690 O.2   800  UQ800      -0.2835
@<TRIPOS>BOND
     1     8    46    1
     2    46     3    1
     3     9    45    1
     4    45     2    1
     5     3     2    2
     6     3     4    1
     7    47     4    2
     8     2     1    1
     9     4     5    1
    10     1    48    2
    11     1     6    1
    12     5     6    2
    13     5     7    1
    14     6    10    1
    15    10    11    1
    16    11    12    2
    17    12    14    1
    18    12    13    1
    19    14    15    1
    20    15    16    1
    21    16    17    2
    22    17    18    1
    23    17    19    1
    24    19    20    1
    25    20    21    1
    26    21    22    2
    27    22    24    1
    28    22    23    1
    29    28    27    1
    30    24    25    1
    31    26    27    2
    32    26    25    1
    33    27    29    1
    34    33    32    1
    35    31    32    2
    36    31    30    1
    37    29    30    1
    38    32    34    1
    39    38    37    1
    40    37    39    1
    41    37    36    2
    42    34    35    1
    43    43    42    1
    44    35    36    1
    45    40    39    1
    46    40    41    1
    47    42    41    1
    48    42    44    1
