@<TRIPOS>MOLECULE
2rct_RTL_A_1.pdb
 21 21 0 0 0
SMALL
GASTEIGER

@<TRIPOS>ATOM
      1  C1        19.4920   -5.5900   12.8000 C.3   140  RTL140      0.0183
      2  C2        20.1880   -6.6360   13.6690 C.3   140  RTL140      0.0044
      3  C3        20.5530   -6.0940   15.0450 C.3   140  RTL140      0.0047
      4  C4        21.5760   -4.9780   14.9100 C.3   140  RTL140      0.0217
      5  C5        21.1940   -4.0040   13.8100 C.2   140  RTL140     -0.0479
      6  C6        20.1910   -4.2250   12.9260 C.2   140  RTL140     -0.0307
      7  C7        19.8050   -3.0480   12.0970 C.2   140  RTL140     -0.0052
      8  C8        18.9180   -3.0360   11.1030 C.2   140  RTL140     -0.0046
      9  C9        18.6500   -1.7680   10.3930 C.2   140  RTL140     -0.0219
     10  C10       17.5260   -1.6810    9.6640 C.2   140  RTL140     -0.0046
     11  C11       17.1470   -0.4760    8.9370 C.2   140  RTL140     -0.0049
     12  C12       15.9860   -0.4800    8.2910 C.2   140  RTL140     -0.0264
     13  C13       15.4810    0.7260    7.5310 C.3   140  RTL140      0.0246
     14  C14       14.2150    0.2830    6.7920 C.3   140  RTL140      0.0399
     15  C15       13.5040    1.4250    6.0820 C.3   140  RTL140      0.1824
     16  O1        12.6950    0.8890    5.0300 O.3   140  RTL140     -0.2204
     17  C16       19.5610   -6.0950   11.3610 C.3   140  RTL140      0.0043
     18  C17       18.0240   -5.4760   13.2250 C.3   140  RTL140      0.0043
     19  C18       21.9880   -2.7280   13.7270 C.3   140  RTL140      0.0260
     20  C19       19.6150   -0.6090   10.5020 C.3   140  RTL140      0.0310
     21  C20       16.5830    1.3440    6.6570 C.3   140  RTL140      0.0048
@<TRIPOS>BOND
     1    16    15    1
     2    15    14    1
     3    21    13    1
     4    14    13    1
     5    13    12    1
     6    12    11    2
     7    11    10    1
     8    10     9    2
     9     9    20    1
    10     9     8    1
    11     8     7    2
    12    17     1    1
    13     7     6    1
    14     1     6    1
    15     1    18    1
    16     1     2    1
    17     6     5    2
    18     2     3    1
    19    19     5    1
    20     5     4    1
    21     4     3    1
