@<TRIPOS>MOLECULE
2rcu_BUJ_A_1.pdb
 28 27 0 0 0
SMALL
GASTEIGER

@<TRIPOS>ATOM
      1  O14       21.3270    9.7970   62.9310 O.co2   0  BUJ0       -0.2456
      2  C7        21.2660    9.7460   61.6790 C.2     0  BUJ0        0.3665
      3  O13       21.8870   10.5360   60.9120 O.co2   0  BUJ0       -0.2456
      4  C4        20.3860    8.6610   61.0660 C.3     0  BUJ0        0.1335
      5  C1        20.2330    8.8220   59.5510 C.3     0  BUJ0        0.0865
      6  C3        19.0980    9.8130   59.2270 C.3     0  BUJ0       -0.0506
      7  N6        19.0950   10.3320   57.8430 N.4     0  BUJ0        0.3869
      8  C12       20.3340   11.0750   57.4960 C.3     0  BUJ0       -0.0959
      9  C11       17.9940   11.3020   57.7460 C.3     0  BUJ0       -0.0959
     10  C10       18.8290    9.2190   56.9240 C.3     0  BUJ0       -0.0959
     11  N2        19.7800    7.4750   59.2290 N.am    0  BUJ0       -0.2087
     12  C5        20.4600    6.6710   58.4170 C.2     0  BUJ0        0.2413
     13  O9        21.4920    6.9790   57.8050 O.2     0  BUJ0       -0.2733
     14  C8        19.8000    5.3170   58.2700 C.3     0  BUJ0        0.0868
     15  C15       20.7860    4.3680   57.6640 C.3     0  BUJ0        0.0096
     16  C16       20.3540    4.0220   56.2620 C.3     0  BUJ0        0.0005
     17  C17       19.5260    5.0980   55.5700 C.3     0  BUJ0        0.0000
     18  C18       19.4110    4.6330   54.1250 C.3     0  BUJ0        0.0000
     19  C19       20.8060    4.6300   53.5130 C.3     0  BUJ0        0.0000
     20  C20       20.8380    3.7510   52.2750 C.3     0  BUJ0        0.0000
     21  C21       22.0350    4.0430   51.3850 C.3     0  BUJ0        0.0000
     22  C22       22.0410    2.9770   50.2860 C.3     0  BUJ0        0.0000
     23  C23       22.8220    3.3520   49.0330 C.3     0  BUJ0        0.0000
     24  C24       21.8790    3.8350   47.9340 C.3     0  BUJ0        0.0000
     25  C25       22.3300    3.3890   46.5490 C.3     0  BUJ0        0.0000
     26  C26       21.5300    4.0550   45.4310 C.3     0  BUJ0        0.0000
     27  C27       22.1440    3.7350   44.0740 C.3     0  BUJ0        0.0000
     28  C28       21.1070    3.5840   42.9760 C.3     0  BUJ0        0.0000
@<TRIPOS>BOND
     1    28    27    1
     2    27    26    1
     3    26    25    1
     4    25    24    1
     5    24    23    1
     6    23    22    1
     7    22    21    1
     8    21    20    1
     9    20    19    1
    10    19    18    1
    11    18    17    1
    12    17    16    1
    13    16    15    1
    14    10     7    1
    15     8     7    1
    16    15    14    1
    17     9     7    1
    18    13    12    2
    19     7     6    1
    20    14    12    1
    21    12    11   am
    22     6     5    1
    23    11     5    1
    24     5     4    1
    25     3     2   ar
    26     4     2    1
    27     2     1   ar
