@<TRIPOS>MOLECULE
2rcw_AAI_A_1.pdb
 21 23 0 0 0
SMALL
GASTEIGER

@<TRIPOS>ATOM
      1  C1       -24.8700   64.2680   26.2490 C.1   400  AAI400      0.1124
      2  N2       -24.8790   65.1870   25.2770 N.2   400  AAI400     -0.3409
      3  C3       -26.1880   65.2880   24.8200 C.ar  400  AAI400      0.1782
      4  C4       -26.9610   64.3500   25.6060 C.ar  400  AAI400      0.1739
      5  N5       -26.0850   63.7380   26.4860 N.2   400  AAI400     -0.3411
      6  C6       -26.8180   66.0740   23.8240 C.ar  400  AAI400      0.0897
      7  C7       -28.2260   65.9160   23.6140 C.ar  400  AAI400      0.0074
      8  C8       -28.9780   64.9920   24.3890 C.ar  400  AAI400      0.0030
      9  C9       -28.3310   64.2120   25.3860 C.ar  400  AAI400      0.0357
     10  C10      -26.0900   67.0640   22.9750 C.2   400  AAI400      0.2868
     11  N11      -24.7680   67.1630   23.1620 N.am  400  AAI400     -0.0836
     12  O12      -26.6380   67.7780   22.1380 O.2   400  AAI400     -0.2666
     13  C13      -23.6070   63.8700   27.0030 C.3   400  AAI400      0.1118
     14  C14      -23.1630   65.0110   27.9420 C.3   400  AAI400      0.0343
     15  C15      -21.9360   64.5860   28.7820 C.3   400  AAI400      0.0732
     16  N16      -22.1970   63.3540   29.5870 N.3   400  AAI400     -0.2726
     17  C17      -22.6400   62.2200   28.7170 C.3   400  AAI400      0.0732
     18  C18      -23.8530   62.5720   27.8200 C.3   400  AAI400      0.0343
     19  C19      -21.0040   62.9840   30.4080 C.3   400  AAI400      0.0721
     20  C20      -19.7140   62.6330   29.6230 C.3   400  AAI400      0.0173
     21  C21      -18.5410   62.2900   30.5470 C.3   400  AAI400      0.0015
@<TRIPOS>BOND
     1    12    10    2
     2    10    11   am
     3    10     6    1
     4     7     6   ar
     5     7     8   ar
     6     6     3   ar
     7     8     9   ar
     8     3     2    2
     9     3     4   ar
    10     2     1    2
    11     9     4   ar
    12     4     5    2
    13     1     5    2
    14     1    13    1
    15    13    18    1
    16    13    14    1
    17    18    17    1
    18    14    15    1
    19    17    16    1
    20    15    16    1
    21    16    19    1
    22    20    19    1
    23    20    21    1
