@<TRIPOS>MOLECULE
2rcx_SM4_A_1.pdb
 24 25 0 0 0
SMALL
GASTEIGER

@<TRIPOS>ATOM
      1  O24       19.9790    8.9750   17.9530 O.co2 964  SM4964      0.0000
      2  C22       20.5380    7.8840   18.1810 C.2   964  SM4964      0.0000
      3  O23       20.0410    7.0750   18.9750 O.co2 964  SM4964      0.0000
      4  C21       21.8050    7.5480   17.5030 C.2   964  SM4964      0.0000
      5  CAU       22.5300    8.5440   16.9920 C.2   964  SM4964      0.0000
      6  CAR       23.7790    8.3660   16.2240 C.ar  964  SM4964      0.0000
      7  CAQ       24.3560    7.1200   15.9620 C.ar  964  SM4964      0.0000
      8  CAS       24.3870    9.5180   15.7540 C.ar  964  SM4964      0.0000
      9  CAN       25.5650    9.4440   15.0320 C.ar  964  SM4964      0.0000
     10  CAM       26.1550    8.2240   14.7600 C.ar  964  SM4964      0.0000
     11  CAL       25.5410    7.0760   15.2190 C.ar  964  SM4964      0.0000
     12  CAK       26.1950    5.8050   14.9360 C.3   964  SM4964      0.0000
     13  B         26.5010    5.2470   16.4040 B     964  SM4964      0.0000
     14  OAT       27.1180    6.1910   17.4580 O.3   964  SM4964      0.0000
     15  OAO       25.7120    4.0390   16.8950 O.3   964  SM4964      0.0000
     16  N         25.2830    4.9740   14.1740 N.am  964  SM4964      0.0000
     17  CAH       24.9020    5.3260   12.9530 C.2   964  SM4964      0.0000
     18  OAI       25.2850    6.3350   12.3570 O.2   964  SM4964      0.0000
     19  CAG       23.9420    4.3650   12.3230 C.3   964  SM4964      0.0000
     20  CAE       22.5870    4.9740   12.1220 C.ar  964  SM4964      0.0000
     21  CAF       21.7300    5.0040   11.0350 C.ar  964  SM4964      0.0000
     22  CAC       20.5400    5.6740   11.3230 C.ar  964  SM4964      0.0000
     23  CAB       20.3960    6.1860   12.6050 C.ar  964  SM4964      0.0000
     24  SAD       21.8420    5.7830   13.4560 S.2   964  SM4964      0.0000
@<TRIPOS>BOND
     1    21    22   ar
     2    21    20   ar
     3    22    23   ar
     4    20    19    1
     5    20    24   ar
     6    19    17    1
     7    18    17    2
     8    23    24   ar
     9    17    16   am
    10    16    12    1
    11    10     9   ar
    12    10    11   ar
    13    12    11    1
    14    12    13    1
    15     9     8   ar
    16    11     7   ar
    17     8     6   ar
    18     7     6   ar
    19     6     5    1
    20    13    15    1
    21    13    14    1
    22     5     4    2
    23     4     2    1
    24     1     2   ar
    25     2     3   ar
