@<TRIPOS>MOLECULE
2rcy_NAP_A_1.pdb
 48 52 0 0 0
SMALL
GASTEIGER

@<TRIPOS>ATOM
      1  PA        57.1020   46.8050   14.1370 P.3   264  NAP264      0.2189
      2  O1A       56.8150   47.1770   12.7040 O.2   264  NAP264     -0.5170
      3  O2A       58.4040   47.2390   14.7670 O.3   264  NAP264     -0.4371
      4  O5B       55.8630   47.3030   15.0370 O.3   264  NAP264     -0.3112
      5  C5B       56.0110   47.7390   16.3860 C.3   264  NAP264      0.1813
      6  C4B       55.2230   49.0320   16.5480 C.3   264  NAP264      0.1820
      7  O4B       54.9000   49.2640   17.9210 O.3   264  NAP264     -0.3136
      8  C3B       56.0180   50.2350   16.0620 C.3   264  NAP264      0.2157
      9  O3B       55.3140   50.8650   14.9870 O.3   264  NAP264     -0.2175
     10  C2B       56.1270   51.1670   17.2550 C.3   264  NAP264      0.2314
     11  O2B       55.8610   52.5230   16.8980 O.3   264  NAP264     -0.2630
     12  C1B       55.0800   50.6480   18.2320 C.3   264  NAP264      0.3158
     13  N9A       55.4710   50.7980   19.6600 N.pl3 264  NAP264     -0.1439
     14  C8A       56.7160   50.8630   20.1600 C.3   264  NAP264      0.3377
     15  N7A       56.6500   50.9960   21.5040 N.2   264  NAP264     -0.2095
     16  C5A       55.3470   51.0090   21.8460 C.2   264  NAP264      0.2526
     17  C6A       54.6730   51.1170   23.0590 C.2   264  NAP264      0.4393
     18  N6A       55.3600   51.2400   24.2200 N.pl3 264  NAP264      0.2180
     19  N1A       53.3200   51.0970   23.0690 N.2   264  NAP264      0.0021
     20  C2A       52.6230   50.9760   21.9270 C.3   264  NAP264      0.5254
     21  N3A       53.2500   50.8700   20.7450 N.2   264  NAP264     -0.0055
     22  C4A       54.6090   50.8820   20.6790 C.2   264  NAP264      0.3518
     23  O3        56.9820   45.2080   14.2920 O.3   264  NAP264     -0.2703
     24  PN        55.8000   44.3730   13.5860 P.3   264  NAP264      0.2189
     25  O1N       56.3920   43.6390   12.4090 O.2   264  NAP264     -0.5170
     26  O2N       54.6000   45.2690   13.3910 O.3   264  NAP264     -0.4371
     27  O5D       55.4410   43.2610   14.6880 O.3   264  NAP264     -0.3112
     28  C5D       54.7110   43.5640   15.8730 C.3   264  NAP264      0.1813
     29  C4D       54.2320   42.2590   16.5010 C.3   264  NAP264      0.1799
     30  O4D       53.4220   41.5340   15.5730 O.3   264  NAP264     -0.3327
     31  C3D       55.3880   41.3480   16.8940 C.3   264  NAP264      0.2158
     32  O3D       55.1980   40.9320   18.2480 O.3   264  NAP264     -0.2175
     33  C2D       55.3090   40.1610   15.9500 C.3   264  NAP264      0.2309
     34  O2D       55.6170   38.9250   16.6020 O.3   264  NAP264     -0.2158
     35  C1D       53.8630   40.1740   15.4820 C.3   264  NAP264      0.2263
     36  N1N       53.6900   39.6490   14.1220 N.pl3 264  NAP264     -0.2787
     37  C2N       54.2210   40.2900   13.0650 C.3   264  NAP264      0.1244
     38  C3N       54.0460   39.7940   11.7750 C.2   264  NAP264      0.0544
     39  C7N       54.6330   40.5200   10.6010 C.2   264  NAP264      0.2818
     40  O7N       55.3820   41.6060   10.7800 O.2   264  NAP264     -0.2670
     41  N7N       54.3980   40.1120    9.4370 N.am  264  NAP264     -0.0839
     42  C4N       53.3150   38.6210   11.5850 C.2   264  NAP264      0.0033
     43  C5N       52.7760   37.9760   12.6920 C.2   264  NAP264      0.0157
     44  C6N       52.9810   38.5190   13.9590 C.2   264  NAP264      0.0633
     45  P2B       56.9930   53.4820   16.2610 P.3   264  NAP264      0.5328
     46  O1X       56.4180   54.8700   16.4320 O.3   264  NAP264     -0.1145
     47  O2X       58.2360   53.2170   17.0800 O.3   264  NAP264     -0.1145
     48  O3X       57.0920   53.0390   14.8210 O.2   264  NAP264     -0.2224
@<TRIPOS>BOND
     1    41    39   am
     2    39    40    2
     3    39    38    1
     4    42    38    2
     5    42    43    1
     6    38    37    1
     7    25    24    2
     8    43    44    2
     9     2     1    2
    10    37    36    1
    11    26    24    1
    12    24    23    1
    13    24    27    1
    14    44    36    1
    15    36    35    1
    16     1    23    1
    17     1     3    1
    18     1     4    1
    19    27    28    1
    20    48    45    2
    21     9     8    1
    22     4     5    1
    23    35    30    1
    24    35    33    1
    25    30    29    1
    26    28    29    1
    27    33    34    1
    28    33    31    1
    29     8     6    1
    30     8    10    1
    31    45    46    1
    32    45    11    1
    33    45    47    1
    34     5     6    1
    35    29    31    1
    36     6     7    1
    37    31    32    1
    38    11    10    1
    39    10    12    1
    40     7    12    1
    41    12    13    1
    42    13    14    1
    43    13    22    1
    44    14    15    1
    45    22    21    2
    46    22    16    1
    47    21    20    1
    48    15    16    2
    49    16    17    1
    50    20    19    1
    51    17    19    2
    52    17    18    1
