@<TRIPOS>MOLECULE
2rd2_QSI_A_1.pdb
 32 34 0 0 0
SMALL
GASTEIGER

@<TRIPOS>ATOM
      1  N         46.4670   31.7990   13.9580 N.3   998  QSI998     -0.1230
      2  CA        45.3950   31.8260   14.9630 C.3   998  QSI998      0.1714
      3  CB        44.1110   32.3240   14.3090 C.3   998  QSI998      0.0381
      4  CG        43.6580   33.6010   15.0050 C.3   998  QSI998      0.0905
      5  CD        42.2370   33.9740   14.6480 C.2   998  QSI998      0.2608
      6  OE1       41.5730   33.2960   13.8940 O.2   998  QSI998     -0.2717
      7  NE2       41.7080   35.0860   15.1760 N.am  998  QSI998     -0.0878
      8  C         45.1560   30.4360   15.4420 C.2   998  QSI998      0.2798
      9  O         44.4520   30.2400   16.4160 O.2   998  QSI998     -0.2701
     10  N10       45.7230   29.4050   14.7730 N.am  998  QSI998     -0.0577
     11  S         45.4970   27.8250   15.1970 S.3   998  QSI998      0.0852
     12  O1S       45.9260   27.7220   16.5240 O.3   998  QSI998     -0.0508
     13  O2S       46.0880   27.0930   14.1470 O.3   998  QSI998     -0.0508
     14  O5'       44.0030   27.4490   15.1600 O.3   998  QSI998     -0.2230
     15  C5'       43.3630   27.9520   13.9500 C.3   998  QSI998      0.2064
     16  C4'       41.8800   28.2260   14.2300 C.3   998  QSI998      0.1842
     17  O4'       41.4110   27.1660   15.0430 O.3   998  QSI998     -0.3135
     18  C1'       40.5920   27.7270   16.0810 C.3   998  QSI998      0.3186
     19  N9        40.6360   26.8380   17.2310 N.pl3 998  QSI998     -0.1439
     20  C4        39.5740   26.2280   17.8120 C.2   998  QSI998      0.3518
     21  N3        38.2490   26.2110   17.5860 N.2   998  QSI998     -0.0055
     22  C2        37.4360   25.4950   18.3490 C.3   998  QSI998      0.5254
     23  N1        37.9040   24.7610   19.3650 N.2   998  QSI998      0.0021
     24  C6        39.2250   24.7150   19.6630 C.2   998  QSI998      0.4393
     25  N6        39.6950   23.9530   20.7140 N.pl3 998  QSI998      0.2180
     26  C5        40.1180   25.4690   18.8760 C.2   998  QSI998      0.2526
     27  N7        41.4500   25.6660   18.8770 N.2   998  QSI998     -0.2095
     28  C8        41.7600   26.4640   17.9210 C.3   998  QSI998      0.3377
     29  C2'       41.2040   29.1070   16.3630 C.3   998  QSI998      0.2570
     30  O2'       40.2790   30.0210   16.9390 O.3   998  QSI998     -0.2130
     31  C3'       41.7340   29.5440   14.9910 C.3   998  QSI998      0.2185
     32  O3'       40.7690   30.3870   14.3490 O.3   998  QSI998     -0.2174
@<TRIPOS>BOND
     1     6     5    2
     2    15    16    1
     3    15    14    1
     4     1     2    1
     5    13    11    1
     6    16    31    1
     7    16    17    1
     8     3     2    1
     9     3     4    1
    10    32    31    1
    11     5     4    1
    12     5     7   am
    13    10    11    1
    14    10     8   am
    15     2     8    1
    16    31    29    1
    17    17    18    1
    18    14    11    1
    19    11    12    1
    20     8     9    2
    21    18    29    1
    22    18    19    1
    23    29    30    1
    24    19    20    1
    25    19    28    1
    26    21    20    2
    27    21    22    1
    28    20    26    1
    29    28    27    1
    30    22    23    1
    31    26    27    2
    32    26    24    1
    33    23    24    2
    34    24    25    1
