@<TRIPOS>MOLECULE
2rd4_III_C_1.pdb
 42 43 0 0 0
SMALL
GASTEIGER

@<TRIPOS>ATOM
      1  N         -1.8500   20.4100   -4.7970 N.3     2  LEU2       -0.1231
      2  CA        -1.9510   19.6860   -3.5010 C.3     2  LEU2        0.1693
      3  C         -2.6860   20.9220   -2.9340 C.2     2  LEU2        0.2589
      4  O         -2.5410   22.0280   -3.4700 O.2     2  LEU2       -0.2718
      5  CB        -0.8310   18.7410   -3.3180 C.3     2  LEU2        0.0284
      6  CG        -0.2520   17.3520   -3.6130 C.3     2  LEU2        0.0019
      7  CD1        0.6500   16.9880   -2.4520 C.3     2  LEU2        0.0001
      8  CD2       -1.3380   16.2660   -3.7540 C.3     2  LEU2        0.0001
      9  N         -3.7890   20.9480   -2.1530 N.am    3  VAL3       -0.2018
     10  CA        -4.3800   21.9550   -1.3410 C.3     3  VAL3        0.1425
     11  C         -5.5300   21.1890   -0.7620 C.3     3  VAL3        0.2459
     12  O         -5.8620   20.8940   -1.8680 O.3     3  VAL3       -0.2017
     13  CB        -4.8260   23.4550   -1.9070 C.3     3  VAL3        0.0240
     14  CG1       -6.0220   23.9960   -1.1170 C.3     3  VAL3        0.0019
     15  CG2       -3.6600   24.4370   -1.7780 C.3     3  VAL3        0.0019
     16  N         -6.6800   21.1410   -0.1060 N.3     4  PHE4       -0.1795
     17  CA        -7.6780   20.1810   -0.4740 C.3     4  PHE4        0.1572
     18  C         -7.5640   18.9440    0.3840 C.2     4  PHE4        0.2580
     19  O         -6.5900   18.1760    0.3090 O.2     4  PHE4       -0.2718
     20  CB        -8.2240   19.8200   -1.9020 C.3     4  PHE4        0.0532
     21  CG        -7.6540   18.5650   -2.4930 C.ar    4  PHE4       -0.0203
     22  CD1       -8.1700   17.3130   -2.1430 C.ar    4  PHE4       -0.0042
     23  CD2       -6.6210   18.6240   -3.4360 C.ar    4  PHE4       -0.0042
     24  CE1       -7.6540   16.1300   -2.7170 C.ar    4  PHE4       -0.0003
     25  CE2       -6.0930   17.4330   -4.0190 C.ar    4  PHE4       -0.0003
     26  CZ        -6.6260   16.1910   -3.6560 C.ar    4  PHE4       -0.0000
     27  N         -8.5860   18.5320    1.1680 N.am    5  PHE5       -0.1962
     28  CA        -9.0890   17.2450    1.5340 C.3     5  PHE5        0.1771
     29  C         -8.1460   16.8480    2.6740 C.2     5  PHE5        0.2619
     30  O         -6.9500   16.5930    2.4420 O.2     5  PHE5       -0.2715
     31  CB        -8.9670   16.2040    0.4020 C.3     5  PHE5        0.0574
     32  CG        -8.8060   14.8150    0.8330 C.ar    5  PHE5       -0.0200
     33  CD1       -7.8040   14.0790    0.2800 C.ar    5  PHE5       -0.0042
     34  CD2       -9.6820   14.2090    1.7510 C.ar    5  PHE5       -0.0042
     35  CE1       -7.6330   12.7320    0.5770 C.ar    5  PHE5       -0.0003
     36  CE2       -9.5320   12.8530    2.0660 C.ar    5  PHE5       -0.0003
     37  CZ        -8.5130   12.1120    1.4900 C.ar    5  PHE5       -0.0000
     38  N         -8.8710   17.2550    3.9840 N.am    6  ALA6       -0.1977
     39  CA        -9.0550   17.0390    5.3830 C.3     6  ALA6        0.1597
     40  C        -10.2780   16.2980    5.9230 C.2     6  ALA6        0.2287
     41  O        -10.6560   16.5320    7.0480 O.2     6  ALA6       -0.2864
     42  CB        -8.6920   18.2040    6.3880 C.3     6  ALA6        0.0319
@<TRIPOS>BOND
     1     1     2    1
     2    25    26   ar
     3    25    23   ar
     4     8     6    1
     5    26    24   ar
     6     6     5    1
     7     6     7    1
     8     2     5    1
     9     2     3    1
    10     4     3    2
    11    23    21   ar
    12     3     9   am
    13    24    22   ar
    14    21    22   ar
    15    21    20    1
    16     9    10    1
    17    13    15    1
    18    13    10    1
    19    13    14    1
    20    20    17    1
    21    12    11    1
    22    10    11    1
    23    11    16    1
    24    17    16    1
    25    17    18    1
    26    33    35   ar
    27    33    32   ar
    28    19    18    2
    29    18    27   am
    30    31    32    1
    31    31    28    1
    32    35    37   ar
    33    32    34   ar
    34    27    28    1
    35    37    36   ar
    36    28    29    1
    37    34    36   ar
    38    30    29    2
    39    29    38   am
    40    38    39    1
    41    39    40    1
    42    39    42    1
    43    40    41    2
