@<TRIPOS>MOLECULE
2rd5_ATP_C_1.pdb
 31 33 0 0 0
SMALL
GASTEIGER

@<TRIPOS>ATOM
      1  PG        87.1260  104.0760   74.3470 P.3   1000  ATP1000     0.5373
      2  O1G       88.2610  103.4860   73.5430 O.2   1000  ATP1000    -0.2221
      3  O2G       86.9740  105.5820   74.2830 O.3   1000  ATP1000    -0.1143
      4  O3G       85.8230  103.3530   74.1320 O.3   1000  ATP1000    -0.1143
      5  PB        86.7180  103.5510   77.1300 P.3   1000  ATP1000     0.2277
      6  O1B       87.2690  104.2720   78.3320 O.3   1000  ATP1000    -0.4368
      7  O2B       85.2720  103.7550   76.7320 O.2   1000  ATP1000    -0.5168
      8  O3B       87.6430  103.8720   75.8610 O.3   1000  ATP1000    -0.2258
      9  PA        86.2120  100.8450   76.6080 P.3   1000  ATP1000     0.2189
     10  O1A       84.9070  100.7750   77.3440 O.3   1000  ATP1000    -0.4371
     11  O2A       86.0790  101.1450   75.1540 O.2   1000  ATP1000    -0.5170
     12  O3A       87.1040  101.9960   77.2930 O.3   1000  ATP1000    -0.2700
     13  O5'       86.9580   99.4740   77.0090 O.3   1000  ATP1000    -0.3112
     14  C5'       86.2580   98.2230   77.0270 C.3   1000  ATP1000     0.1813
     15  C4'       85.8040   97.5950   78.3550 C.3   1000  ATP1000     0.1821
     16  O4'       86.6070   97.8240   79.5160 O.3   1000  ATP1000    -0.3135
     17  C3'       84.3700   97.8870   78.8020 C.3   1000  ATP1000     0.2184
     18  O3'       83.3940   97.2010   78.0130 O.3   1000  ATP1000    -0.2174
     19  C2'       84.3560   97.4280   80.2470 C.3   1000  ATP1000     0.2570
     20  O2'       84.2030   96.0130   80.3220 O.3   1000  ATP1000    -0.2130
     21  C1'       85.7750   97.7030   80.6970 C.3   1000  ATP1000     0.3186
     22  N9        85.9100   98.9430   81.4910 N.pl3 1000  ATP1000    -0.1439
     23  C8        86.2100  100.1480   80.9730 C.3   1000  ATP1000     0.3377
     24  N7        86.3290  101.0850   81.9380 N.2   1000  ATP1000    -0.2095
     25  C5        86.1090  100.4710   83.1130 C.2   1000  ATP1000     0.2526
     26  C6        86.0760  100.8840   84.5310 C.2   1000  ATP1000     0.4393
     27  N6        86.3100  102.1690   84.8760 N.pl3 1000  ATP1000     0.2180
     28  N1        85.8050   99.9370   85.4650 N.2   1000  ATP1000     0.0021
     29  C2        85.5680   98.6510   85.1180 C.3   1000  ATP1000     0.5254
     30  N3        85.5830   98.2060   83.8460 N.2   1000  ATP1000    -0.0055
     31  C4        85.8380   99.0530   82.8150 C.2   1000  ATP1000     0.3518
@<TRIPOS>BOND
     1     2     1    2
     2     4     1    1
     3     3     1    1
     4     1     8    1
     5    11     9    2
     6     8     5    1
     7     9    13    1
     8     9    12    1
     9     9    10    1
    10     7     5    2
    11    13    14    1
    12    14    15    1
    13     5    12    1
    14     5     6    1
    15    18    17    1
    16    15    17    1
    17    15    16    1
    18    17    19    1
    19    16    21    1
    20    19    20    1
    21    19    21    1
    22    21    22    1
    23    23    22    1
    24    23    24    1
    25    22    31    1
    26    24    25    2
    27    31    25    1
    28    31    30    2
    29    25    26    1
    30    30    29    1
    31    26    27    1
    32    26    28    2
    33    29    28    1
