@<TRIPOS>MOLECULE
2rd5_ARG_A_1.pdb
 12 11 0 0 0
SMALL
GASTEIGER

@<TRIPOS>ATOM
      1  N         81.0990   61.5790   34.4170 N.3   1000  ARG1000    -0.1208
      2  CA        80.4750   60.3200   34.0300 C.3   1000  ARG1000     0.1944
      3  C         80.0280   59.5540   35.2720 C.2   1000  ARG1000     0.3819
      4  O         78.8840   59.1070   35.3540 O.co2 1000  ARG1000    -0.2441
      5  CB        81.4650   59.4840   33.2250 C.3   1000  ARG1000     0.0343
      6  CG        80.8940   58.2720   32.5230 C.3   1000  ARG1000     0.0490
      7  CD        81.9680   57.2090   32.4370 C.3   1000  ARG1000     0.2205
      8  NE        81.7560   56.2880   31.3290 N.pl3 1000  ARG1000    -0.0865
      9  CZ        82.5310   55.2430   31.0470 C.cat 1000  ARG1000     0.5346
     10  NH1       83.5890   54.9500   31.7950 N.pl3 1000  ARG1000     0.1354
     11  NH2       82.2370   54.4790   30.0050 N.pl3 1000  ARG1000     0.1354
     12  OXT       80.7670   59.3670   36.1130 O.co2 1000  ARG1000    -0.2441
@<TRIPOS>BOND
     1    11     9    1
     2     9     8    2
     3     9    10    1
     4     8     7    1
     5     7     6    1
     6     6     5    1
     7     5     2    1
     8     2     1    1
     9     2     3    1
    10     3     4   ar
    11     3    12   ar
