@<TRIPOS>MOLECULE
2rd5_ADP_A_1.pdb
 27 29 0 0 0
SMALL
GASTEIGER

@<TRIPOS>ATOM
      1  PB        92.6870   41.9160   40.1330 P.3   2000  ADP2000     0.5373
      2  O1B       93.9750   41.1290   40.2170 O.2   2000  ADP2000    -0.2221
      3  O2B       91.5230   41.2750   40.8540 O.3   2000  ADP2000    -0.1143
      4  O3B       92.8490   43.3950   40.3990 O.3   2000  ADP2000    -0.1143
      5  PA        92.3360   40.5350   37.6670 P.3   2000  ADP2000     0.2231
      6  O1A       93.7860   40.1470   37.4920 O.2   2000  ADP2000    -0.5169
      7  O2A       91.3450   39.5250   38.2000 O.3   2000  ADP2000    -0.4370
      8  O3A       92.2670   41.8690   38.5760 O.3   2000  ADP2000    -0.2261
      9  O5'       91.8140   41.1290   36.2570 O.3   2000  ADP2000    -0.3111
     10  C5'       90.8730   40.4590   35.4140 C.3   2000  ADP2000     0.1813
     11  C4'       91.5960   39.6680   34.3260 C.3   2000  ADP2000     0.1821
     12  O4'       90.6720   39.0850   33.4020 O.3   2000  ADP2000    -0.3135
     13  C3'       92.5290   40.5340   33.4950 C.3   2000  ADP2000     0.2184
     14  O3'       93.8660   40.4040   33.9850 O.3   2000  ADP2000    -0.2174
     15  C2'       92.3910   40.0290   32.0680 C.3   2000  ADP2000     0.2570
     16  O2'       93.5930   39.3960   31.6280 O.3   2000  ADP2000    -0.2130
     17  C1'       91.2700   38.9970   32.1030 C.3   2000  ADP2000     0.3186
     18  N9        90.2460   39.1970   31.0330 N.pl3 2000  ADP2000    -0.1439
     19  C8        89.6140   38.1890   30.4010 C.3   2000  ADP2000     0.3377
     20  N7        88.7260   38.6430   29.4820 N.2   2000  ADP2000    -0.2095
     21  C5        88.7820   39.9850   29.5060 C.2   2000  ADP2000     0.2526
     22  C6        88.1080   41.0920   28.7830 C.2   2000  ADP2000     0.4393
     23  N6        87.1790   40.8400   27.8280 N.pl3 2000  ADP2000     0.2180
     24  N1        88.4510   42.3610   29.1090 N.2   2000  ADP2000     0.0021
     25  C2        89.3740   42.6270   30.0520 C.3   2000  ADP2000     0.5254
     26  N3        90.0240   41.6730   30.7480 N.2   2000  ADP2000    -0.0055
     27  C4        89.7820   40.3520   30.5280 C.2   2000  ADP2000     0.3518
@<TRIPOS>BOND
     1    23    22    1
     2    22    24    2
     3    22    21    1
     4    24    25    1
     5    20    21    2
     6    20    19    1
     7    21    27    1
     8    25    26    1
     9    19    18    1
    10    27    26    2
    11    27    18    1
    12    18    17    1
    13    16    15    1
    14    15    17    1
    15    15    13    1
    16    17    12    1
    17    12    11    1
    18    13    14    1
    19    13    11    1
    20    11    10    1
    21    10     9    1
    22     9     5    1
    23     6     5    2
    24     5     7    1
    25     5     8    1
    26     8     1    1
    27     1     2    2
    28     1     4    1
    29     1     3    1
