@<TRIPOS>MOLECULE
2rd5_NLG_A_1.pdb
 13 12 0 0 0
SMALL
GASTEIGER

@<TRIPOS>ATOM
      1  CA        91.4840   37.8110   49.3660 C.3   2001  NLG2001     0.1983
      2  C         92.7250   37.2970   49.5660 C.2   2001  NLG2001     0.3842
      3  OXT       93.6760   37.6500   48.8240 O.co2 2001  NLG2001    -0.2437
      4  O         92.9270   36.4680   50.4930 O.co2 2001  NLG2001    -0.2437
      5  CB        91.2090   39.2480   49.7930 C.3   2001  NLG2001     0.0451
      6  CG        92.0040   40.2840   49.0100 C.3   2001  NLG2001     0.1164
      7  CD        91.2400   40.8420   47.8280 C.2   2001  NLG2001     0.3649
      8  OE1       90.0480   40.5160   47.6140 O.co2 2001  NLG2001    -0.2457
      9  OE2       91.8620   41.6380   47.0930 O.co2 2001  NLG2001    -0.2457
     10  C7        90.2360   35.9690   48.7720 C.2   2001  NLG2001     0.2423
     11  C8        89.3130   35.0900   49.1070 C.3   2001  NLG2001     0.0964
     12  O7        90.9070   35.7960   47.7670 O.2   2001  NLG2001    -0.2733
     13  N2        90.4010   37.0300   49.5720 N.am  2001  NLG2001    -0.1956
@<TRIPOS>BOND
     1     9     7   ar
     2     8     7   ar
     3    12    10    2
     4     7     6    1
     5    10    11    1
     6    10    13   am
     7     3     2   ar
     8     6     5    1
     9     1     2    1
    10     1    13    1
    11     1     5    1
    12     2     4   ar
