@<TRIPOS>MOLECULE
2rd6_78P_A_1.pdb
 18 20 0 0 0
SMALL
GASTEIGER

@<TRIPOS>ATOM
      1  C4        26.5400   65.6230    9.3920 C.ar  900  78P900      0.1782
      2  C5        26.9380   66.4290   10.4920 C.ar  900  78P900      0.0897
      3  C6        28.2920   66.3560   10.9360 C.ar  900  78P900      0.0074
      4  C8        25.5670   64.5520    7.7490 C.1   900  78P900      0.1264
      5  C10       26.0130   67.3690   11.2180 C.2   900  78P900      0.2868
      6  C13       24.4690   64.0880    6.7730 C.3   900  78P900      0.1535
      7  C15       22.3940   63.6700    7.8910 C.3   900  78P900      0.0899
      8  C17       24.2720   62.5770    6.8630 C.3   900  78P900      0.0338
      9  C1        29.2270   65.4930   10.2900 C.ar  900  78P900      0.0030
     10  C2        28.8190   64.6970    9.1930 C.ar  900  78P900      0.0357
     11  C3        27.4990   64.7530    8.7410 C.ar  900  78P900      0.1740
     12  N7        26.8370   64.1060    7.7180 N.2   900  78P900     -0.3398
     13  N9        25.3440   65.4470    8.7180 N.2   900  78P900     -0.3396
     14  N11       24.7080   67.3040   10.9130 N.am  900  78P900     -0.0836
     15  O12       26.3940   68.1870   12.0460 O.2   900  78P900     -0.2666
     16  N14       23.1570   64.6780    7.1410 N.3   900  78P900     -0.2048
     17  C16       23.2480   62.4100    7.9760 C.3   900  78P900      0.0214
     18  C18       24.8840   64.5500    5.3750 C.3   900  78P900      0.0348
@<TRIPOS>BOND
     1    18     6    1
     2     6     8    1
     3     6    16    1
     4     6     4    1
     5     8    17    1
     6    16     7    1
     7    12     4    2
     8    12    11    2
     9     4    13    2
    10     7    17    1
    11    13     1    2
    12    11    10   ar
    13    11     1   ar
    14    10     9   ar
    15     1     2   ar
    16     9     3   ar
    17     2     3   ar
    18     2     5    1
    19    14     5   am
    20     5    15    2
