@<TRIPOS>MOLECULE
2rdd_AIC_A_1.pdb
 24 26 0 0 0
SMALL
GASTEIGER

@<TRIPOS>ATOM
      1  C8        20.3420  -79.7520   42.1280 C.ar  1109  AIC1109    -0.0003
      2  C5        18.4070  -80.2800   43.5480 C.ar  1109  AIC1109     0.0038
      3  C6        11.8170  -76.4440   45.2190 C.3   1109  AIC1109     0.0681
      4  N1        15.4340  -78.8320   45.4030 N.am  1109  AIC1109    -0.1937
      5  C2        11.0180  -77.1190   47.7110 C.2   1109  AIC1109     0.3833
      6  N3        13.3930  -77.0670   47.1270 N.am  1109  AIC1109    -0.2594
      7  C4        16.9240  -80.1280   43.8550 C.3   1109  AIC1109     0.1915
      8  C1        11.4500  -74.9620   45.4700 C.3   1109  AIC1109     0.0131
      9  C3        16.6990  -79.1070   44.9600 C.2   1109  AIC1109     0.2635
     10  C7        18.9630  -79.6190   42.4260 C.ar  1109  AIC1109    -0.0024
     11  C9        21.1730  -80.5520   42.9560 C.ar  1109  AIC1109    -0.0000
     12  C10       20.6200  -81.2150   44.0800 C.ar  1109  AIC1109    -0.0003
     13  C11       19.2410  -81.0830   44.3790 C.ar  1109  AIC1109    -0.0024
     14  C12       12.0410  -77.3070   46.5640 C.3   1109  AIC1109     0.1888
     15  C13       14.3740  -76.6320   46.1200 C.3   1109  AIC1109     0.1529
     16  C14       15.2340  -77.8440   46.4920 C.3   1109  AIC1109     0.1996
     17  C15       14.1760  -78.1820   47.5130 C.2   1109  AIC1109     0.2491
     18  C16       10.7510  -77.1160   44.3190 C.3   1109  AIC1109     0.0131
     19  N2        16.3770  -81.4310   44.2770 N.3   1109  AIC1109    -0.1182
     20  O1         9.8150  -77.1310   47.5260 O.co2 1109  AIC1109    -0.2438
     21  O2        11.4790  -76.9300   48.9620 O.co2 1109  AIC1109    -0.2438
     22  O3        17.6560  -78.5350   45.4560 O.2   1109  AIC1109    -0.2714
     23  O4        14.0320  -79.0730   48.3330 O.2   1109  AIC1109    -0.2729
     24  S1        13.5080  -76.6110   44.5240 S.3   1109  AIC1109    -0.1184
@<TRIPOS>BOND
     1     1    10   ar
     2     1    11   ar
     3    10     2   ar
     4    11    12   ar
     5     2     7    1
     6     2    13   ar
     7     7    19    1
     8     7     9    1
     9    12    13   ar
    10    18     3    1
    11    24     3    1
    12    24    15    1
    13     9     4   am
    14     9    22    2
    15     3     8    1
    16     3    14    1
    17     4    16    1
    18    15    16    1
    19    15     6    1
    20    16    17    1
    21    14     6    1
    22    14     5    1
    23     6    17   am
    24    17    23    2
    25    20     5   ar
    26     5    21   ar
