@<TRIPOS>MOLECULE
2rde_C2E_A_1.pdb
 46 52 0 0 0
SMALL
GASTEIGER

@<TRIPOS>ATOM
      1  P1         2.9040  -21.0000   -7.3280 P.3   301  C2E301      0.2141
      2  O2P        2.6140  -20.4630   -5.9500 O.3   301  C2E301     -0.4373
      3  O1P        2.8700  -22.4980   -7.4050 O.2   301  C2E301     -0.5172
      4  O5'        1.8610  -20.4710   -8.3980 O.3   301  C2E301     -0.3114
      5  C5'        1.9710  -20.9010   -9.7500 C.3   301  C2E301      0.1812
      6  C4'        0.8990  -20.2250  -10.5770 C.3   301  C2E301      0.1771
      7  O4'       -0.3890  -20.4520   -9.9940 O.3   301  C2E301     -0.3327
      8  C3'        1.0630  -18.7170  -10.6360 C.3   301  C2E301      0.1857
      9  O3'        2.0000  -18.3340  -11.6540 O.3   301  C2E301     -0.3112
     10  C2'       -0.3500  -18.2920  -10.8680 C.3   301  C2E301      0.2282
     11  O2'       -0.6260  -18.3460  -12.2710 O.3   301  C2E301     -0.2159
     12  C1'       -1.2120  -19.2910  -10.1190 C.3   301  C2E301      0.2292
     13  N9        -1.5070  -18.7840   -8.7810 N.pl3 301  C2E301     -0.2354
     14  C8        -1.0740  -19.3040   -7.6290 C.3   301  C2E301      0.2246
     15  N7        -1.5230  -18.5910   -6.5780 N.2   301  C2E301     -0.2322
     16  C5        -2.2630  -17.5930   -7.0670 C.2   301  C2E301      0.2182
     17  C6        -3.0300  -16.4690   -6.5010 C.1   301  C2E301      0.2372
     18  O6        -3.0910  -16.2950   -5.2630 O.2   301  C2E301     -0.2069
     19  N1        -3.6650  -15.6450   -7.3440 N.2   301  C2E301     -0.2485
     20  C2        -3.6150  -15.8160   -8.6810 C.1   301  C2E301      0.2531
     21  N2        -4.2780  -14.9520   -9.4850 N.pl3 301  C2E301     -0.0226
     22  N3        -2.9240  -16.8310   -9.2660 N.2   301  C2E301     -0.3074
     23  C4        -2.2420  -17.7270   -8.5190 C.2   301  C2E301      0.2300
     24  P11        2.7860  -17.0240  -11.1950 P.3   301  C2E301      0.2141
     25  O21        1.7870  -15.9670  -10.8420 O.3   301  C2E301     -0.4373
     26  O11        3.6450  -16.5870  -12.3390 O.2   301  C2E301     -0.5172
     27  O5A        3.6950  -17.3850   -9.9450 O.3   301  C2E301     -0.3114
     28  C5A        4.7260  -18.3650  -10.1030 C.3   301  C2E301      0.1812
     29  C4A        5.4470  -18.5790   -8.7920 C.3   301  C2E301      0.1771
     30  O4A        6.0150  -17.3540   -8.2790 O.3   301  C2E301     -0.3327
     31  C3A        4.5370  -19.1010   -7.6900 C.3   301  C2E301      0.1857
     32  O3A        4.3900  -20.5320   -7.7610 O.3   301  C2E301     -0.3112
     33  C2A        5.2390  -18.6210   -6.4600 C.3   301  C2E301      0.2282
     34  O2A        6.2090  -19.6040   -6.0620 O.3   301  C2E301     -0.2159
     35  C1A        5.9150  -17.3100   -6.8510 C.3   301  C2E301      0.2292
     36  N91        5.0660  -16.1780   -6.4320 N.pl3 301  C2E301     -0.2354
     37  C81        4.2150  -15.4780   -7.2090 C.3   301  C2E301      0.2246
     38  N71        3.5840  -14.5160   -6.4980 N.2   301  C2E301     -0.2322
     39  C51        4.0320  -14.5940   -5.2360 C.2   301  C2E301      0.2182
     40  C61        3.7840  -13.8820   -3.9700 C.1   301  C2E301      0.2372
     41  O61        2.9680  -12.9410   -3.8920 O.2   301  C2E301     -0.2069
     42  N11        4.4590  -14.2760   -2.8850 N.2   301  C2E301     -0.2485
     43  C21        5.3520  -15.2910   -2.9190 C.1   301  C2E301      0.2531
     44  N21        6.0000  -15.6270   -1.7780 N.pl3 301  C2E301     -0.0226
     45  N31        5.6240  -15.9890   -4.0460 N.2   301  C2E301     -0.3074
     46  C41        5.0080  -15.6850   -5.2120 C.2   301  C2E301      0.2300
@<TRIPOS>BOND
     1    26    24    2
     2    11    10    1
     3     9    24    1
     4     9     8    1
     5    24    25    1
     6    24    27    1
     7    10     8    1
     8    10    12    1
     9     8     6    1
    10     6     7    1
    11     6     5    1
    12    12     7    1
    13    12    13    1
    14    28    27    1
    15    28    29    1
    16     5     4    1
    17    21    20    1
    18    22    20    2
    19    22    23    2
    20    29    30    1
    21    29    31    1
    22    13    23    1
    23    13    14    1
    24    20    19    2
    25    23    16    1
    26     4     1    1
    27    30    35    1
    28    32    31    1
    29    32     1    1
    30    31    33    1
    31    14    15    1
    32     3     1    2
    33    19    17    2
    34     1     2    1
    35    37    38    1
    36    37    36    1
    37    16    15    2
    38    16    17    1
    39    35    33    1
    40    35    36    1
    41    17    18    2
    42    38    39    2
    43    33    34    1
    44    36    46    1
    45    39    46    1
    46    39    40    1
    47    46    45    2
    48    45    43    2
    49    40    41    2
    50    40    42    2
    51    43    42    2
    52    43    44    1
