@<TRIPOS>MOLECULE
2rdg_SIA_A_1.pdb
 20 20 0 0 0
SMALL
GASTEIGER

@<TRIPOS>ATOM
      1  C1        21.4660    6.8870    5.7210 C.2   601  SIA601      0.3914
      2  C2        22.5000    7.9740    5.4350 C.3   601  SIA601      0.2203
      3  C3        21.9060    9.3240    4.9800 C.3   601  SIA601      0.0760
      4  C4        21.2440   10.0570    6.1610 C.3   601  SIA601      0.1773
      5  C5        22.1750   10.1450    7.3780 C.3   601  SIA601      0.1552
      6  C6        22.6700    8.7320    7.7120 C.3   601  SIA601      0.1710
      7  C7        23.5950    8.6800    8.9190 C.3   601  SIA601      0.2134
      8  C8        24.2070    7.2890    9.0700 C.3   601  SIA601      0.2173
      9  C9        24.8680    7.1290   10.4420 C.3   601  SIA601      0.2175
     10  C10       21.6330   11.7950    9.1420 C.2   601  SIA601      0.2420
     11  C11       22.7490   12.6370    8.6090 C.3   601  SIA601      0.0964
     12  N5        21.3960   10.6370    8.5260 N.am  601  SIA601     -0.2020
     13  O1A       21.7100    6.0480    6.6250 O.co2 601  SIA601     -0.2430
     14  O1B       20.4290    6.8330    5.0330 O.co2 601  SIA601     -0.2430
     15  O4        20.8510   11.3640    5.7280 O.3   601  SIA601     -0.2211
     16  O6        23.3560    8.1940    6.5640 O.3   601  SIA601     -0.3429
     17  O7        24.6310    9.6580    8.7230 O.3   601  SIA601     -0.2176
     18  O8        23.1990    6.2740    8.8930 O.3   601  SIA601     -0.2175
     19  O9        25.5430    5.8600   10.4700 O.3   601  SIA601     -0.2175
     20  O10       20.9590   12.1830   10.1160 O.2   601  SIA601     -0.2733
@<TRIPOS>BOND
     1     3     2    1
     2     3     4    1
     3    14     1   ar
     4     2     1    1
     5     2    16    1
     6     1    13   ar
     7    15     4    1
     8     4     5    1
     9    16     6    1
    10     5     6    1
    11     5    12    1
    12     6     7    1
    13    12    10   am
    14    11    10    1
    15    17     7    1
    16    18     8    1
    17     7     8    1
    18     8     9    1
    19    10    20    2
    20     9    19    1
