@<TRIPOS>MOLECULE
2rdg_FUC_A_1.pdb
 10 10 0 0 0
SMALL
GASTEIGER

@<TRIPOS>ATOM
      1  C1        28.5560    4.0240    0.0120 C.3   604  FUC604      0.1776
      2  C2        27.9750    2.7490   -0.6200 C.3   604  FUC604      0.2141
      3  C3        26.4880    2.6410   -0.2600 C.3   604  FUC604      0.2172
      4  C4        25.7350    3.9280   -0.6310 C.3   604  FUC604      0.2116
      5  C5        26.4340    5.1440   -0.0050 C.3   604  FUC604      0.1483
      6  C6        25.7610    6.4610   -0.3690 C.3   604  FUC604      0.0349
      7  O2        28.6780    1.6010   -0.1790 O.3   604  FUC604     -0.2176
      8  O3        25.9100    1.5100   -0.8840 O.3   604  FUC604     -0.2175
      9  O4        25.6430    4.0850   -2.0480 O.3   604  FUC604     -0.2177
     10  O5        27.8110    5.1680   -0.3920 O.3   604  FUC604     -0.3508
@<TRIPOS>BOND
     1     9     4    1
     2     8     3    1
     3     4     3    1
     4     4     5    1
     5     2     3    1
     6     2     7    1
     7     2     1    1
     8    10     5    1
     9    10     1    1
    10     6     5    1
