@<TRIPOS>MOLECULE
2rdg_GAL_A_1.pdb
 11 11 0 0 0
SMALL
GASTEIGER

@<TRIPOS>ATOM
      1  C1        26.4030    5.5330    3.8040 C.3   602  GAL602      0.1777
      2  C2        25.4840    6.7600    3.8100 C.3   602  GAL602      0.2141
      3  C3        24.1470    6.4280    4.4720 C.3   602  GAL602      0.2173
      4  C4        23.5080    5.1910    3.8390 C.3   602  GAL602      0.2142
      5  C5        24.5210    4.0400    3.8530 C.3   602  GAL602      0.1810
      6  C6        23.9570    2.8160    3.1470 C.3   602  GAL602      0.2141
      7  O2        26.0720    7.8390    4.5140 O.3   602  GAL602     -0.2176
      8  O3        23.3090    7.5530    4.3260 O.3   602  GAL602     -0.2175
      9  O4        23.1100    5.5290    2.5160 O.3   602  GAL602     -0.2176
     10  O5        25.7560    4.4080    3.2240 O.3   602  GAL602     -0.3481
     11  O6        24.8730    1.7540    3.2000 O.3   602  GAL602     -0.2176
@<TRIPOS>BOND
     1     9     4    1
     2     6    11    1
     3     6     5    1
     4    10     1    1
     5    10     5    1
     6     1     2    1
     7     2     3    1
     8     2     7    1
     9     4     5    1
    10     4     3    1
    11     8     3    1
