@<TRIPOS>MOLECULE
2rdj_TMP_A_1.pdb
 21 22 0 0 0
SMALL
GASTEIGER

@<TRIPOS>ATOM
      1  P          1.4980   -9.9580  -20.0560 P.3   355  TMP355      0.5327
      2  O1P        0.5250   -9.0380  -19.3590 O.3   355  TMP355     -0.1145
      3  O2P        0.9910  -10.7690  -21.2360 O.2   355  TMP355     -0.2224
      4  O3P        2.8530   -9.3180  -20.2510 O.3   355  TMP355     -0.1145
      5  O5'        1.7010  -10.9930  -18.8720 O.3   355  TMP355     -0.2675
      6  C5'        1.6370  -12.3840  -19.1130 C.3   355  TMP355      0.1858
      7  C4'        3.0430  -12.8060  -19.4090 C.3   355  TMP355      0.1774
      8  O4'        3.9730  -12.1010  -18.5600 O.3   355  TMP355     -0.3339
      9  C3'        3.0490  -14.2440  -18.9900 C.3   355  TMP355      0.1857
     10  O3'        4.0950  -14.9020  -19.7420 O.3   355  TMP355     -0.2203
     11  C2'        3.3370  -14.0790  -17.5010 C.3   355  TMP355      0.0874
     12  C1'        4.0060  -12.7330  -17.2630 C.3   355  TMP355      0.2090
     13  N1         5.3920  -12.8580  -16.7550 N.am  355  TMP355     -0.1794
     14  C2         5.8930  -12.0430  -15.6870 C.1   355  TMP355      0.2844
     15  O2         5.1800  -11.1910  -15.1120 O.2   355  TMP355     -0.1918
     16  N3         7.1650  -12.1750  -15.2380 N.2   355  TMP355     -0.2455
     17  C4         8.0040  -13.0760  -15.8100 C.1   355  TMP355      0.2134
     18  O4         9.1820  -13.1770  -15.4080 O.2   355  TMP355     -0.2088
     19  C5         7.5200  -13.9220  -16.9300 C.2   355  TMP355      0.0891
     20  C5M        8.4060  -14.9460  -17.5960 C.3   355  TMP355      0.0462
     21  C6         6.2020  -13.7730  -17.3440 C.2   355  TMP355      0.0877
@<TRIPOS>BOND
     1     3     1    2
     2     4     1    1
     3     1     2    1
     4     1     5    1
     5    10     9    1
     6     7     6    1
     7     7     9    1
     8     7     8    1
     9     6     5    1
    10     9    11    1
    11     8    12    1
    12    20    19    1
    13    11    12    1
    14    21    19    2
    15    21    13    1
    16    12    13    1
    17    19    17    1
    18    13    14   am
    19    17    18    2
    20    17    16    2
    21    14    16    2
    22    14    15    2
