@<TRIPOS>MOLECULE
2rdk_MAN_A_1.pdb
 12 12 0 0 0
SMALL
GASTEIGER

@<TRIPOS>ATOM
      1  C1        57.0800   18.4690   16.5040 C.3   110  MAN110      0.3024
      2  C2        55.5610   18.6970   16.4320 C.3   110  MAN110      0.2434
      3  C3        55.0300   19.1650   17.7960 C.3   110  MAN110      0.2199
      4  C4        55.4580   18.2200   18.9220 C.3   110  MAN110      0.2144
      5  C5        56.9750   17.9700   18.8420 C.3   110  MAN110      0.1836
      6  C6        57.3920   16.8940   19.8350 C.3   110  MAN110      0.2142
      7  O1        57.7650   19.6820   16.7310 O.3   110  MAN110     -0.1869
      8  O2        54.8450   17.5130   16.1410 O.3   110  MAN110     -0.2148
      9  O3        53.6150   19.2800   17.7910 O.3   110  MAN110     -0.2174
     10  O4        55.0800   18.7770   20.1680 O.3   110  MAN110     -0.2176
     11  O5        57.3690   17.5470   17.5350 O.3   110  MAN110     -0.3236
     12  O6        58.7720   16.6420   19.7100 O.3   110  MAN110     -0.2176
@<TRIPOS>BOND
     1     8     2    1
     2     2     1    1
     3     2     3    1
     4     1     7    1
     5     1    11    1
     6    11     5    1
     7     9     3    1
     8     3     4    1
     9     5     4    1
    10     5     6    1
    11     4    10    1
    12    12     6    1
