@<TRIPOS>MOLECULE
2rdl_III_I_1.pdb
 31 31 0 0 0
SMALL
GASTEIGER

@<TRIPOS>ATOM
      1  C1        36.1300   30.4530   32.4400 C.2     1  MSU1        0.2423
      2  O1        35.5690   30.4370   33.5200 O.2     1  MSU1       -0.2733
      3  C2        37.4990   31.0190   32.1770 C.3     1  MSU1        0.0985
      4  C3        38.4390   30.7390   33.3360 C.3     1  MSU1        0.1192
      5  C4        38.1910   31.7270   34.4660 C.2     1  MSU1        0.3176
      6  OT1       38.0990   31.3260   35.6220 O.2     1  MSU1       -0.2501
      7  OT2       38.0770   33.0130   34.1010 O.3     1  MSU1       -0.4444
      8  CT        37.8310   34.0710   35.0950 C.3     1  MSU1        0.2556
      9  N         35.3780   29.8910   31.4100 N.am    2  ALA2       -0.1978
     10  CA        33.9390   29.8390   31.6110 C.3     2  ALA2        0.1728
     11  C         33.5790   28.5680   32.3580 C.2     2  ALA2        0.2616
     12  O         34.3980   27.6620   32.4860 O.2     2  ALA2       -0.2715
     13  CB        33.2200   29.8830   30.2690 C.3     2  ALA2        0.0334
     14  N         32.3480   28.5130   32.8520 N.am    3  ALA3       -0.1964
     15  CA        31.8600   27.3560   33.5910 C.3     3  ALA3        0.1713
     16  C         30.3420   27.2900   33.4630 C.2     3  ALA3        0.2458
     17  O         29.6500   28.2680   33.7370 O.2     3  ALA3       -0.2730
     18  CB        32.2560   27.4700   35.0590 C.3     3  ALA3        0.0333
     19  N         29.8090   26.1410   33.0190 N.am    4  PRO4       -0.2716
     20  CA        28.3620   25.9600   32.8600 C.3     4  PRO4        0.1535
     21  C         27.6810   25.7160   34.1980 C.2     4  PRO4        0.2595
     22  O         28.3250   25.2790   35.1510 O.2     4  PRO4       -0.2716
     23  CB        28.2630   24.7510   31.9380 C.3     4  PRO4        0.0310
     24  CG        29.4480   23.9520   32.3280 C.3     4  PRO4        0.0237
     25  CD        30.5410   24.9950   32.4570 C.3     4  PRO4        0.0939
     26  C         24.6700   25.9230   35.7160 C.3     5  ALA5        0.1718
     27  N         26.8200   26.7340   34.5200 N.am    5  ALA5       -0.2032
     28  O         24.2070   25.7510   37.0470 O.3     5  ALA5       -0.2213
     29  CA        26.0160   26.7700   35.7470 C.3     5  ALA5        0.1256
     30  CB        25.8160   28.2500   36.1070 C.3     5  ALA5        0.0261
     31  C1        24.6560   24.4950   35.1000 C.3     6  0QE6        0.0373
@<TRIPOS>BOND
     1    13    10    1
     2     9    10    1
     3     9     1   am
     4    10    11    1
     5    23    24    1
     6    23    20    1
     7     3     1    1
     8     3     4    1
     9    24    25    1
    10    11    12    2
    11    11    14   am
    12     1     2    2
    13    25    19    1
    14    14    15    1
    15    20    19    1
    16    20    21    1
    17    19    16   am
    18     4     5    1
    19    16    15    1
    20    16    17    2
    21    15    18    1
    22     7     5    1
    23     7     8    1
    24    21    27   am
    25    21    22    2
    26     5     6    2
    27    27    29    1
    28    31    26    1
    29    26    29    1
    30    26    28    1
    31    29    30    1
