@<TRIPOS>MOLECULE
2rdn_AKG_A_1.pdb
 10 9 0 0 0
SMALL
GASTEIGER

@<TRIPOS>ATOM
      1  C1        15.6760   30.8950    1.6400 C.2   279  AKG279      0.4219
      2  O1        14.5630   30.6140    2.1450 O.co2 279  AKG279     -0.2373
      3  O2        16.2240   30.1710    0.7740 O.co2 279  AKG279     -0.2373
      4  C2        16.3470   32.1340    2.0210 C.2   279  AKG279      0.2526
      5  O5        17.4140   32.4290    1.4730 O.2   279  AKG279     -0.2843
      6  C3        15.6640   33.0260    3.0450 C.3   279  AKG279      0.0881
      7  C4        16.4370   34.2940    3.4180 C.3   279  AKG279      0.1224
      8  C5        15.7120   35.0760    4.4980 C.2   279  AKG279      0.3653
      9  O3        14.6010   34.6780    4.9040 O.co2 279  AKG279     -0.2456
     10  O4        16.2370   36.1170    4.9520 O.co2 279  AKG279     -0.2456
@<TRIPOS>BOND
     1     3     1   ar
     2     5     4    2
     3     1     4    1
     4     1     2   ar
     5     4     6    1
     6     6     7    1
     7     7     8    1
     8     8     9   ar
     9     8    10   ar
