@<TRIPOS>MOLECULE
2rdn_1PL_A_1.pdb
 17 19 0 0 0
SMALL
GASTEIGER

@<TRIPOS>ATOM
      1  C10       24.6500   30.9670   -0.5330 C.3   280  1PL280      0.0000
      2  C9        24.6620   31.5490    0.9020 C.3   280  1PL280      0.0006
      3  C11       23.6060   32.6400    1.0660 C.3   280  1PL280      0.0004
      4  C12       22.3450   31.8060    1.3190 C.3   280  1PL280      0.0046
      5  C5        22.7720   30.6160    2.2200 C.3   280  1PL280      0.0288
      6  C4        24.2950   30.5320    2.0260 C.3   280  1PL280      0.0077
      7  C3        24.7180   29.0750    1.7530 C.3   280  1PL280      0.0006
      8  C2        25.1070   28.4780    3.1070 C.3   280  1PL280      0.0003
      9  C14       26.1790   27.3950    2.9110 C.3   280  1PL280      0.0000
     10  C15       23.9260   27.8340    3.8420 C.3   280  1PL280      0.0000
     11  C1        25.6700   29.6960    3.8750 C.3   280  1PL280      0.0043
     12  C8        24.9210   30.9630    3.3690 C.3   280  1PL280      0.0222
     13  C7        23.7340   31.2850    4.2930 C.2   280  1PL280     -0.0242
     14  C6        22.5820   31.0610    3.6660 C.2   280  1PL280      0.0529
     15  C13       21.2180   31.2560    4.3210 C.2   280  1PL280      0.3835
     16  O1        21.1690   31.7230    5.4800 O.co2 280  1PL280     -0.2409
     17  O2        20.2060   30.9510    3.6650 O.co2 280  1PL280     -0.2409
@<TRIPOS>BOND
     1     1     2    1
     2     2     3    1
     3     2     6    1
     4     3     4    1
     5     4     5    1
     6     7     6    1
     7     7     8    1
     8     6     5    1
     9     6    12    1
    10     5    14    1
    11     9     8    1
    12     8    10    1
    13     8    11    1
    14    12    11    1
    15    12    13    1
    16    17    15   ar
    17    14    13    2
    18    14    15    1
    19    15    16   ar
