@<TRIPOS>MOLECULE
2rdq_AKG_A_1.pdb
 10 9 0 0 0
SMALL
GASTEIGER

@<TRIPOS>ATOM
      1  C1        15.3980   -0.4990    1.3960 C.2   269  AKG269      0.4219
      2  O1        14.2290   -0.7550    1.7780 O.co2 269  AKG269     -0.2373
      3  O2        16.0490   -1.2490    0.6290 O.co2 269  AKG269     -0.2373
      4  C2        16.0560    0.7340    1.8080 C.2   269  AKG269      0.2526
      5  O5        17.1950    0.9540    1.3800 O.2   269  AKG269     -0.2843
      6  C3        15.2800    1.6990    2.6830 C.3   269  AKG269      0.0881
      7  C4        16.0710    2.8910    3.2100 C.3   269  AKG269      0.1224
      8  C5        15.2320    3.7070    4.1830 C.2   269  AKG269      0.3653
      9  O3        14.0500    3.3730    4.4530 O.co2 269  AKG269     -0.2456
     10  O4        15.7610    4.7090    4.6940 O.co2 269  AKG269     -0.2456
@<TRIPOS>BOND
     1     3     1   ar
     2     5     4    2
     3     1     2   ar
     4     1     4    1
     5     4     6    1
     6     6     7    1
     7     7     8    1
     8     8     9   ar
     9     8    10   ar
