@<TRIPOS>MOLECULE
2rds_1PL_A_1.pdb
 17 19 0 0 0
SMALL
GASTEIGER

@<TRIPOS>ATOM
      1  C10       10.1580   25.0430   -0.1490 C.3   269  1PL269      0.0000
      2  C9         9.9990   24.7830    1.3320 C.3   269  1PL269      0.0000
      3  C11        9.4030   23.3960    1.4760 C.3   269  1PL269      0.0000
      4  C12       10.6450   22.5040    1.5270 C.3   269  1PL269      0.0005
      5  C5        11.5940   23.2470    2.4640 C.3   269  1PL269      0.0107
      6  C4        11.3150   24.7310    2.1800 C.3   269  1PL269      0.0005
      7  C3        12.5840   25.3950    1.6160 C.3   269  1PL269      0.0000
      8  C2        13.4040   25.8440    2.8460 C.3   269  1PL269      0.0000
      9  C14       14.2270   27.0960    2.5270 C.3   269  1PL269      0.0000
     10  C15       14.3470   24.7530    3.3780 C.3   269  1PL269      0.0000
     11  C1        12.3380   26.1840    3.8940 C.3   269  1PL269      0.0000
     12  C8        11.0580   25.4020    3.5240 C.3   269  1PL269      0.0006
     13  C7        10.8410   24.2380    4.4980 C.3   269  1PL269      0.0112
     14  C6        11.1400   23.0770    3.9170 C.3   269  1PL269      0.1034
     15  C13       11.0280   21.7200    4.6190 C.2   269  1PL269      0.3643
     16  O1        10.6220   21.6950    5.8050 O.co2 269  1PL269     -0.2457
     17  O2        11.3550   20.7080    3.9630 O.co2 269  1PL269     -0.2457
@<TRIPOS>BOND
     1     1     2    1
     2     2     3    1
     3     2     6    1
     4     3     4    1
     5     4     5    1
     6     7     6    1
     7     7     8    1
     8     6     5    1
     9     6    12    1
    10     5    14    1
    11     9     8    1
    12     8    10    1
    13     8    11    1
    14    12    11    1
    15    12    13    1
    16    14    13    1
    17    14    15    1
    18    17    15   ar
    19    15    16   ar
