@<TRIPOS>MOLECULE
2rdt_2RD_A_1.pdb
 21 21 0 0 0
SMALL
GASTEIGER

@<TRIPOS>ATOM
      1  CAA       41.0870   11.6610    6.3650 C.3   365  2RD365      0.0000
      2  CAD       41.7460   10.3720    6.8780 C.3   365  2RD365      0.0000
      3  CAE       40.7200    9.4210    7.5170 C.3   365  2RD365      0.0000
      4  CAF       40.7150    9.5230    9.0560 C.3   365  2RD365      0.0000
      5  CAG       40.3590    8.1880    9.7380 C.3   365  2RD365      0.0000
      6  CAH       38.8700    7.8250    9.6160 C.3   365  2RD365      0.0000
      7  CAI       38.6830    6.3090    9.7750 C.3   365  2RD365      0.0000
      8  CAJ       37.2600    5.9330   10.2380 C.3   365  2RD365      0.0000
      9  CAK       36.9610    4.4460    9.9660 C.3   365  2RD365      0.0000
     10  CAL       36.3640    3.7520   11.1960 C.3   365  2RD365      0.0009
     11  CAM       34.8320    3.7940   11.1750 C.3   365  2RD365      0.0120
     12  CAN       34.2730    4.6600   12.3060 C.3   365  2RD365      0.0638
     13  SAR       32.4460    4.6350   12.3260 S.3   365  2RD365     -0.0914
     14  CAU       32.0860    5.1140   14.0110 C.ar  365  2RD365      0.1559
     15  NAQ       32.9550    5.2910   15.0180 N.ar  365  2RD365     -0.1205
     16  NAO       32.2810    5.6270   16.0110 N.ar  365  2RD365     -0.0414
     17  NAP       31.0470    5.6850   15.8120 N.ar  365  2RD365     -0.1198
     18  CAT       30.8420    5.3740   14.5450 C.ar  365  2RD365      0.2089
     19  CAS       29.5070    5.2850   13.8830 C.2   365  2RD365      0.4090
     20  OAC       29.4430    4.9710   12.6670 O.co2 365  2RD365     -0.2387
     21  OAB       28.5230    5.4700   14.6280 O.co2 365  2RD365     -0.2387
@<TRIPOS>BOND
     1     1     2    1
     2     2     3    1
     3     3     4    1
     4     4     5    1
     5     6     5    1
     6     6     7    1
     7     7     8    1
     8     9     8    1
     9     9    10    1
    10    11    10    1
    11    11    12    1
    12    12    13    1
    13    13    14    1
    14    20    19   ar
    15    19    18    1
    16    19    21   ar
    17    14    18   ar
    18    14    15   ar
    19    18    17   ar
    20    15    16   ar
    21    17    16   ar
