@<TRIPOS>MOLECULE
2rdt_FMN_A_1.pdb
 31 33 0 0 0
SMALL
GASTEIGER

@<TRIPOS>ATOM
      1  N1        29.8930    8.8130   18.1750 N.2   364  FMN364     -0.2887
      2  C2        31.2110    8.9090   18.5740 C.1   364  FMN364      0.3669
      3  O2        31.4600    8.9370   19.7710 O.2   364  FMN364     -0.1744
      4  N3        32.2260    8.9920   17.6140 N.2   364  FMN364     -0.2300
      5  C4        31.9190    8.9600   16.2520 C.1   364  FMN364      0.2513
      6  O4        32.8400    9.0340   15.4380 O.2   364  FMN364     -0.2057
      7  C4A       30.5850    8.8350   15.8510 C.2   364  FMN364      0.2703
      8  N5        30.2510    8.7610   14.4910 N.2   364  FMN364     -0.3882
      9  C5A       28.9090    8.7490   14.1030 C.2   364  FMN364      0.1277
     10  C6        28.5670    8.8080   12.7390 C.3   364  FMN364      0.0820
     11  C7        27.2180    8.8250   12.3840 C.2   364  FMN364     -0.0408
     12  C7M       26.8400    8.8970   10.8780 C.3   364  FMN364      0.0265
     13  C8        26.2260    8.7720   13.3810 C.2   364  FMN364     -0.0280
     14  C8M       24.7250    8.7930   13.0660 C.3   364  FMN364      0.0304
     15  C9        26.5730    8.7190   14.7230 C.2   364  FMN364      0.0123
     16  C9A       27.9090    8.6900   15.0840 C.2   364  FMN364      0.0793
     17  N10       28.2420    8.6690   16.4490 N.pl3 364  FMN364     -0.2545
     18  C10       29.5760    8.7430   16.8150 C.2   364  FMN364      0.2449
     19  C1'       27.1700    8.7290   17.4760 C.3   364  FMN364      0.1336
     20  C2'       26.8590   10.2080   17.7660 C.3   364  FMN364      0.2048
     21  O2'       27.9360   10.8280   18.5000 O.3   364  FMN364     -0.2185
     22  C3'       25.5400   10.4170   18.5130 C.3   364  FMN364      0.2165
     23  O3'       25.4710    9.6800   19.7610 O.3   364  FMN364     -0.2175
     24  C4'       24.3110   10.1370   17.6540 C.3   364  FMN364      0.2147
     25  O4'       24.4910   10.5250   16.2820 O.3   364  FMN364     -0.2176
     26  C5'       23.2050   11.0150   18.2090 C.3   364  FMN364      0.1892
     27  O5'       21.9860   10.5740   17.7320 O.3   364  FMN364     -0.2674
     28  P         21.0930   11.2260   16.5360 P.3   364  FMN364      0.5327
     29  O1P       19.8500   10.4660   16.3870 O.3   364  FMN364     -0.1145
     30  O2P       21.8980   10.9240   15.3170 O.2   364  FMN364     -0.2224
     31  O3P       21.2010   12.6170   16.7820 O.3   364  FMN364     -0.1145
@<TRIPOS>BOND
     1    12    11    1
     2    11    10    1
     3    11    13    2
     4    10     9    1
     5    14    13    1
     6    13    15    1
     7     9     8    2
     8     9    16    1
     9     8     7    2
    10    15    16    2
    11    16    17    1
    12    30    28    2
    13     6     5    2
    14     7     5    1
    15     7    18    1
    16     5     4    2
    17    25    24    1
    18    29    28    1
    19    17    18    1
    20    17    19    1
    21    28    31    1
    22    28    27    1
    23    18     1    2
    24    19    20    1
    25     4     2    2
    26    24    26    1
    27    24    22    1
    28    27    26    1
    29    20    21    1
    30    20    22    1
    31     1     2    2
    32    22    23    1
    33     2     3    2
