@<TRIPOS>MOLECULE
2rdu_FMN_A_1.pdb
 31 33 0 0 0
SMALL
GASTEIGER

@<TRIPOS>ATOM
      1  N1        29.9710   -8.7610  -17.3030 N.2   371  FMN371     -0.2890
      2  C2        31.3110   -8.8720  -17.6610 C.1   371  FMN371      0.3669
      3  O2        31.6070   -8.8980  -18.8410 O.2   371  FMN371     -0.1744
      4  N3        32.2980   -8.9710  -16.6910 N.2   371  FMN371     -0.2300
      5  C4        31.9410   -8.9310  -15.3530 C.1   371  FMN371      0.2513
      6  O4        32.8170   -9.0090  -14.5030 O.2   371  FMN371     -0.2057
      7  C4A       30.6080   -8.8010  -14.9830 C.2   371  FMN371      0.2700
      8  N5        30.2810   -8.7000  -13.6220 N.2   371  FMN371     -0.3878
      9  C5A       28.9380   -8.7130  -13.2550 C.2   371  FMN371      0.1320
     10  C6        28.6050   -8.7790  -11.8930 C.2   371  FMN371      0.0250
     11  C7        27.2650   -8.8700  -11.5230 C.2   371  FMN371     -0.0238
     12  C7M       26.9610   -8.9540  -10.0190 C.3   371  FMN371      0.0308
     13  C8        26.2540   -8.8560  -12.5170 C.2   371  FMN371     -0.0280
     14  C8M       24.7550   -8.9520  -12.2020 C.3   371  FMN371      0.0304
     15  C9        26.6000   -8.7810  -13.8570 C.2   371  FMN371     -0.0041
     16  C9A       27.9390   -8.6950  -14.2420 C.3   371  FMN371      0.1497
     17  N10       28.2720   -8.6490  -15.6160 N.pl3 371  FMN371     -0.2691
     18  C10       29.6110   -8.7130  -15.9620 C.2   371  FMN371      0.2416
     19  C1'       27.2110   -8.7660  -16.6460 C.3   371  FMN371      0.1294
     20  C2'       26.8980  -10.2740  -16.9180 C.3   371  FMN371      0.2044
     21  O2'       27.9280  -10.9520  -17.6450 O.3   371  FMN371     -0.2185
     22  C3'       25.5800  -10.5280  -17.6630 C.3   371  FMN371      0.2164
     23  O3'       25.5550   -9.7550  -18.9080 O.3   371  FMN371     -0.2175
     24  C4'       24.3390  -10.2190  -16.8190 C.3   371  FMN371      0.2147
     25  O4'       24.5100  -10.6480  -15.4600 O.3   371  FMN371     -0.2176
     26  C5'       23.0910  -10.8670  -17.4680 C.3   371  FMN371      0.1892
     27  O5'       21.8810  -10.4660  -16.8190 O.3   371  FMN371     -0.2674
     28  P         21.2980  -11.3480  -15.6330 P.3   371  FMN371      0.5327
     29  O1P       21.3330  -12.8210  -15.8570 O.2   371  FMN371     -0.2224
     30  O2P       22.1170  -10.9710  -14.3310 O.3   371  FMN371     -0.1145
     31  O3P       19.8710  -10.7690  -15.5640 O.3   371  FMN371     -0.1145
@<TRIPOS>BOND
     1    23    22    1
     2     3     2    2
     3    22    20    1
     4    22    24    1
     5     2     1    2
     6     2     4    2
     7    21    20    1
     8    26    27    1
     9    26    24    1
    10     1    18    2
    11    20    19    1
    12    27    28    1
    13    24    25    1
    14     4     5    2
    15    19    17    1
    16    18    17    1
    17    18     7    1
    18    29    28    2
    19    28    31    1
    20    28    30    1
    21    17    16    1
    22     5     7    1
    23     5     6    2
    24     7     8    2
    25    16    15    1
    26    16     9    1
    27    15    13    2
    28     8     9    2
    29     9    10    1
    30    13    14    1
    31    13    11    1
    32    10    11    2
    33    11    12    1
