@<TRIPOS>MOLECULE
2rdw_FMN_A_1.pdb
 31 33 0 0 0
SMALL
GASTEIGER

@<TRIPOS>ATOM
      1  N1        13.0220  -28.3640   22.8840 N.2   372  FMN372     -0.2890
      2  C2        13.8630  -29.3700   22.4160 C.1   372  FMN372      0.3669
      3  O2        14.0330  -29.5050   21.2060 O.2   372  FMN372     -0.1744
      4  N3        14.5190  -30.2050   23.3500 N.2   372  FMN372     -0.2300
      5  C4        14.3190  -30.0370   24.7280 C.1   372  FMN372      0.2513
      6  O4        14.8950  -30.7990   25.5100 O.2   372  FMN372     -0.2057
      7  C4A       13.4590  -29.0220   25.1840 C.2   372  FMN372      0.2700
      8  N5        13.2430  -28.8400   26.5620 N.2   372  FMN372     -0.3878
      9  C5A       12.3890  -27.8560   27.0170 C.2   372  FMN372      0.1320
     10  C6        12.2250  -27.7280   28.3940 C.2   372  FMN372      0.0250
     11  C7        11.3830  -26.7410   28.8920 C.2   372  FMN372     -0.0238
     12  C7M       11.1880  -26.6240   30.3960 C.3   372  FMN372      0.0308
     13  C8        10.7080  -25.8780   28.0090 C.2   372  FMN372     -0.0280
     14  C8M        9.7790  -24.7970   28.5480 C.3   372  FMN372      0.0304
     15  C9        10.8850  -25.9920   26.6170 C.2   372  FMN372     -0.0041
     16  C9A       11.7450  -26.9840   26.1100 C.3   372  FMN372      0.1497
     17  N10       11.9330  -27.1550   24.7130 N.pl3 372  FMN372     -0.2691
     18  C10       12.8100  -28.1720   24.2660 C.2   372  FMN372      0.2416
     19  C1'       11.1450  -26.3780   23.7120 C.3   372  FMN372      0.1294
     20  C2'        9.8170  -27.1550   23.4740 C.3   372  FMN372      0.2044
     21  O2'       10.0060  -28.3520   22.6470 O.3   372  FMN372     -0.2185
     22  C3'        8.6990  -26.2860   22.8670 C.3   372  FMN372      0.2164
     23  O3'        9.1880  -25.6890   21.6810 O.3   372  FMN372     -0.2175
     24  C4'        8.1300  -25.2060   23.7820 C.3   372  FMN372      0.2147
     25  O4'        8.0440  -25.6090   25.1720 O.3   372  FMN372     -0.2176
     26  C5'        6.7240  -24.8890   23.2910 C.3   372  FMN372      0.1892
     27  O5'        6.2940  -23.6610   23.8110 O.3   372  FMN372     -0.2674
     28  P          5.3330  -23.6280   25.0650 P.3   372  FMN372      0.5327
     29  O1P        4.1210  -24.4620   25.0020 O.2   372  FMN372     -0.2224
     30  O2P        6.3120  -23.9820   26.2900 O.3   372  FMN372     -0.1145
     31  O3P        4.9830  -22.1280   25.2090 O.3   372  FMN372     -0.1145
@<TRIPOS>BOND
     1     3     2    2
     2    23    22    1
     3     2     1    2
     4     2     4    2
     5    21    20    1
     6    22    20    1
     7    22    24    1
     8     1    18    2
     9    26    24    1
    10    26    27    1
    11     4     5    2
    12    20    19    1
    13    19    17    1
    14    24    25    1
    15    27    28    1
    16    18    17    1
    17    18     7    1
    18    17    16    1
    19     5     7    1
    20     5     6    2
    21    29    28    2
    22    28    31    1
    23    28    30    1
    24     7     8    2
    25    16    15    1
    26    16     9    1
    27     8     9    2
    28    15    13    2
    29     9    10    1
    30    13    14    1
    31    13    11    1
    32    10    11    2
    33    11    12    1
