@<TRIPOS>MOLECULE
2rdz_HEC_A_1.pdb
 43 50 0 0 0
SMALL
GASTEIGER

@<TRIPOS>ATOM
      1 FE         32.2200  -21.5330   27.4270 Fe      1  HEC1        0.0000
      2  CHA       31.8790  -24.0480   29.6800 C.2     1  HEC1        0.0000
      3  CHB       32.4950  -23.8070   24.8500 C.2     1  HEC1        0.0000
      4  CHC       32.0770  -18.9650   25.1850 C.2     1  HEC1        0.0000
      5  CHD       32.4490  -19.2430   29.9720 C.2     1  HEC1        0.0000
      6  NA        32.1930  -23.5560   27.2790 N.ar    1  HEC1        0.0000
      7  C1A       32.0780  -24.4060   28.3530 C.ar    1  HEC1        0.0000
      8  C2A       32.1990  -25.7660   27.8570 C.ar    1  HEC1        0.0000
      9  C3A       32.3710  -25.7170   26.5260 C.ar    1  HEC1        0.0000
     10  C4A       32.3700  -24.3030   26.1370 C.ar    1  HEC1        0.0000
     11  CMA       32.5360  -26.9030   25.5300 C.3     1  HEC1        0.0000
     12  CAA       32.1090  -27.0080   28.7710 C.3     1  HEC1        0.0000
     13  CBA       30.6170  -27.3090   28.9800 C.3     1  HEC1        0.0000
     14  CGA       29.8560  -27.5280   27.6730 C.2     1  HEC1        0.0000
     15  O1A       30.0040  -28.6180   27.0420 O.co2   1  HEC1        0.0000
     16  O2A       29.0920  -26.5980   27.2660 O.co2   1  HEC1        0.0000
     17  NB        32.3100  -21.4120   25.3700 N.2     1  HEC1        0.0000
     18  C1B       32.2870  -22.4770   24.4960 C.2     1  HEC1        0.0000
     19  C2B       32.0180  -21.9470   23.1570 C.2     1  HEC1        0.0000
     20  C3B       31.9080  -20.5900   23.2650 C.2     1  HEC1        0.0000
     21  C4B       32.0760  -20.2500   24.6640 C.2     1  HEC1        0.0000
     22  CMB       31.9530  -22.8300   21.8950 C.3     1  HEC1        0.0000
     23  CAB       31.5950  -19.5160   22.1930 C.3     1  HEC1        0.0000
     24  CBB       30.0960  -19.5020   21.7500 C.3     1  HEC1        0.0000
     25  NC        32.2700  -19.4860   27.5420 N.ar    1  HEC1        0.0000
     26  C1C       32.1930  -18.6020   26.4930 C.ar    1  HEC1        0.0000
     27  C2C       32.3190  -17.2330   27.0160 C.ar    1  HEC1        0.0000
     28  C3C       32.3680  -17.3140   28.3560 C.ar    1  HEC1        0.0000
     29  C4C       32.3680  -18.7380   28.6960 C.ar    1  HEC1        0.0000
     30  CMC       32.2450  -15.9590   26.1500 C.3     1  HEC1        0.0000
     31  CAC       32.4710  -16.2020   29.4490 C.3     1  HEC1        0.0000
     32  CBC       32.0350  -14.7720   29.1010 C.3     1  HEC1        0.0000
     33  ND        32.2050  -21.6130   29.5140 N.2     1  HEC1        0.0000
     34  C1D       32.2350  -20.5390   30.3630 C.2     1  HEC1        0.0000
     35  C2D       31.9840  -20.9860   31.7220 C.2     1  HEC1        0.0000
     36  C3D       31.7770  -22.4890   31.6230 C.2     1  HEC1        0.0000
     37  C4D       31.9300  -22.7890   30.2130 C.2     1  HEC1        0.0000
     38  CMD       31.9170  -20.1220   32.9800 C.3     1  HEC1        0.0000
     39  CAD       31.4810  -23.4880   32.7640 C.3     1  HEC1        0.0000
     40  CBD       30.0650  -23.2970   33.3460 C.3     1  HEC1        0.0000
     41  CGD       28.9920  -24.0070   32.5440 C.2     1  HEC1        0.0000
     42  O1D       29.3010  -24.6020   31.4760 O.co2   1  HEC1        0.0000
     43  O2D       27.8030  -23.9780   32.9680 O.co2   1  HEC1        0.0000
@<TRIPOS>BOND
     1    24    23    1
     2    22    19    1
     3    23    20    1
     4    19    20    2
     5    19    18    1
     6    20    21    1
     7    18     3    1
     8    18    17    2
     9    21     4    2
    10    21    17    1
    11     3    10    2
    12     4    26    1
    13    17     1    1
    14    11     9    1
    15    10     9   ar
    16    10     6   ar
    17    30    27    1
    18    26    27   ar
    19    26    25   ar
    20     9     8   ar
    21    27    28   ar
    22    15    14   ar
    23    16    14   ar
    24     6     1    1
    25     6     7   ar
    26     1    25    1
    27     1    33    1
    28    25    29   ar
    29    14    13    1
    30     8     7   ar
    31     8    12    1
    32     7     2    2
    33    28    29   ar
    34    28    31    1
    35    29     5    1
    36    12    13    1
    37    32    31    1
    38    33    37    2
    39    33    34    1
    40     2    37    1
    41     5    34    2
    42    37    36    1
    43    34    35    1
    44    42    41   ar
    45    36    35    2
    46    36    39    1
    47    35    38    1
    48    41    43   ar
    49    41    40    1
    50    39    40    1
