@<TRIPOS>MOLECULE
2re8_GSU_A_1.pdb
 32 34 0 0 0
SMALL
GASTEIGER

@<TRIPOS>ATOM
      1  C2        37.5380   25.4250   18.5490 C.3   998  GSU998      0.5254
      2  S         45.5480   27.6060   15.2370 S.3   998  GSU998      0.0852
      3  N         46.6210   31.5510   13.7420 N.3   998  GSU998     -0.1230
      4  CA        45.5510   31.6070   14.7530 C.3   998  GSU998      0.1715
      5  CB        44.2570   32.0650   14.0930 C.3   998  GSU998      0.0403
      6  CG        43.7930   33.3510   14.7490 C.3   998  GSU998      0.1161
      7  CD        42.3370   33.6420   14.4920 C.2   998  GSU998      0.3649
      8  OE1       41.6460   32.8990   13.8380 O.co2 998  GSU998     -0.2457
      9  OE2       41.8060   34.7600   14.9990 O.co2 998  GSU998     -0.2457
     10  C         45.2990   30.2450   15.3090 C.2   998  GSU998      0.2798
     11  O         44.6220   30.1260   16.3030 O.2   998  GSU998     -0.2701
     12  N10       45.8160   29.1580   14.6950 N.am  998  GSU998     -0.0577
     13  O1S       46.0090   27.5700   16.5680 O.3   998  GSU998     -0.0508
     14  O2S       46.0860   26.7860   14.2130 O.3   998  GSU998     -0.0508
     15  O5'       44.0420   27.2710   15.2640 O.3   998  GSU998     -0.2230
     16  C5'       43.3880   27.7450   14.0470 C.3   998  GSU998      0.2064
     17  C4'       41.9170   28.0880   14.3370 C.3   998  GSU998      0.1842
     18  O4'       41.3990   27.0820   15.1880 O.3   998  GSU998     -0.3135
     19  C1'       40.6390   27.7040   16.2410 C.3   998  GSU998      0.3186
     20  N9        40.7210   26.8270   17.4050 N.pl3 998  GSU998     -0.1439
     21  C4        39.6710   26.1970   18.0000 C.2   998  GSU998      0.3518
     22  N3        38.3420   26.1600   17.7800 N.2   998  GSU998     -0.0055
     23  N1        38.0150   24.6880   19.5670 N.2   998  GSU998      0.0021
     24  C6        39.3320   24.6580   19.8660 C.2   998  GSU998      0.4393
     25  N6        39.7890   23.8870   20.9180 N.pl3 998  GSU998      0.2180
     26  C5        40.2310   25.4410   19.0660 C.2   998  GSU998      0.2526
     27  N7        41.5720   25.6670   19.0540 N.2   998  GSU998     -0.2095
     28  C8        41.8610   26.4740   18.0870 C.3   998  GSU998      0.3377
     29  C2'       41.2910   29.0950   16.4430 C.3   998  GSU998      0.2570
     30  O2'       40.3880   30.0730   16.9570 O.3   998  GSU998     -0.2130
     31  C3'       41.8400   29.4400   15.0450 C.3   998  GSU998      0.2185
     32  O3'       40.9230   30.2920   14.3630 O.3   998  GSU998     -0.2174
@<TRIPOS>BOND
     1     3     4    1
     2     8     7   ar
     3    16    17    1
     4    16    15    1
     5     5     6    1
     6     5     4    1
     7    14     2    1
     8    17    31    1
     9    17    18    1
    10    32    31    1
    11     7     6    1
    12     7     9   ar
    13    12     2    1
    14    12    10   am
    15     4    10    1
    16    31    29    1
    17    18    19    1
    18     2    15    1
    19     2    13    1
    20    10    11    2
    21    19    29    1
    22    19    20    1
    23    29    30    1
    24    20    21    1
    25    20    28    1
    26    22    21    2
    27    22     1    1
    28    21    26    1
    29    28    27    1
    30     1    23    1
    31    27    26    2
    32    26    24    1
    33    23    24    2
    34    24    25    1
