@<TRIPOS>MOLECULE
2rem_III_T_1.pdb
 38 37 0 0 0
SMALL
GASTEIGER

@<TRIPOS>ATOM
      1  N         16.2990  -21.7790  -32.9370 N.3     2  UNK2       -0.1231
      2  CA        15.3910  -20.8940  -32.1310 C.3     2  UNK2        0.1694
      3  C         15.9960  -19.4980  -32.0780 C.2     2  UNK2        0.2592
      4  O         16.8000  -19.1700  -31.1940 O.2     2  UNK2       -0.2718
      5  CB        15.1730  -21.4630  -30.7190 C.3     2  UNK2        0.0304
      6  N         15.5660  -18.6670  -33.0220 N.am    3  UNK3       -0.1966
      7  CA        16.4010  -17.6000  -33.5410 C.3     3  UNK3        0.1728
      8  C         16.3230  -16.2650  -32.7990 C.2     3  UNK3        0.2616
      9  O         16.0220  -16.2040  -31.5960 O.2     3  UNK3       -0.2715
     10  CB        16.1350  -17.4250  -35.0440 C.3     3  UNK3        0.0334
     11  N         16.6450  -15.2150  -33.5410 N.am    4  UNK4       -0.1963
     12  CA        16.7150  -13.8530  -33.0450 C.3     4  UNK4        0.1728
     13  C         16.0430  -12.9480  -34.0770 C.2     4  UNK4        0.2616
     14  O         16.0090  -13.2740  -35.2750 O.2     4  UNK4       -0.2715
     15  CB        18.1640  -13.4440  -32.8390 C.3     4  UNK4        0.0334
     16  N         15.4670  -11.8450  -33.6120 N.am    5  UNK5       -0.1963
     17  CA        14.9540  -10.8210  -34.5090 C.3     5  UNK5        0.1728
     18  C         16.0600   -9.8000  -34.6500 C.2     5  UNK5        0.2616
     19  O         16.5260   -9.2410  -33.6460 O.2     5  UNK5       -0.2715
     20  CB        13.6700  -10.1750  -33.9560 C.3     5  UNK5        0.0334
     21  N         16.4970   -9.5850  -35.8920 N.am    6  UNK6       -0.1963
     22  CA        17.5830   -8.6500  -36.1760 C.3     6  UNK6        0.1728
     23  C         17.2190   -7.2090  -35.8140 C.2     6  UNK6        0.2617
     24  O         16.0770   -6.7680  -35.9670 O.2     6  UNK6       -0.2715
     25  CB        18.0260   -8.7530  -37.6460 C.3     6  UNK6        0.0334
     26  N         18.1970   -6.4840  -35.3050 N.am    7  UNK7       -0.1940
     27  CA        17.9860   -5.1010  -34.9450 C.3     7  UNK7        0.2014
     28  C         19.2660   -4.5220  -34.4050 C.2     7  UNK7        0.2639
     29  O         20.1140   -5.2400  -33.8710 O.2     7  UNK7       -0.2714
     30  N         19.4150   -3.2190  -34.5610 N.am    8  UNK8       -0.1939
     31  CA        20.5740   -2.5340  -34.0350 C.3     8  UNK8        0.2014
     32  C         20.1240   -1.2360  -33.4200 C.2     8  UNK8        0.2638
     33  O         19.1340   -0.6340  -33.8710 O.2     8  UNK8       -0.2714
     34  N         20.8410   -0.8110  -32.3820 N.am    9  UNK9       -0.1977
     35  CA        20.6570    0.5120  -31.8100 C.3     9  UNK9        0.1597
     36  C         20.9160    1.5720  -32.8870 C.2     9  UNK9        0.2287
     37  O         20.0000    1.9370  -33.6330 O.2     9  UNK9       -0.2864
     38  CB        21.5840    0.7090  -30.6230 C.3     9  UNK9        0.0319
@<TRIPOS>BOND
     1    25    22    1
     2    22    21    1
     3    22    23    1
     4    24    23    2
     5    21    18   am
     6    23    26   am
     7    26    27    1
     8    14    13    2
     9    10     7    1
    10    27    28    1
    11    18    17    1
    12    18    19    2
    13    30    28   am
    14    30    31    1
    15    17    20    1
    16    17    16    1
    17    28    29    2
    18    13    16   am
    19    13    12    1
    20    31    32    1
    21    33    32    2
    22    37    36    2
    23    11    12    1
    24    11     8   am
    25     7     6    1
    26     7     8    1
    27    32    34   am
    28    12    15    1
    29     6     3   am
    30     1     2    1
    31    36    35    1
    32     8     9    2
    33    34    35    1
    34     2     3    1
    35     2     5    1
    36     3     4    2
    37    35    38    1
