@<TRIPOS>MOLECULE
2reo_A3P_A_1.pdb
 27 29 0 0 0
SMALL
GASTEIGER

@<TRIPOS>ATOM
      1  P1        17.8840  -23.3340    1.7420 P.3   401  A3P401      0.5327
      2  O1P       17.1760  -22.4730    0.7640 O.2   401  A3P401     -0.2224
      3  O2P       18.4310  -22.5940    2.9310 O.3   401  A3P401     -0.1145
      4  O3P       18.8320  -24.2550    1.0360 O.3   401  A3P401     -0.1145
      5  P2        13.7580  -29.6410    3.2180 P.3   401  A3P401      0.5327
      6  O4P       12.3160  -29.8620    2.7750 O.3   401  A3P401     -0.1145
      7  O5P       13.9410  -29.8750    4.7130 O.3   401  A3P401     -0.1145
      8  O6P       14.8350  -30.2300    2.3290 O.2   401  A3P401     -0.2224
      9  O5'       14.0820  -28.0720    2.9780 O.3   401  A3P401     -0.2675
     10  C5'       15.4320  -27.6200    3.2120 C.3   401  A3P401      0.1859
     11  C4'       15.4490  -26.1360    3.0620 C.3   401  A3P401      0.1796
     12  O4'       14.7470  -25.6260    4.1850 O.3   401  A3P401     -0.3136
     13  C3'       16.8220  -25.4870    3.0590 C.3   401  A3P401      0.1928
     14  O3'       16.7240  -24.2990    2.2750 O.3   401  A3P401     -0.2673
     15  C2'       17.0030  -25.1740    4.5110 C.3   401  A3P401      0.2543
     16  O2'       17.9430  -24.1370    4.7880 O.3   401  A3P401     -0.2131
     17  C1'       15.6040  -24.7320    4.8720 C.3   401  A3P401      0.3185
     18  N9        15.4330  -24.7830    6.3160 N.pl3 401  A3P401     -0.1439
     19  C8        15.7620  -25.8230    7.1120 C.3   401  A3P401      0.3377
     20  N7        15.4700  -25.5350    8.4080 N.2   401  A3P401     -0.2095
     21  C5        14.9510  -24.2940    8.4060 C.2   401  A3P401      0.2526
     22  C6        14.4530  -23.4140    9.4370 C.2   401  A3P401      0.4393
     23  N6        14.4710  -23.8660   10.7270 N.pl3 401  A3P401      0.2180
     24  N1        13.9810  -22.1860    9.0630 N.2   401  A3P401      0.0021
     25  C2        13.9870  -21.7800    7.7820 C.3   401  A3P401      0.5254
     26  N3        14.4450  -22.5720    6.7840 N.2   401  A3P401     -0.0055
     27  C4        14.9300  -23.8100    7.0450 C.2   401  A3P401      0.3518
@<TRIPOS>BOND
     1     2     1    2
     2     4     1    1
     3     1    14    1
     4     1     3    1
     5    14    13    1
     6     8     5    2
     7     6     5    1
     8     9    10    1
     9     9     5    1
    10    13    11    1
    11    13    15    1
    12    11    10    1
    13    11    12    1
    14     5     7    1
    15    12    17    1
    16    15    16    1
    17    15    17    1
    18    17    18    1
    19    18    27    1
    20    18    19    1
    21    26    27    2
    22    26    25    1
    23    27    21    1
    24    19    20    1
    25    25    24    1
    26    21    20    2
    27    21    22    1
    28    24    22    2
    29    22    23    1
