@<TRIPOS>MOLECULE
2rep_ADP_A_1.pdb
 27 29 0 0 0
SMALL
GASTEIGER

@<TRIPOS>ATOM
      1  PB        47.8760   30.6390  111.1060 P.3   800  ADP800      0.5373
      2  O1B       47.6190   32.1390  111.1770 O.3   800  ADP800     -0.1143
      3  O2B       47.0740   29.8860  110.0430 O.2   800  ADP800     -0.2221
      4  O3B       49.3830   30.3880  111.2050 O.3   800  ADP800     -0.1143
      5  PA        47.9540   29.1560  113.6170 P.3   800  ADP800      0.2231
      6  O1A       48.3560   27.8050  113.0940 O.2   800  ADP800     -0.5169
      7  O2A       48.8310   30.0920  114.3650 O.3   800  ADP800     -0.4370
      8  O3A       47.2080   29.9630  112.4270 O.3   800  ADP800     -0.2261
      9  O5'       46.7250   28.8180  114.5730 O.3   800  ADP800     -0.3111
     10  C5'       45.8750   29.8330  115.1500 C.3   800  ADP800      0.1813
     11  C4'       45.3970   29.2410  116.4430 C.3   800  ADP800      0.1821
     12  O4'       44.7070   28.0050  116.1360 O.3   800  ADP800     -0.3135
     13  C3'       46.6030   28.8850  117.2820 C.3   800  ADP800      0.2184
     14  O3'       46.4010   29.1930  118.6580 O.3   800  ADP800     -0.2174
     15  C2'       46.7330   27.4030  117.1260 C.3   800  ADP800      0.2570
     16  O2'       47.1730   26.9040  118.3390 O.3   800  ADP800     -0.2130
     17  C1'       45.3360   26.9270  116.8440 C.3   800  ADP800      0.3186
     18  N9        45.1890   25.7330  116.0130 N.pl3 800  ADP800     -0.1439
     19  C8        45.3300   25.6900  114.7010 C.3   800  ADP800      0.3377
     20  N7        45.0820   24.4300  114.2300 N.2   800  ADP800     -0.2095
     21  C5        44.7590   23.6750  115.2760 C.2   800  ADP800      0.2526
     22  C6        44.3670   22.2840  115.4760 C.2   800  ADP800      0.4393
     23  N6        44.2970   21.4430  114.4250 N.pl3 800  ADP800      0.2180
     24  N1        44.1280   21.8440  116.7410 N.2   800  ADP800      0.0021
     25  C2        44.2130   22.6900  117.7950 C.3   800  ADP800      0.5254
     26  N3        44.5390   23.9930  117.6630 N.2   800  ADP800     -0.0055
     27  C4        44.8200   24.5330  116.4440 C.2   800  ADP800      0.3518
@<TRIPOS>BOND
     1     3     1    2
     2     1     2    1
     3     1     4    1
     4     1     8    1
     5     8     5    1
     6     6     5    2
     7     5     7    1
     8     5     9    1
     9    20    19    1
    10    20    21    2
    11    23    22    1
    12     9    10    1
    13    19    18    1
    14    10    11    1
    15    21    22    1
    16    21    27    1
    17    22    24    2
    18    18    27    1
    19    18    17    1
    20    12    11    1
    21    12    17    1
    22    11    13    1
    23    27    26    2
    24    24    25    1
    25    17    15    1
    26    15    13    1
    27    15    16    1
    28    13    14    1
    29    26    25    1
