@<TRIPOS>MOLECULE
2rew_CPQ_A_1.pdb
 25 28 0 0 0
SMALL
GASTEIGER

@<TRIPOS>ATOM
      1  C1       -26.0420   38.5690  -13.8610 C.2     1  CPQ1       -0.0288
      2  C2       -26.5150   39.9310  -14.3860 C.3     1  CPQ1        0.0185
      3  C3       -27.5320   38.8360  -16.5040 C.3     1  CPQ1        0.0332
      4  C4       -27.8940   38.5450  -17.9650 C.3     1  CPQ1        0.1519
      5  C5       -28.1230   39.8170  -18.7900 C.3     1  CPQ1        0.0282
      6  C6       -27.3500   40.9960  -18.1960 C.3     1  CPQ1        0.0024
      7  C7       -27.3960   42.1420  -19.2240 C.3     1  CPQ1        0.0001
      8  C8       -27.3760   41.3960  -20.5710 C.3     1  CPQ1        0.0001
      9  C9       -28.0080   40.0000  -20.3210 C.3     1  CPQ1        0.0024
     10  C10      -29.5670   40.2190  -18.4320 C.3     1  CPQ1        0.0025
     11  C11      -27.8240   40.2450  -13.6740 C.3     1  CPQ1        0.0044
     12  C12      -24.5850   38.1270  -13.9360 C.2     1  CPQ1        0.0015
     13  C13      -23.5690   39.1670  -14.4060 C.3     1  CPQ1        0.1737
     14  C14      -23.9590   40.6180  -14.0560 C.3     1  CPQ1        0.0378
     15  C15      -25.4620   41.0040  -14.0170 C.3     1  CPQ1        0.0066
     16  C16      -25.6490   42.3440  -14.7590 C.3     1  CPQ1        0.0004
     17  C17      -25.9070   42.2950  -16.2700 C.3     1  CPQ1        0.0000
     18  C18      -27.0170   41.3140  -16.7230 C.3     1  CPQ1        0.0005
     19  C19      -26.6740   39.9910  -15.9450 C.3     1  CPQ1        0.0062
     20  C20      -28.8230   39.4130  -21.4990 C.3     1  CPQ1        0.0001
     21  C21      -29.6210   38.1270  -21.2730 C.3     1  CPQ1        0.0000
     22  C22      -27.9750   39.2680  -22.7750 C.3     1  CPQ1        0.0000
     23  C23      -28.5690   39.7930  -24.0890 C.3     1  CPQ1        0.0000
     24  O2       -22.2230   38.9060  -13.9760 O.3     1  CPQ1       -0.2183
     25  O4       -26.6670   38.0230  -18.4690 O.3     1  CPQ1       -0.2232
@<TRIPOS>BOND
     1    23    22    1
     2    22    20    1
     3    20    21    1
     4    20     9    1
     5     8     9    1
     6     8     7    1
     7     9     5    1
     8     7     6    1
     9     5    10    1
    10     5     6    1
    11     5     4    1
    12    25     4    1
    13     6    18    1
    14     4     3    1
    15    18    17    1
    16    18    19    1
    17     3    19    1
    18    17    16    1
    19    19     2    1
    20    16    15    1
    21    13    14    1
    22    13    24    1
    23    13    12    1
    24     2    15    1
    25     2     1    1
    26     2    11    1
    27    14    15    1
    28    12     1    2
