@<TRIPOS>MOLECULE
2rew_REW_A_1.pdb
 38 42 0 0 0
SMALL
GASTEIGER

@<TRIPOS>ATOM
      1  C13      -24.0580   18.1130    4.2860 C.3   469  REW469      0.1055
      2  C18      -29.2610   19.8070    3.0600 C.ar  469  REW469      0.0028
      3  C17      -27.9220   19.4970    3.2860 C.ar  469  REW469      0.0369
      4  C16      -27.5800   18.1630    3.5380 C.ar  469  REW469      0.1383
      5  C19      -30.2330   18.7980    3.0880 C.ar  469  REW469     -0.0041
      6  C20      -29.8840   17.4710    3.3410 C.ar  469  REW469     -0.0186
      7  C21      -28.5490   17.1650    3.5610 C.ar  469  REW469      0.0326
      8  C22      -30.9230   16.3730    3.4160 C.3   469  REW469      0.0378
      9  C23      -30.9260   15.8830    4.8740 C.3   469  REW469      0.1109
     10  C24      -32.1840   16.0010    5.7580 C.3   469  REW469      0.1917
     11  C11      -21.5000   15.9410   10.8140 C.ar  469  REW469      0.0002
     12  C12      -22.0520   15.8550    9.5370 C.ar  469  REW469      0.0058
     13  C33      -32.4170   12.2660    6.6960 C.ar  469  REW469      0.0180
     14  O38      -34.0840   15.6190    4.4130 O.co2 469  REW469     -0.2438
     15  C36      -33.4260   16.4460    5.0850 C.2   469  REW469      0.3833
     16  O37      -33.7390   17.6320    5.2730 O.co2 469  REW469     -0.2438
     17  N25      -32.0750   14.5440    5.9250 N.am  469  REW469     -0.2493
     18  C28      -32.7610   13.6270    6.7010 C.ar  469  REW469      0.0545
     19  C32      -33.1000   11.3150    7.4750 C.ar  469  REW469      0.0382
     20  C31      -34.1620   11.7200    8.2910 C.ar  469  REW469      0.1388
     21  O34      -34.8310   10.7740    9.0550 O.3   469  REW469     -0.4714
     22  C35      -35.9110   11.1230    9.9230 C.3   469  REW469      0.2525
     23  C30      -34.5270   13.0790    8.3030 C.ar  469  REW469      0.0382
     24  C29      -33.8290   14.0070    7.5190 C.ar  469  REW469      0.0180
     25  C26      -31.0570   14.4100    5.0980 C.2   469  REW469      0.2318
     26  O27      -30.4420   13.4610    4.6560 O.2   469  REW469     -0.2745
     27  O15      -26.2820   17.8000    3.7520 O.3   469  REW469     -0.4750
     28  C14      -25.4220   18.7420    4.3620 C.3   469  REW469      0.2126
     29  C3       -23.7210   17.3420    5.5400 C.2   469  REW469      0.1336
     30  N4       -23.3330   17.8880    6.7060 N.2   469  REW469     -0.3728
     31  C5       -23.1270   16.8700    7.5650 C.2   469  REW469      0.2771
     32  O6       -23.3430   15.6930    6.9020 O.2   469  REW469     -0.4486
     33  C2       -23.6960   15.9690    5.7450 C.3   469  REW469      0.2161
     34  C1       -24.0010   14.7520    4.9190 C.3   469  REW469      0.0549
     35  C7       -22.6130   16.9920    8.9410 C.ar  469  REW469      0.0660
     36  C10      -21.4760   17.1750   11.4640 C.ar  469  REW469      0.0000
     37  C9       -21.9900   18.3240   10.8480 C.ar  469  REW469      0.0002
     38  C8       -22.5540   18.2320    9.5730 C.ar  469  REW469      0.0058
@<TRIPOS>BOND
     1     2     5   ar
     2     2     3   ar
     3     5     6   ar
     4     3     4   ar
     5     6     8    1
     6     6     7   ar
     7     8     9    1
     8     4     7   ar
     9     4    27    1
    10    27    28    1
    11     1    28    1
    12     1    29    1
    13    14    15   ar
    14    26    25    2
    15     9    25    1
    16     9    10    1
    17    34    33    1
    18    15    16   ar
    19    15    10    1
    20    25    17   am
    21    29    33    1
    22    29    30    2
    23    33    32    1
    24    10    17    1
    25    17    18    1
    26    13    18   ar
    27    13    19   ar
    28    18    24   ar
    29    30    31    2
    30    32    31    1
    31    19    20   ar
    32    24    23   ar
    33    31    35    1
    34    20    23   ar
    35    20    21    1
    36    35    12   ar
    37    35    38   ar
    38    21    22    1
    39    12    11   ar
    40    38    37   ar
    41    11    36   ar
    42    37    36   ar
