@<TRIPOS>MOLECULE
2rex_GNP_B_1.pdb
 32 34 0 0 0
SMALL
GASTEIGER

@<TRIPOS>ATOM
      1  PG        13.0720  -64.2570   24.1230 P.3   500  GNP500      0.4884
      2  O1G       14.5040  -64.3780   24.6170 O.3   500  GNP500     -0.1240
      3  O2G       13.0140  -64.3950   22.6570 O.2   500  GNP500     -0.2331
      4  O3G       12.5460  -62.9450   24.6590 O.3   500  GNP500     -0.1240
      5  N3B       12.3570  -65.4350   24.9700 N.3   500  GNP500     -0.0163
      6  PB        10.9110  -65.9990   24.9370 P.3   500  GNP500      0.4669
      7  O1B       10.2570  -65.8690   23.6310 O.2   500  GNP500     -0.2351
      8  O2B       10.1320  -65.4250   26.0140 O.3   500  GNP500     -0.1253
      9  O3A       11.0600  -67.5240   25.2320 O.3   500  GNP500     -0.2360
     10  PA        10.4490  -68.7490   24.4510 P.3   500  GNP500      0.2220
     11  O1A       11.2880  -69.2160   23.3210 O.2   500  GNP500     -0.5170
     12  O2A        9.0220  -68.6390   24.1790 O.3   500  GNP500     -0.4370
     13  O5'       10.4740  -69.8890   25.5380 O.3   500  GNP500     -0.3111
     14  C5'       11.6960  -70.4590   25.9240 C.3   500  GNP500      0.1813
     15  C4'       11.5350  -71.9420   26.1470 C.3   500  GNP500      0.1799
     16  O4'       10.6590  -72.0960   27.2970 O.3   500  GNP500     -0.3326
     17  C3'       10.8580  -72.7340   25.0470 C.3   500  GNP500      0.2158
     18  O3'       11.8070  -73.1070   24.0860 O.3   500  GNP500     -0.2175
     19  C2'       10.3070  -73.9440   25.8130 C.3   500  GNP500      0.2310
     20  O2'       11.3080  -74.9830   25.8980 O.3   500  GNP500     -0.2158
     21  C1'        9.9220  -73.2970   27.1450 C.3   500  GNP500      0.2293
     22  N9         8.5100  -73.0460   27.2290 N.pl3 500  GNP500     -0.2354
     23  C8         7.7480  -72.1650   26.5230 C.3   500  GNP500      0.2246
     24  N7         6.4780  -72.2410   26.8040 N.2   500  GNP500     -0.2322
     25  C5         6.3800  -73.2460   27.7440 C.2   500  GNP500      0.2182
     26  C6         5.2570  -73.7650   28.4370 C.1   500  GNP500      0.2372
     27  O6         4.0710  -73.4480   28.2970 O.2   500  GNP500     -0.2069
     28  N1         5.5960  -74.7680   29.3580 N.2   500  GNP500     -0.2485
     29  C2         6.8860  -75.2120   29.5470 C.1   500  GNP500      0.2531
     30  N2         7.0570  -76.1950   30.4580 N.pl3 500  GNP500     -0.0226
     31  N3         7.9450  -74.7350   28.9080 N.2   500  GNP500     -0.3074
     32  C4         7.6230  -73.7450   28.0320 C.2   500  GNP500      0.2300
@<TRIPOS>BOND
     1     3     1    2
     2    11    10    2
     3     7     6    2
     4    18    17    1
     5     1     2    1
     6     1     4    1
     7     1     5    1
     8    12    10    1
     9    10     9    1
    10    10    13    1
    11     6     5    1
    12     6     9    1
    13     6     8    1
    14    17    19    1
    15    17    15    1
    16    13    14    1
    17    19    20    1
    18    19    21    1
    19    14    15    1
    20    15    16    1
    21    23    24    1
    22    23    22    1
    23    24    25    2
    24    21    22    1
    25    21    16    1
    26    22    32    1
    27    25    32    1
    28    25    26    1
    29    32    31    2
    30    27    26    2
    31    26    28    2
    32    31    29    2
    33    28    29    2
    34    29    30    1
