@<TRIPOS>MOLECULE
2rf2_MRX_A_1.pdb
 21 23 0 0 0
SMALL
GASTEIGER

@<TRIPOS>ATOM
      1 BR          6.6800   10.2160   18.0890 Br    561  MRX561     -0.0720
      2  C6         7.4420   11.5910   16.9300 C.3   561  MRX561      0.1008
      3  C1         8.7500   12.1020   17.0540 C.2   561  MRX561     -0.0103
      4  C5         6.6520   12.0880   15.8560 C.2   561  MRX561     -0.0081
      5  C4         7.1630   13.0090   14.9290 C.2   561  MRX561      0.0284
      6  C3         8.4540   13.5170   15.1070 C.2   561  MRX561      0.1288
      7  N9         9.1950   14.4610   14.3710 N.2   561  MRX561     -0.3997
      8  C8        10.4590   14.6970   14.8560 C.2   561  MRX561      0.1927
      9  C18       11.2090   15.6740   14.1570 C.2   561  MRX561      0.3118
     10  N20       12.5280   16.1410   14.4480 N.am  561  MRX561     -0.0817
     11  O19       10.6330   16.2420   13.1600 O.2   561  MRX561     -0.2641
     12  C7        10.5760   13.8330   15.9840 C.3   561  MRX561      0.2264
     13  C2         9.2890   13.0740   16.1480 C.2   561  MRX561      0.0342
     14  S10       11.9600   13.6750   17.0640 S.O2  561  MRX561      0.0528
     15  O16       13.0900   14.4320   16.4800 O.2   561  MRX561     -0.1566
     16  O17       11.8340   12.3280   17.5590 O.2   561  MRX561     -0.1566
     17  N11       11.6390   14.5860   18.5490 N.3   561  MRX561     -0.1588
     18  C15       11.5470   16.0860   18.5370 C.3   561  MRX561      0.0955
     19  C14       10.9450   16.5560   19.8330 C.3   561  MRX561      0.0206
     20  C13       10.6930   15.2130   20.5450 C.3   561  MRX561      0.0206
     21  C12       10.4640   14.2360   19.3940 C.3   561  MRX561      0.0955
@<TRIPOS>BOND
     1    11     9    2
     2     9    10   am
     3     9     8    1
     4     7     8    2
     5     7     6    2
     6     8    12    1
     7     5     6    1
     8     5     4    2
     9     6    13    1
    10     4     2    1
    11    12    13    1
    12    12    14    1
    13    13     3    2
    14    15    14    2
    15     2     3    1
    16     2     1    1
    17    14    16    2
    18    14    17    1
    19    18    17    1
    20    18    19    1
    21    17    21    1
    22    21    20    1
    23    19    20    1
