@<TRIPOS>MOLECULE
2rf7_HEC_A_1.pdb
 43 50 0 0 0
SMALL
GASTEIGER

@<TRIPOS>ATOM
      1 FE         21.3020  -35.4060  -35.2700 Fe      1  HEC1        0.0000
      2  CHA       18.7180  -35.3190  -32.9620 C.2     1  HEC1        0.0000
      3  CHB       19.0610  -35.7030  -37.8240 C.2     1  HEC1        0.0000
      4  CHC       23.8530  -34.7800  -37.5820 C.2     1  HEC1        0.0000
      5  CHD       23.5780  -35.3520  -32.7650 C.2     1  HEC1        0.0000
      6  NA        19.2800  -35.4890  -35.3590 N.ar    1  HEC1        0.0000
      7  C1A       18.3970  -35.5030  -34.3010 C.ar    1  HEC1        0.0000
      8  C2A       17.0520  -35.7260  -34.8390 C.ar    1  HEC1        0.0000
      9  C3A       17.1570  -35.8110  -36.1690 C.ar    1  HEC1        0.0000
     10  C4A       18.5570  -35.6530  -36.5370 C.ar    1  HEC1        0.0000
     11  CMA       16.0290  -36.0540  -37.1840 C.3     1  HEC1        0.0000
     12  CAA       15.7430  -35.7830  -34.0040 C.3     1  HEC1        0.0000
     13  CBA       15.3150  -34.3530  -33.6530 C.3     1  HEC1        0.0000
     14  CGA       14.9540  -33.5480  -34.9020 C.2     1  HEC1        0.0000
     15  O1A       13.9550  -33.9010  -35.5890 O.co2   1  HEC1        0.0000
     16  O2A       15.6460  -32.5400  -35.2240 O.co2   1  HEC1        0.0000
     17  NB        21.4460  -35.2950  -37.3450 N.2     1  HEC1        0.0000
     18  C1B       20.3500  -35.3470  -38.2040 C.2     1  HEC1        0.0000
     19  C2B       20.7920  -34.9030  -39.5180 C.2     1  HEC1        0.0000
     20  C3B       22.1230  -34.6160  -39.4090 C.2     1  HEC1        0.0000
     21  C4B       22.5570  -34.8730  -38.0530 C.2     1  HEC1        0.0000
     22  CMB       19.8530  -34.7780  -40.7430 C.3     1  HEC1        0.0000
     23  CAB       23.1200  -34.1060  -40.4690 C.3     1  HEC1        0.0000
     24  CBB       22.7710  -32.6500  -40.8760 C.3     1  HEC1        0.0000
     25  NC        23.3500  -35.1010  -35.2010 N.ar    1  HEC1        0.0000
     26  C1C       24.2270  -34.9350  -36.2560 C.ar    1  HEC1        0.0000
     27  C2C       25.5890  -35.0020  -35.7430 C.ar    1  HEC1        0.0000
     28  C3C       25.5090  -35.0120  -34.3950 C.ar    1  HEC1        0.0000
     29  C4C       24.0910  -35.1840  -34.0450 C.ar    1  HEC1        0.0000
     30  CMC       26.8010  -34.7270  -36.6460 C.3     1  HEC1        0.0000
     31  CAC       26.6170  -35.0870  -33.2840 C.3     1  HEC1        0.0000
     32  CBC       28.0440  -34.5970  -33.6150 C.3     1  HEC1        0.0000
     33  ND        21.1410  -35.3240  -33.1490 N.2     1  HEC1        0.0000
     34  C1D       22.2610  -35.2830  -32.3320 C.2     1  HEC1        0.0000
     35  C2D       21.7970  -35.1680  -30.9440 C.2     1  HEC1        0.0000
     36  C3D       20.2620  -35.1210  -30.9940 C.2     1  HEC1        0.0000
     37  C4D       19.9640  -35.2460  -32.4130 C.2     1  HEC1        0.0000
     38  CMD       22.6780  -35.0770  -29.6830 C.3     1  HEC1        0.0000
     39  CAD       19.2640  -35.0090  -29.7850 C.3     1  HEC1        0.0000
     40  CBD       19.2860  -33.6010  -29.1830 C.3     1  HEC1        0.0000
     41  CGD       18.4220  -32.5990  -29.9610 C.2     1  HEC1        0.0000
     42  O1D       17.7990  -32.9340  -31.0240 O.co2   1  HEC1        0.0000
     43  O2D       18.3340  -31.4290  -29.5210 O.co2   1  HEC1        0.0000
@<TRIPOS>BOND
     1    24    23    1
     2    22    19    1
     3    23    20    1
     4    19    20    2
     5    19    18    1
     6    20    21    1
     7    18     3    1
     8    18    17    2
     9    21     4    2
    10    21    17    1
    11     3    10    2
    12     4    26    1
    13    17     1    1
    14    11     9    1
    15    30    27    1
    16    10     9   ar
    17    10     6   ar
    18    26    27   ar
    19    26    25   ar
    20     9     8   ar
    21    27    28   ar
    22    15    14   ar
    23     6     1    1
    24     6     7   ar
    25     1    25    1
    26     1    33    1
    27    16    14   ar
    28    25    29   ar
    29    14    13    1
    30     8     7   ar
    31     8    12    1
    32    28    29   ar
    33    28    31    1
    34     7     2    2
    35    29     5    1
    36    12    13    1
    37    32    31    1
    38    33    37    2
    39    33    34    1
    40     2    37    1
    41     5    34    2
    42    37    36    1
    43    34    35    1
    44    42    41   ar
    45    36    35    2
    46    36    39    1
    47    35    38    1
    48    41    43   ar
    49    41    40    1
    50    39    40    1
