@<TRIPOS>MOLECULE
2rfb_HEM_A_1.pdb
 43 50 0 0 0
SMALL
GASTEIGER

@<TRIPOS>ATOM
      1  CHA       -7.8570   33.8290  -40.6050 C.2   410  HEM410      0.0000
      2  CHB      -10.5560   33.2460  -44.6870 C.2   410  HEM410      0.0000
      3  CHC      -13.8380   30.7790  -41.9150 C.2   410  HEM410      0.0000
      4  CHD      -11.5460   31.9600  -37.7700 C.2   410  HEM410      0.0000
      5  C1A       -8.2970   33.8400  -41.9400 C.ar  410  HEM410      0.0000
      6  C2A       -7.5500   34.3560  -43.0630 C.ar  410  HEM410      0.0000
      7  C3A       -8.3270   34.1780  -44.1800 C.ar  410  HEM410      0.0000
      8  C4A       -9.5200   33.5400  -43.7560 C.ar  410  HEM410      0.0000
      9  CMA       -8.1060   34.5350  -45.7370 C.3   410  HEM410      0.0000
     10  CAA       -6.1190   34.9900  -42.9630 C.3   410  HEM410      0.0000
     11  CBA       -6.1640   36.5230  -42.7360 C.3   410  HEM410      0.0000
     12  CGA       -4.7250   36.9560  -42.7940 C.2   410  HEM410      0.0000
     13  O1A       -3.8210   36.1610  -43.2450 O.co2 410  HEM410      0.0000
     14  O2A       -4.4800   38.1100  -42.3900 O.co2 410  HEM410      0.0000
     15  C1B      -11.6820   32.4940  -44.2960 C.2   410  HEM410      0.0000
     16  C2B      -12.6680   31.8850  -45.1560 C.2   410  HEM410      0.0000
     17  C3B      -13.5310   31.2380  -44.3050 C.2   410  HEM410      0.0000
     18  C4B      -13.1050   31.4200  -42.9700 C.2   410  HEM410      0.0000
     19  CMB      -12.6220   32.0310  -46.7420 C.3   410  HEM410      0.0000
     20  CAB      -14.8780   30.3650  -44.4000 C.3   410  HEM410      0.0000
     21  CBB      -15.3010   29.6760  -45.5750 C.3   410  HEM410      0.0000
     22  C1C      -13.5390   30.7470  -40.5070 C.ar  410  HEM410      0.0000
     23  C2C      -14.1740   30.0870  -39.3430 C.ar  410  HEM410      0.0000
     24  C3C      -13.4930   30.4720  -38.2350 C.ar  410  HEM410      0.0000
     25  C4C      -12.4760   31.3650  -38.6260 C.ar  410  HEM410      0.0000
     26  CMC      -15.4210   29.0970  -39.2310 C.3   410  HEM410      0.0000
     27  CAC      -13.7370   30.0110  -36.7430 C.2   410  HEM410      0.0000
     28  CBC      -13.9110   30.8890  -35.7380 C.2   410  HEM410      0.0000
     29  C1D      -10.3170   32.5750  -38.1790 C.2   410  HEM410      0.0000
     30  C2D       -9.2880   33.0740  -37.2960 C.2   410  HEM410      0.0000
     31  C3D       -8.2000   33.6560  -38.2170 C.2   410  HEM410      0.0000
     32  C4D       -8.6550   33.4220  -39.5280 C.2   410  HEM410      0.0000
     33  CMD       -9.2650   33.0970  -35.7340 C.3   410  HEM410      0.0000
     34  CAD       -6.8290   34.3560  -37.9270 C.3   410  HEM410      0.0000
     35  CBD       -5.7760   33.2460  -37.7140 C.3   410  HEM410      0.0000
     36  CGD       -4.4410   33.8470  -37.4110 C.2   410  HEM410      0.0000
     37  O1D       -4.2770   35.0860  -37.6520 O.co2 410  HEM410      0.0000
     38  O2D       -3.5390   33.1020  -36.9230 O.co2 410  HEM410      0.0000
     39  NA        -9.5120   33.3220  -42.4000 N.ar  410  HEM410      0.0000
     40  NB       -11.9660   32.1620  -42.9370 N.2   410  HEM410      0.0000
     41  NC       -12.4910   31.5070  -39.9860 N.ar  410  HEM410      0.0000
     42  ND        -9.9050   32.8030  -39.5140 N.2   410  HEM410      0.0000
     43 FE        -10.8600   32.2690  -41.1540 Fe    410  HEM410      0.0000
@<TRIPOS>BOND
     1    19    16    1
     2     9     7    1
     3    21    20    1
     4    16    17    2
     5    16    15    1
     6     2    15    1
     7     2     8    2
     8    20    17    1
     9    17    18    1
    10    15    40    2
    11     7     8   ar
    12     7     6   ar
    13     8    39   ar
    14    13    12   ar
    15     6    10    1
    16     6     5   ar
    17    18    40    1
    18    18     3    2
    19    10    11    1
    20    40    43    1
    21    12    11    1
    22    12    14   ar
    23    39     5   ar
    24    39    43    1
    25     5     1    2
    26     3    22    1
    27    43    41    1
    28    43    42    1
    29     1    32    1
    30    22    41   ar
    31    22    23   ar
    32    41    25   ar
    33    32    42    2
    34    32    31    1
    35    42    29    1
    36    23    26    1
    37    23    24   ar
    38    25    24   ar
    39    25     4    1
    40    24    27    1
    41    31    34    1
    42    31    30    2
    43    29     4    2
    44    29    30    1
    45    34    35    1
    46    35    36    1
    47    37    36   ar
    48    36    38   ar
    49    30    33    1
    50    27    28    2
