@<TRIPOS>MOLECULE
2rfc_HEM_A_1.pdb
 43 50 0 0 0
SMALL
GASTEIGER

@<TRIPOS>ATOM
      1 FE         11.9460  -10.1240    1.2730 Fe    410  HEM410      0.0000
      2  CHA       11.7110  -11.4940   -1.8600 C.2   410  HEM410      0.0000
      3  CHB       15.0820   -9.0310    0.4600 C.2   410  HEM410      0.0000
      4  CHC       11.9860   -8.0850    3.9770 C.2   410  HEM410      0.0000
      5  CHD        8.6870  -10.9430    1.8550 C.2   410  HEM410      0.0000
      6  NA        13.1160  -10.2720   -0.3150 N.ar  410  HEM410      0.0000
      7  C1A       12.8980  -10.9360   -1.5100 C.ar  410  HEM410      0.0000
      8  C2A       14.0270  -10.8330   -2.3880 C.ar  410  HEM410      0.0000
      9  C3A       14.9130  -10.0350   -1.7900 C.ar  410  HEM410      0.0000
     10  C4A       14.3780   -9.7190   -0.5070 C.ar  410  HEM410      0.0000
     11  CMA       16.2450   -9.5510   -2.2990 C.3   410  HEM410      0.0000
     12  CAA       14.1130  -11.4960   -3.7500 C.3   410  HEM410      0.0000
     13  CBA       14.8610  -12.8110   -3.8910 C.3   410  HEM410      0.0000
     14  CGA       14.7960  -13.3670   -5.3040 C.2   410  HEM410      0.0000
     15  O1A       15.0110  -12.5690   -6.2460 O.co2 410  HEM410      0.0000
     16  O2A       14.5410  -14.5850   -5.4740 O.co2 410  HEM410      0.0000
     17  NB        13.2950   -9.0040    2.1340 N.2   410  HEM410      0.0000
     18  C1B       14.5890   -8.7490    1.7150 C.2   410  HEM410      0.0000
     19  C2B       15.3320   -7.9740    2.6550 C.2   410  HEM410      0.0000
     20  C3B       14.5000   -7.7650    3.6570 C.2   410  HEM410      0.0000
     21  C4B       13.1940   -8.2740    3.2930 C.2   410  HEM410      0.0000
     22  CMB       16.7610   -7.4700    2.5490 C.3   410  HEM410      0.0000
     23  CAB       14.9730   -7.4110    4.8940 C.2   410  HEM410      0.0000
     24  CBB       14.6160   -6.2970    5.5770 C.2   410  HEM410      0.0000
     25  NC        10.5910   -9.6080    2.5760 N.ar  410  HEM410      0.0000
     26  C1C       10.7530   -8.7190    3.6520 C.ar  410  HEM410      0.0000
     27  C2C        9.5360   -8.6740    4.4620 C.ar  410  HEM410      0.0000
     28  C3C        8.6290   -9.4550    3.8850 C.ar  410  HEM410      0.0000
     29  C4C        9.2820  -10.0770    2.7310 C.ar  410  HEM410      0.0000
     30  CMC        9.2910   -8.0080    5.7950 C.3   410  HEM410      0.0000
     31  CAC        7.3190   -9.4780    4.3460 C.2   410  HEM410      0.0000
     32  CBC        6.5710  -10.6000    4.5050 C.2   410  HEM410      0.0000
     33  ND        10.5700  -11.0080    0.2600 N.2   410  HEM410      0.0000
     34  C1D        9.2720  -11.3420    0.6850 C.2   410  HEM410      0.0000
     35  C2D        8.5450  -12.0250   -0.3540 C.2   410  HEM410      0.0000
     36  C3D        9.4050  -12.0910   -1.4480 C.2   410  HEM410      0.0000
     37  C4D       10.6290  -11.4860   -1.0490 C.2   410  HEM410      0.0000
     38  CMD        7.1860  -12.6920   -0.1590 C.3   410  HEM410      0.0000
     39  CAD        9.2910  -12.8240   -2.7700 C.3   410  HEM410      0.0000
     40  CBD        8.3990  -12.2930   -3.8630 C.3   410  HEM410      0.0000
     41  CGD        8.5970  -13.0430   -5.1550 C.2   410  HEM410      0.0000
     42  O1D        8.5920  -14.2860   -5.1360 O.co2 410  HEM410      0.0000
     43  O2D        8.7600  -12.3960   -6.2000 O.co2 410  HEM410      0.0000
@<TRIPOS>BOND
     1    15    14   ar
     2    43    41   ar
     3    16    14   ar
     4    14    13    1
     5    41    42   ar
     6    41    40    1
     7    13    12    1
     8    40    39    1
     9    12     8    1
    10    39    36    1
    11     8     9   ar
    12     8     7   ar
    13    11     9    1
    14     2     7    2
    15     2    37    1
    16     9    10   ar
    17     7     6   ar
    18    36    37    1
    19    36    35    2
    20    37    33    2
    21    10     6   ar
    22    10     3    2
    23    35    38    1
    24    35    34    1
    25     6     1    1
    26    33    34    1
    27    33     1    1
    28     3    18    1
    29    34     5    2
    30     1    17    1
    31     1    25    1
    32    18    17    2
    33    18    19    1
    34     5    29    1
    35    17    21    1
    36    22    19    1
    37    25    29   ar
    38    25    26   ar
    39    19    20    2
    40    29    28   ar
    41    21    20    1
    42    21     4    2
    43    26     4    1
    44    26    27   ar
    45    20    23    1
    46    28    31    1
    47    28    27   ar
    48    31    32    2
    49    27    30    1
    50    23    24    2
