@<TRIPOS>MOLECULE
2rfc_PIM_A_1.pdb
 11 12 0 0 0
SMALL
GASTEIGER

@<TRIPOS>ATOM
      1  N1        12.8930  -13.1420    3.7110 N.2   411  PIM411     -0.2427
      2  C2        12.7720  -11.8170    3.3020 C.3   411  PIM411      0.2508
      3  N3        13.0140  -11.7470    2.0000 N.2   411  PIM411     -0.2412
      4  C4        13.2820  -12.9640    1.5650 C.2   411  PIM411      0.1141
      5  C5        13.2080  -13.8280    2.6130 C.2   411  PIM411      0.0970
      6  C6        13.4510  -15.3150    2.5170 C.ar  411  PIM411      0.0188
      7  C7        14.7100  -15.8440    3.0180 C.ar  411  PIM411      0.0015
      8  C8        14.9530  -17.2910    2.9170 C.ar  411  PIM411      0.0000
      9  C9        13.9420  -18.1250    2.3290 C.ar  411  PIM411      0.0000
     10  C10       12.6990  -17.5920    1.8380 C.ar  411  PIM411      0.0000
     11  C11       12.4900  -16.1640    1.9510 C.ar  411  PIM411      0.0015
@<TRIPOS>BOND
     1     4     3    2
     2     4     5    1
     3    10    11   ar
     4    10     9   ar
     5    11     6   ar
     6     3     2    1
     7     9     8   ar
     8     6     5    1
     9     6     7   ar
    10     5     1    2
    11     8     7   ar
    12     2     1    1
