@<TRIPOS>MOLECULE
2rfh_23N_A_1.pdb
 15 15 0 0 0
SMALL
GASTEIGER

@<TRIPOS>ATOM
      1  CAH        9.4810  -10.0730   20.3230 C.ar  1309  23N1309    -0.0043
      2  CAF        8.3250   -9.3720   19.9800 C.ar  1309  23N1309    -0.0003
      3  CAE        7.3870   -9.0520   20.9680 C.ar  1309  23N1309    -0.0000
      4  CAG        7.6260   -9.4380   22.2870 C.ar  1309  23N1309    -0.0003
      5  CAI        8.7860  -10.1290   22.6290 C.ar  1309  23N1309    -0.0043
      6  CAM        9.7120  -10.4540   21.6420 C.ar  1309  23N1309    -0.0216
      7  CAJ       10.9970  -11.1850   22.0180 C.3   1309  23N1309     0.0392
      8  CAN       11.9930  -10.0560   22.3860 C.3   1309  23N1309     0.1288
      9  CAL       12.3720  -10.0180   23.8860 C.2   1309  23N1309     0.3662
     10  OAD       12.2490   -8.9020   24.4010 O.co2 1309  23N1309    -0.2456
     11  OAA       12.7620  -11.0540   24.4830 O.co2 1309  23N1309    -0.2456
     12  CAK       13.2130   -9.9330   21.4600 C.3   1309  23N1309     0.1498
     13  NAO       13.7850   -8.5830   21.6850 N.pl3 1309  23N1309     0.0147
     14  OAC       14.8050   -8.6270   22.6940 O.3   1309  23N1309    -0.0883
     15  OAB       14.3580   -7.9680   20.5070 O.3   1309  23N1309    -0.0883
@<TRIPOS>BOND
     1     2     1   ar
     2     2     3   ar
     3     1     6   ar
     4    15    13    1
     5     3     4   ar
     6    12    13    1
     7    12     8    1
     8     6     7    1
     9     6     5   ar
    10    13    14    1
    11     7     8    1
    12     4     5   ar
    13     8     9    1
    14     9    10   ar
    15     9    11   ar
