@<TRIPOS>MOLECULE
2rfi_III_Q_1.pdb
 47 46 0 0 0
SMALL
GASTEIGER

@<TRIPOS>ATOM
      1  N         11.2930   66.4790    8.2680 N.3     4  THR4       -0.1203
      2  CA        12.2870   65.9230    9.2330 C.3     4  THR4        0.1994
      3  C         13.7060   66.0200    8.6730 C.2     4  THR4        0.2618
      4  O         13.9050   66.0180    7.4540 O.2     4  THR4       -0.2717
      5  CB        11.9760   64.4450    9.5750 C.3     4  THR4        0.1784
      6  OG1       11.8190   63.6940    8.3640 O.3     4  THR4       -0.2211
      7  CG2       10.6960   64.3360   10.4090 C.3     4  THR4        0.0376
      8  N         14.6870   66.1170    9.5670 N.am    5  ALA5       -0.1965
      9  CA        16.0920   66.1080    9.1710 C.3     5  ALA5        0.1728
     10  C         16.4850   64.7170    8.6850 C.2     5  ALA5        0.2616
     11  O         16.1250   63.7090    9.3000 O.2     5  ALA5       -0.2715
     12  CB        16.9830   66.5360   10.3300 C.3     5  ALA5        0.0334
     13  N         17.2810   64.6380    7.6200 N.am    6  ARG6       -0.1963
     14  CA        17.9190   63.3830    7.1900 C.3     6  ARG6        0.1729
     15  C         19.4220   63.4820    6.9350 C.2     6  ARG6        0.2616
     16  O         19.8590   64.3250    6.2120 O.2     6  ARG6       -0.2715
     17  CB        17.2610   62.7970    5.9430 C.3     6  ARG6        0.0348
     18  CG        15.7830   62.9320    5.8280 C.3     6  ARG6        0.0492
     19  CD        15.0750   61.9560    6.6350 C.3     6  ARG6        0.2205
     20  NE        13.6340   62.1560    6.6360 N.pl3   6  ARG6       -0.0865
     21  CZ        12.8370   61.7080    5.6850 C.cat   6  ARG6        0.5346
     22  NH1       11.5610   61.8730    5.7580 N.pl3   6  ARG6        0.1354
     23  NH2       13.3340   61.0960    4.6520 N.pl3   6  ARG6        0.1354
     24  N         20.2170   62.5860    7.5040 N.am    7  LYS7       -0.1963
     25  CA        21.5470   62.3200    6.9560 C.3     7  LYS7        0.1728
     26  CB        22.3780   61.5720    7.9630 C.3     7  LYS7        0.0311
     27  CG        22.2870   62.2530    9.3330 C.3     7  LYS7        0.0037
     28  CD        22.0390   61.2220   10.4310 C.3     7  LYS7        0.0174
     29  CE        22.6120   61.6830   11.7810 C.3     7  LYS7        0.0722
     30  NZ        22.9190   60.5100   12.6210 N.3     7  LYS7       -0.2703
     31  CH1       22.4820   60.7740   13.9920 C.3     7  LYS7        0.0897
     32  CH2       24.3640   60.2210   12.6580 C.3     7  LYS7        0.0897
     33  C         21.4990   61.6910    5.5550 C.2     7  LYS7        0.2617
     34  O         20.5060   61.1600    5.1920 O.2     7  LYS7       -0.2715
     35  N         22.5510   61.8330    4.7560 N.am    8  SER8       -0.1936
     36  CA        22.4960   61.4870    3.3200 C.3     8  SER8        0.2055
     37  C         23.8290   61.1050    2.6440 C.2     8  SER8        0.2643
     38  O         24.8470   61.4360    3.1860 O.2     8  SER8       -0.2714
     39  CB        21.8160   62.6000    2.5450 C.3     8  SER8        0.2130
     40  OG        22.7190   63.6550    2.3610 O.3     8  SER8       -0.2179
     41  N         23.7570   60.3930    1.4970 N.am    9  THR9       -0.1950
     42  CA        24.7900   60.0480    0.5110 C.3     9  THR9        0.1897
     43  C         25.8120   59.0360    1.0300 C.2     9  THR9        0.2313
     44  O         25.5330   57.8340    1.0870 O.2     9  THR9       -0.2863
     45  CB        25.4590   61.3310   -0.0550 C.3     9  THR9        0.1794
     46  OG1       24.4900   62.0610   -0.8170 O.3     9  THR9       -0.2208
     47  CG2       26.6390   61.0130   -0.9360 C.3     9  THR9        0.0378
@<TRIPOS>BOND
     1    47    45    1
     2    46    45    1
     3    45    42    1
     4    42    43    1
     5    42    41    1
     6    43    44    2
     7    41    37   am
     8    40    39    1
     9    39    36    1
    10    37    38    2
    11    37    36    1
    12    36    35    1
    13    23    21    1
    14    35    33   am
    15    34    33    2
    16    33    25    1
    17    21    22    1
    18    21    20    2
    19    18    17    1
    20    18    19    1
    21    17    14    1
    22    16    15    2
    23    19    20    1
    24    15    14    1
    25    15    24   am
    26    25    24    1
    27    25    26    1
    28    14    13    1
    29     4     3    2
    30    13    10   am
    31    26    27    1
    32     1     2    1
    33     6     5    1
    34     3     2    1
    35     3     8   am
    36    10     9    1
    37    10    11    2
    38     9     8    1
    39     9    12    1
    40     2     5    1
    41    27    28    1
    42     5     7    1
    43    28    29    1
    44    29    30    1
    45    30    32    1
    46    30    31    1
