@<TRIPOS>MOLECULE
2rfi_SAH_A_1.pdb
 26 28 0 0 0
SMALL
GASTEIGER

@<TRIPOS>ATOM
      1  N         23.4400    9.4400   -0.4290 N.3   101  SAH101     -0.1208
      2  CA        22.8350   10.7290   -0.8810 C.3   101  SAH101      0.1952
      3  CB        22.6850   11.7070    0.2940 C.3   101  SAH101      0.0422
      4  CG        21.3430   11.5660    1.0030 C.3   101  SAH101      0.0597
      5  SD        19.9930   12.1010   -0.0840 S.3   101  SAH101     -0.1375
      6  C         23.6130   11.3250   -2.0570 C.2   101  SAH101      0.3819
      7  O         23.2960   12.4000   -2.5840 O.co2 101  SAH101     -0.2441
      8  OXT       24.5840   10.7160   -2.5230 O.co2 101  SAH101     -0.2441
      9  C5'       18.8660   10.7410    0.3390 C.3   101  SAH101      0.0899
     10  C4'       18.9650    9.6040   -0.6680 C.3   101  SAH101      0.1630
     11  O4'       20.1530    8.8690   -0.3970 O.3   101  SAH101     -0.3153
     12  C3'       17.8330    8.5760   -0.6170 C.3   101  SAH101      0.2168
     13  O3'       16.7810    8.8950   -1.5000 O.3   101  SAH101     -0.2175
     14  C2'       18.5450    7.3130   -1.0550 C.3   101  SAH101      0.2569
     15  O2'       18.7300    7.3170   -2.4540 O.3   101  SAH101     -0.2130
     16  C1'       19.9040    7.4690   -0.3870 C.3   101  SAH101      0.3185
     17  N9        19.8390    6.9110    0.9830 N.pl3 101  SAH101     -0.1439
     18  C8        19.9480    7.5840    2.1750 C.3   101  SAH101      0.3377
     19  N7        19.8250    6.7110    3.2000 N.2   101  SAH101     -0.2095
     20  C5        19.6190    5.4780    2.6890 C.2   101  SAH101      0.2526
     21  C6        19.4290    4.2350    3.2890 C.2   101  SAH101      0.4393
     22  N6        19.4190    4.0990    4.6150 N.pl3 101  SAH101      0.2180
     23  N1        19.2290    3.1250    2.4810 N.2   101  SAH101      0.0021
     24  C2        19.2420    3.2580    1.1130 C.3   101  SAH101      0.5254
     25  N3        19.4490    4.4860    0.5210 N.2   101  SAH101     -0.0055
     26  C4        19.6320    5.5870    1.2990 C.2   101  SAH101      0.3518
@<TRIPOS>BOND
     1     7     6   ar
     2     8     6   ar
     3    15    14    1
     4     6     2    1
     5    13    12    1
     6    14    12    1
     7    14    16    1
     8     2     1    1
     9     2     3    1
    10    10    12    1
    11    10    11    1
    12    10     9    1
    13    11    16    1
    14    16    17    1
    15     5     9    1
    16     5     4    1
    17     3     4    1
    18    25    24    1
    19    25    26    2
    20    17    26    1
    21    17    18    1
    22    24    23    1
    23    26    20    1
    24    18    19    1
    25    23    21    2
    26    20    19    2
    27    20    21    1
    28    21    22    1
