@<TRIPOS>MOLECULE
2rfn_AM7_A_1.pdb
 45 50 0 0 0
SMALL
GASTEIGER

@<TRIPOS>ATOM
      1  N1        58.2790    9.6300  127.1800 N.3     1  AM71       -0.2683
      2  N3        63.4650   17.0740  111.4590 N.ar    1  AM71       -0.2303
      3  C4        58.1170   10.3360  128.4840 C.3     1  AM71        0.1046
      4  C5        64.5900   16.7850  108.2710 C.ar    1  AM71       -0.0147
      5  C6        65.7610   16.4710  108.9570 C.ar    1  AM71       -0.0038
      6  C7        66.8520   15.9530  108.2540 C.ar    1  AM71       -0.0003
      7  C8        66.7710   15.7430  106.8770 C.ar    1  AM71       -0.0000
      8  C10       64.5070   16.5800  106.8940 C.ar    1  AM71       -0.0038
      9  C13       63.0110   16.6030  110.2800 C.ar    1  AM71        0.1270
     10  C15       61.5140   13.6160  116.4240 C.ar    1  AM71        0.1725
     11  C17       62.1090   13.3590  114.0730 C.ar    1  AM71        0.0330
     12  C20       61.4940   15.0060  116.2800 C.ar    1  AM71        0.0398
     13  C21       61.5920   12.4350  119.9120 C.ar    1  AM71        0.0554
     14  C22       60.2570   12.0540  120.0540 C.ar    1  AM71        0.0446
     15  C24       60.6680   11.4880  122.3660 C.ar    1  AM71        0.1737
     16  C26       62.4510   12.3510  121.0100 C.ar    1  AM71        0.0875
     17  C28       63.4000   13.2980  118.6280 C.ar    1  AM71        0.0581
     18  C1        57.0650    9.0140  126.5510 C.3     1  AM71        0.1046
     19  C2        55.8300    8.8870  127.4800 C.3     1  AM71        0.1595
     20  O1        55.7990    9.8720  128.5420 O.3     1  AM71       -0.3508
     21  C3        56.9890    9.7360  129.3300 C.3     1  AM71        0.1595
     22  C33       58.8590   10.5960  126.2170 C.3     1  AM71        0.0761
     23  C32       60.2400   10.1090  125.7810 C.3     1  AM71        0.0646
     24  C31       60.9210   11.0250  124.7470 C.3     1  AM71        0.2070
     25  O3        60.1620   10.9950  123.5270 O.3     1  AM71       -0.4723
     26  C25       61.9950   11.8690  122.2290 C.ar    1  AM71        0.0592
     27  C23       59.7910   11.5700  121.2800 C.ar    1  AM71        0.1726
     28  O2        58.4770   11.1870  121.4690 O.3     1  AM71       -0.4684
     29  C35       57.8200   10.4470  120.4250 C.3     1  AM71        0.2526
     30  N4        63.7260   12.7300  120.9110 N.ar    1  AM71       -0.2435
     31  C27       64.2120   13.1850  119.7650 C.ar    1  AM71        0.1020
     32  C29       62.0620   12.9230  118.6880 C.ar    1  AM71        0.1484
     33  O4        61.2080   13.0110  117.6100 O.3     1  AM71       -0.4511
     34  C16       61.8050   12.8160  115.3160 C.ar    1  AM71        0.1744
     35  F1        61.8190   11.4840  115.4580 F       1  AM71       -0.2009
     36  C19       61.7980   15.5540  115.0240 C.ar    1  AM71        0.0035
     37  C18       62.1110   14.7460  113.9190 C.ar    1  AM71        0.0085
     38  C11       62.3950   15.3320  112.6720 C.ar    1  AM71        0.0754
     39  C12       61.8880   14.7980  111.4680 C.ar    1  AM71        0.2632
     40  O5        61.1870   13.7770  111.4530 O.2     1  AM71       -0.2669
     41  N2        62.1940   15.4410  110.2450 N.ar    1  AM71       -0.2818
     42  C34       61.6680   14.8790  108.9570 C.3     1  AM71        0.1347
     43  C14       63.1810   16.4820  112.6130 C.ar    1  AM71        0.1049
     44  C30       63.3790   17.3660  109.0060 C.3     1  AM71        0.0903
     45  C9        65.5900   16.0540  106.2030 C.ar    1  AM71       -0.0003
@<TRIPOS>BOND
     1    45     7   ar
     2    45     8   ar
     3     7     6   ar
     4     8     4   ar
     5     6     5   ar
     6     4     5   ar
     7     4    44    1
     8    42    41    1
     9    44     9    1
    10    41     9   ar
    11    41    39   ar
    12     9     2   ar
    13    40    39    2
    14     2    43   ar
    15    39    38   ar
    16    43    38   ar
    17    38    37    1
    18    37    11   ar
    19    37    36   ar
    20    11    34   ar
    21    36    12   ar
    22    34    35    1
    23    34    10   ar
    24    12    10   ar
    25    10    33    1
    26    33    32    1
    27    17    32   ar
    28    17    31   ar
    29    32    13   ar
    30    31    30   ar
    31    13    14   ar
    32    13    16   ar
    33    14    27   ar
    34    29    28    1
    35    30    16   ar
    36    16    26   ar
    37    27    28    1
    38    27    15   ar
    39    26    15   ar
    40    15    25    1
    41    25    24    1
    42    24    23    1
    43    23    22    1
    44    22     1    1
    45    18     1    1
    46    18    19    1
    47     1     3    1
    48    19    20    1
    49     3    21    1
    50    20    21    1
