@<TRIPOS>MOLECULE
2rfq_1PS_A_1.pdb
 13 13 0 0 0
SMALL
GASTEIGER

@<TRIPOS>ATOM
      1  N1         1.0710   16.5690   58.3720 N.pl3 392  1PS392     -0.3026
      2  C1         0.9460   17.1600   57.1590 C.3   392  1PS392      0.1175
      3  C2         0.5760   18.5030   57.0540 C.2   392  1PS392     -0.0047
      4  C3         0.8330   17.2550   59.5090 C.2   392  1PS392      0.0616
      5  C4         0.4540   18.6010   59.4620 C.2   392  1PS392      0.0155
      6  C5         0.3290   19.2300   58.2190 C.2   392  1PS392     -0.0016
      7  C6         1.4580   15.1490   58.4680 C.3   392  1PS392      0.0928
      8  C7         2.9180   14.9270   58.0710 C.3   392  1PS392      0.0429
      9  C8         3.3530   13.4860   58.3400 C.3   392  1PS392      0.1070
     10  S1         4.0010   13.2900   59.8790 S.3   392  1PS392     -0.1960
     11  O1         4.1180   11.8180   60.0570 O.3   392  1PS392     -0.3075
     12  O2         3.1020   13.8340   60.9320 O.3   392  1PS392     -0.3075
     13  O3         5.2950   14.0380   59.9540 O.3   392  1PS392     -0.3075
@<TRIPOS>BOND
     1     3     2    1
     2     3     6    2
     3     2     1    1
     4     8     9    1
     5     8     7    1
     6     6     5    1
     7     9    10    1
     8     1     7    1
     9     1     4    1
    10     5     4    2
    11    10    13    1
    12    10    11    1
    13    10    12    1
