@<TRIPOS>MOLECULE
2rfs_AM8_A_1.pdb
 31 34 0 0 0
SMALL
GASTEIGER

@<TRIPOS>ATOM
      1  CAA       19.5250    6.3090   62.0310 C.3     1  AM81        0.0331
      2  CAC       20.5970    7.0700   61.2140 C.2     1  AM81        0.0017
      3  CAD       20.4240    8.2210   60.4630 C.2     1  AM81        0.0021
      4  CAE       19.0860    8.9480   60.2670 C.3     1  AM81        0.0331
      5  CAF       21.9450    6.7620   61.1210 C.2     1  AM81        0.1048
      6  CAG       22.6390    5.5720   61.7870 C.3     1  AM81        0.0660
      7  NAH       22.5560    7.6590   60.3430 N.2     1  AM81       -0.4108
      8  CAI       21.6690    8.5720   59.9200 C.2     1  AM81        0.1095
      9  CAJ       21.8090    9.6940   59.0950 C.3     1  AM81        0.0978
     10  CAK       23.0120   10.1750   58.5590 C.2     1  AM81        0.0820
     11  CAL       23.1730   11.4150   57.9490 C.ar    1  AM81        0.0402
     12  CAM       22.3120   12.4840   57.7000 C.ar    1  AM81        0.0232
     13  CAN       24.2530    9.5530   58.4960 C.1     1  AM81        0.2010
     14  OAO       24.5330    8.4370   58.9210 O.2     1  AM81       -0.2096
     15  NAP       25.1270   10.3570   57.8970 N.2     1  AM81       -0.3331
     16  CAQ       24.5120   11.4890   57.5480 C.ar    1  AM81        0.1448
     17  CAR       24.9780   12.6360   56.9040 C.ar    1  AM81        0.0344
     18  CAS       24.1110   13.7030   56.6550 C.ar    1  AM81        0.0228
     19  CAT       22.7780   13.6320   57.0590 C.ar    1  AM81        0.1256
     20  SAU       21.6720   14.9670   56.7380 S.O2    1  AM81        0.0766
     21  OAV       21.0750   15.4780   58.0150 O.2     1  AM81       -0.1497
     22  OAW       22.4070   16.0680   56.0270 O.2     1  AM81       -0.1497
     23  NAX       20.4810   14.3820   55.8020 N.pl3   1  AM81       -0.1888
     24  CBE       20.5380   14.5990   54.3470 C.3     1  AM81        0.1392
     25  CAY       19.4980   13.6690   56.3620 C.ar    1  AM81        0.0697
     26  CAZ       19.4420   12.3060   56.0950 C.ar    1  AM81        0.0275
     27  CBA       18.4500   11.5240   56.6630 C.ar    1  AM81        0.0590
     28 CLBM       18.4360    9.8430   56.2870 Cl      1  AM81       -0.0822
     29  CBB       17.4960   12.0910   57.5090 C.ar    1  AM81        0.0115
     30  CBC       17.5490   13.4580   57.7890 C.ar    1  AM81        0.0022
     31  CBD       18.5500   14.2470   57.2150 C.ar    1  AM81        0.0162
@<TRIPOS>BOND
     1    24    23    1
     2    23    25    1
     3    23    20    1
     4    22    20    2
     5    26    25   ar
     6    26    27   ar
     7    28    27    1
     8    25    31   ar
     9    18    17   ar
    10    18    19   ar
    11    27    29   ar
    12    20    19    1
    13    20    21    2
    14    17    16   ar
    15    19    12   ar
    16    31    30   ar
    17    29    30   ar
    18    16    15    2
    19    16    11   ar
    20    12    11   ar
    21    15    13    2
    22    11    10    2
    23    13    10    1
    24    13    14    2
    25    10     9    1
    26     9     8    1
    27     8     7    2
    28     8     3    1
    29     4     3    1
    30     7     5    2
    31     3     2    2
    32     5     2    1
    33     5     6    1
    34     2     1    1
