@<TRIPOS>MOLECULE
2rft_BGC_A_1.pdb
 12 12 0 0 0
SMALL
GASTEIGER

@<TRIPOS>ATOM
      1  C2        74.7100   32.8390  -27.2570 C.3   3025  BGC3025     0.2434
      2  C3        75.7320   31.7200  -27.4740 C.3   3025  BGC3025     0.2199
      3  C4        75.1650   30.8060  -28.5450 C.3   3025  BGC3025     0.2144
      4  C5        74.9700   31.6280  -29.8260 C.3   3025  BGC3025     0.1836
      5  C6        74.6120   30.8280  -31.0770 C.3   3025  BGC3025     0.2142
      6  C1        74.2580   33.5110  -28.5610 C.3   3025  BGC3025     0.3024
      7  O1        73.1090   34.2910  -28.3110 O.3   3025  BGC3025    -0.1869
      8  O2        75.2370   33.8160  -26.3860 O.3   3025  BGC3025    -0.2148
      9  O3        75.8840   30.9830  -26.2850 O.3   3025  BGC3025    -0.2174
     10  O4        75.8120   29.5490  -28.7520 O.3   3025  BGC3025    -0.2176
     11  O5        73.9350   32.5620  -29.5630 O.3   3025  BGC3025    -0.3236
     12  O6        73.5120   29.9870  -30.8130 O.3   3025  BGC3025    -0.2176
@<TRIPOS>BOND
     1     5    12    1
     2     5     4    1
     3     4    11    1
     4     4     3    1
     5    11     6    1
     6    10     3    1
     7     6     7    1
     8     6     1    1
     9     3     2    1
    10     2     1    1
    11     2     9    1
    12     1     8    1
