@<TRIPOS>MOLECULE
2rft_SIA_A_1.pdb
 20 20 0 0 0
SMALL
GASTEIGER

@<TRIPOS>ATOM
      1  C1        76.8190   17.7850  -20.8740 C.2   3021  SIA3021     0.3914
      2  C2        76.7780   17.6670  -22.3930 C.3   3021  SIA3021     0.2203
      3  C3        76.5430   16.1990  -22.7910 C.3   3021  SIA3021     0.0760
      4  C4        75.0920   15.7370  -22.6230 C.3   3021  SIA3021     0.1773
      5  C5        74.1020   16.7220  -23.2460 C.3   3021  SIA3021     0.1552
      6  C6        74.3940   18.1200  -22.7130 C.3   3021  SIA3021     0.1710
      7  C7        73.4920   19.2080  -23.2850 C.3   3021  SIA3021     0.2134
      8  C8        74.0940   20.5930  -23.0600 C.3   3021  SIA3021     0.2173
      9  C9        73.0900   21.6760  -23.4150 C.3   3021  SIA3021     0.2175
     10  C10       71.7690   16.1500  -23.8160 C.2   3021  SIA3021     0.2420
     11  C11       70.4410   15.7950  -23.2250 C.3   3021  SIA3021     0.0964
     12  N5        72.7320   16.3630  -22.9160 N.am  3021  SIA3021    -0.2020
     13  O1A       77.6820   17.1240  -20.2490 O.co2 3021  SIA3021    -0.2430
     14  O1B       76.0310   18.5520  -20.2730 O.co2 3021  SIA3021    -0.2430
     15  O4        74.9390   14.4400  -23.2160 O.3   3021  SIA3021    -0.2211
     16  O6        75.7520   18.4700  -22.9990 O.3   3021  SIA3021    -0.3429
     17  O7        73.3000   19.0290  -24.6890 O.3   3021  SIA3021    -0.2176
     18  O8        74.5030   20.7600  -21.6980 O.3   3021  SIA3021    -0.2175
     19  O9        73.6310   22.9590  -23.0870 O.3   3021  SIA3021    -0.2175
     20  O10       71.9230   16.2290  -25.0250 O.2   3021  SIA3021    -0.2733
@<TRIPOS>BOND
     1    20    10    2
     2    17     7    1
     3    10    11    1
     4    10    12   am
     5     9    19    1
     6     9     8    1
     7     7     8    1
     8     7     6    1
     9     5    12    1
    10     5     6    1
    11     5     4    1
    12    15     4    1
    13     8    18    1
    14    16     6    1
    15    16     2    1
    16     3     4    1
    17     3     2    1
    18     2     1    1
    19     1    14   ar
    20     1    13   ar
