@<TRIPOS>MOLECULE
2rfu_SIA_A_1.pdb
 20 20 0 0 0
SMALL
GASTEIGER

@<TRIPOS>ATOM
      1  C1        76.5360   18.2370  -20.2280 C.2   801  SIA801      0.3914
      2  C2        76.6950   17.9920  -21.7180 C.3   801  SIA801      0.2203
      3  C3        76.6010   16.5150  -22.1050 C.3   801  SIA801      0.0760
      4  C4        75.1690   15.9830  -22.0870 C.3   801  SIA801      0.1773
      5  C5        74.2080   16.9000  -22.8380 C.3   801  SIA801      0.1552
      6  C6        74.3720   18.3110  -22.2990 C.3   801  SIA801      0.1710
      7  C7        73.4640   19.3380  -22.9560 C.3   801  SIA801      0.2134
      8  C8        74.0060   20.7340  -22.6790 C.3   801  SIA801      0.2173
      9  C9        73.0440   21.7920  -23.1850 C.3   801  SIA801      0.2175
     10  C10       71.9770   16.2000  -23.6520 C.2   801  SIA801      0.2420
     11  C11       72.4580   16.3010  -25.0750 C.3   801  SIA801      0.0964
     12  N5        72.8290   16.4830  -22.6580 N.am  801  SIA801     -0.2020
     13  O1A       77.0400   17.4270  -19.4200 O.co2 801  SIA801     -0.2430
     14  O1B       75.9490   19.2800  -19.8460 O.co2 801  SIA801     -0.2430
     15  O4        75.1590   14.6770  -22.6710 O.3   801  SIA801     -0.2211
     16  O6        75.7270   18.7290  -22.4770 O.3   801  SIA801     -0.3429
     17  O7        73.3920   19.1250  -24.3680 O.3   801  SIA801     -0.2176
     18  O8        74.2290   20.9100  -21.2780 O.3   801  SIA801     -0.2175
     19  O9        73.5370   23.0850  -22.8240 O.3   801  SIA801     -0.2175
     20  O10       70.8300   15.8570  -23.4080 O.2   801  SIA801     -0.2733
@<TRIPOS>BOND
     1    11    10    1
     2    17     7    1
     3    10    20    2
     4    10    12   am
     5     9    19    1
     6     9     8    1
     7     7     8    1
     8     7     6    1
     9     5    12    1
    10     5     6    1
    11     5     4    1
    12     8    18    1
    13    15     4    1
    14    16     6    1
    15    16     2    1
    16     3     4    1
    17     3     2    1
    18     2     1    1
    19     1    14   ar
    20     1    13   ar
