@<TRIPOS>MOLECULE
2rfy_CBI_A_1.pdb
 23 24 0 0 0
SMALL
GASTEIGER

@<TRIPOS>ATOM
      1  C1        -0.2090   -5.2640   75.8990 C.3   431  CBI431      0.2695
      2  C2         0.8220   -4.2910   75.3180 C.3   431  CBI431      0.2406
      3  C3         0.8520   -4.3480   73.7900 C.3   431  CBI431      0.2198
      4  C4         0.8400   -5.7940   73.2910 C.3   431  CBI431      0.2144
      5  C5        -0.2460   -6.6040   74.0040 C.3   431  CBI431      0.1835
      6  C6        -0.1760   -8.0640   73.5450 C.3   431  CBI431      0.2142
      7  O2         0.4730   -2.9840   75.7780 O.3   431  CBI431     -0.2149
      8  O3         2.0350   -3.7060   73.2970 O.3   431  CBI431     -0.2174
      9  O4         0.6350   -5.8390   71.8820 O.3   431  CBI431     -0.2176
     10  O5         0.0730   -6.5790   75.4090 O.3   431  CBI431     -0.3256
     11  O6        -1.2630   -8.7740   74.1510 O.3   431  CBI431     -0.2176
     12  C1'       -1.6000   -7.2850   80.3020 C.3   431  CBI431      0.3023
     13  C2'       -1.5520   -8.2030   79.0760 C.3   431  CBI431      0.2433
     14  C3'       -0.9050   -7.4370   77.9260 C.3   431  CBI431      0.2168
     15  C4'       -1.2290   -5.9660   77.8750 C.3   431  CBI431      0.1804
     16  C5'       -1.7380   -5.2870   79.1170 C.3   431  CBI431      0.1804
     17  C6'       -2.7170   -4.1740   78.6980 C.3   431  CBI431      0.2141
     18  O1'       -1.9960   -7.9400   81.4930 O.3   431  CBI431     -0.1869
     19  O2'       -0.7600   -9.3560   79.3920 O.3   431  CBI431     -0.2148
     20  O3'       -1.1560   -8.0500   76.6570 O.3   431  CBI431     -0.2175
     21  O4'       -0.1240   -5.2470   77.3300 O.3   431  CBI431     -0.3257
     22  O5'       -2.4590   -6.1850   79.9770 O.3   431  CBI431     -0.3237
     23  O6'       -3.1570   -4.4220   77.3630 O.3   431  CBI431     -0.2176
@<TRIPOS>BOND
     1     9     4    1
     2     4     3    1
     3     4     5    1
     4     8     3    1
     5     6     5    1
     6     6    11    1
     7     3     2    1
     8     5    10    1
     9     2     7    1
    10     2     1    1
    11    10     1    1
    12     1    21    1
    13    20    14    1
    14    21    15    1
    15    23    17    1
    16    15    14    1
    17    15    16    1
    18    14    13    1
    19    17    16    1
    20    13    19    1
    21    13    12    1
    22    16    22    1
    23    22    12    1
    24    12    18    1
