@<TRIPOS>MOLECULE
2rfz_CTR_A_1.pdb
 34 36 0 0 0
SMALL
GASTEIGER

@<TRIPOS>ATOM
      1  C1A        1.8640   -5.6650   70.9770 C.3   431  CTR431      0.2695
      2  C2A        2.1630   -6.9080   70.1180 C.3   431  CTR431      0.2406
      3  C3A        3.3980   -6.6560   69.2540 C.3   431  CTR431      0.2198
      4  C4A        3.1320   -5.4160   68.3950 C.3   431  CTR431      0.2144
      5  C5A        2.8290   -4.2540   69.3510 C.3   431  CTR431      0.1835
      6  C6A        2.7230   -2.9490   68.5850 C.3   431  CTR431      0.2142
      7  O2A        2.4090   -7.9940   70.9970 O.3   431  CTR431     -0.2149
      8  O3A        3.7980   -7.7630   68.4670 O.3   431  CTR431     -0.2174
      9  O4A        4.2930   -5.1300   67.6180 O.3   431  CTR431     -0.2176
     10  O5A        1.6420   -4.5480   70.0940 O.3   431  CTR431     -0.3256
     11  O6A        1.4140   -2.4030   68.6420 O.3   431  CTR431     -0.2176
     12  C1B       -0.3650   -6.3060   75.7520 C.3   431  CTR431      0.2695
     13  C2B        0.3290   -4.9870   75.3780 C.3   431  CTR431      0.2404
     14  C3B        0.4680   -4.8170   73.8670 C.3   431  CTR431      0.2167
     15  C4B        0.9370   -6.0800   73.1350 C.3   431  CTR431      0.1804
     16  C5B        0.1410   -7.2530   73.6850 C.3   431  CTR431      0.1803
     17  C6B        0.6300   -8.5730   73.0720 C.3   431  CTR431      0.2141
     18  O2B       -0.4490   -3.9060   75.9070 O.3   431  CTR431     -0.2149
     19  O3B        1.4130   -3.7910   73.5650 O.3   431  CTR431     -0.2175
     20  O4B        0.6780   -5.9180   71.7350 O.3   431  CTR431     -0.3257
     21  O5B        0.3810   -7.3440   75.1010 O.3   431  CTR431     -0.3257
     22  O6B       -0.2150   -9.6170   73.5810 O.3   431  CTR431     -0.2176
     23  C1C       -1.9190   -9.5240   79.6780 C.3   431  CTR431      0.3023
     24  C2C       -1.0760  -10.0140   78.5110 C.3   431  CTR431      0.2433
     25  C3C       -0.3420   -8.9320   77.7070 C.3   431  CTR431      0.2168
     26  C4C       -1.1610   -7.6280   77.5730 C.3   431  CTR431      0.1804
     27  C5C       -1.7100   -7.3360   78.9640 C.3   431  CTR431      0.1804
     28  C6C       -2.4000   -5.9610   79.0280 C.3   431  CTR431      0.2141
     29  O1C       -2.8170  -10.5700   80.0930 O.3   431  CTR431     -0.1869
     30  O2C       -0.1220  -10.9620   79.0200 O.3   431  CTR431     -0.2148
     31  O3C       -0.1720   -9.4500   76.3590 O.3   431  CTR431     -0.2175
     32  O4C       -0.3110   -6.5420   77.1640 O.3   431  CTR431     -0.3257
     33  O5C       -2.6650   -8.3700   79.2760 O.3   431  CTR431     -0.3237
     34  O6C       -3.2290   -6.0050   80.2060 O.3   431  CTR431     -0.2176
@<TRIPOS>BOND
     1     9     4    1
     2     4     3    1
     3     4     5    1
     4     8     3    1
     5     6    11    1
     6     6     5    1
     7     3     2    1
     8     5    10    1
     9    10     1    1
    10     2     1    1
    11     2     7    1
    12     1    20    1
    13    20    15    1
    14    17    22    1
    15    17    16    1
    16    15    16    1
    17    15    14    1
    18    19    14    1
    19    16    21    1
    20    14    13    1
    21    21    12    1
    22    13    12    1
    23    13    18    1
    24    12    32    1
    25    31    25    1
    26    32    26    1
    27    26    25    1
    28    26    27    1
    29    25    24    1
    30    24    30    1
    31    24    23    1
    32    27    28    1
    33    27    33    1
    34    28    34    1
    35    33    23    1
    36    23    29    1
