@<TRIPOS>MOLECULE
2rg0_CBI_A_1.pdb
 23 24 0 0 0
SMALL
GASTEIGER

@<TRIPOS>ATOM
      1  C1        -0.3300   -6.7330   75.0670 C.3   431  CBI431      0.2695
      2  C2         0.9030   -6.5620   74.1790 C.3   431  CBI431      0.2406
      3  C3         0.5850   -7.1430   72.7960 C.3   431  CBI431      0.2198
      4  C4         0.1690   -8.6110   72.9510 C.3   431  CBI431      0.2144
      5  C5        -0.9860   -8.7090   73.9490 C.3   431  CBI431      0.1835
      6  C6        -1.4890  -10.1340   74.1080 C.3   431  CBI431      0.2142
      7  O2         1.2850   -5.1940   74.0720 O.3   431  CBI431     -0.2149
      8  O3         1.7010   -7.0180   71.9260 O.3   431  CBI431     -0.2174
      9  O4        -0.2280   -9.1380   71.6830 O.3   431  CBI431     -0.2176
     10  O5        -0.6140   -8.1380   75.2010 O.3   431  CBI431     -0.3256
     11  O6        -0.5720  -10.9680   74.8060 O.3   431  CBI431     -0.2176
     12  C1'       -2.2330   -7.4660   79.7630 C.3   431  CBI431      0.3023
     13  C2'       -1.7000   -8.5590   78.8360 C.3   431  CBI431      0.2433
     14  C3'       -0.4960   -7.9950   78.0640 C.3   431  CBI431      0.2168
     15  C4'       -1.0180   -6.7990   77.2720 C.3   431  CBI431      0.1804
     16  C5'       -1.5400   -5.7630   78.2550 C.3   431  CBI431      0.1804
     17  C6'       -2.0040   -4.5440   77.4560 C.3   431  CBI431      0.2141
     18  O1'       -3.3610   -7.9660   80.4870 O.3   431  CBI431     -0.1869
     19  O2'       -1.3450   -9.7360   79.5430 O.3   431  CBI431     -0.2148
     20  O3'        0.0540   -8.9990   77.2200 O.3   431  CBI431     -0.2175
     21  O4'       -0.0580   -6.2310   76.3870 O.3   431  CBI431     -0.3257
     22  O5'       -2.6350   -6.3280   78.9880 O.3   431  CBI431     -0.3237
     23  O6'       -3.1830   -3.9860   78.0370 O.3   431  CBI431     -0.2176
@<TRIPOS>BOND
     1     9     4    1
     2     8     3    1
     3     3     4    1
     4     3     2    1
     5     4     5    1
     6     5     6    1
     7     5    10    1
     8     7     2    1
     9     6    11    1
    10     2     1    1
    11     1    10    1
    12     1    21    1
    13    21    15    1
    14    20    14    1
    15    15    14    1
    16    15    16    1
    17    17    23    1
    18    17    16    1
    19    14    13    1
    20    16    22    1
    21    13    19    1
    22    13    12    1
    23    22    12    1
    24    12    18    1
