@<TRIPOS>MOLECULE
2rg0_CTT_B_1.pdb
 45 48 0 0 0
SMALL
GASTEIGER

@<TRIPOS>ATOM
      1  O1B       28.1170   50.8820   91.8180 O.3   431  CTT431     -0.1869
      2  C1B       27.1470   50.2480   90.9690 C.3   431  CTT431      0.3023
      3  C2B       26.9680   51.0700   89.6880 C.3   431  CTT431      0.2433
      4  O2B       26.4760   52.3640   90.0330 O.3   431  CTT431     -0.2148
      5  C3B       26.0550   50.3870   88.6780 C.3   431  CTT431      0.2168
      6  O3B       26.0990   51.0540   87.4060 O.3   431  CTT431     -0.2175
      7  O5B       27.6680   48.9750   90.5800 O.3   431  CTT431     -0.3237
      8  C5B       26.7400   48.2500   89.7780 C.3   431  CTT431      0.1804
      9  C6B       27.3410   46.8660   89.5050 C.3   431  CTT431      0.2141
     10  O6B       26.6460   45.8920   90.2890 O.3   431  CTT431     -0.2176
     11  C4B       26.4130   48.9170   88.4520 C.3   431  CTT431      0.1804
     12  O4B       25.2590   48.2580   87.9100 O.3   431  CTT431     -0.3257
     13  C1C       25.3060   48.0490   86.5010 C.3   431  CTT431      0.2695
     14  C2C       24.2580   46.9760   86.1590 C.3   431  CTT431      0.2404
     15  O2C       24.5610   45.7600   86.8440 O.3   431  CTT431     -0.2149
     16  C3C       24.1810   46.7360   84.6600 C.3   431  CTT431      0.2167
     17  O3C       23.0330   45.9450   84.3390 O.3   431  CTT431     -0.2175
     18  O5C       24.9040   49.2510   85.8170 O.3   431  CTT431     -0.3257
     19  C5C       25.0770   49.0750   84.4090 C.3   431  CTT431      0.1803
     20  C6C       24.8600   50.4040   83.6870 C.3   431  CTT431      0.2141
     21  O6C       23.4970   50.8120   83.8270 O.3   431  CTT431     -0.2176
     22  C4C       24.1570   48.0200   83.8350 C.3   431  CTT431      0.1804
     23  O4C       24.6060   47.6780   82.5060 O.3   431  CTT431     -0.3257
     24  C1D       23.4650   47.5560   81.6360 C.3   431  CTT431      0.2695
     25  C2D       23.4160   48.8150   80.7730 C.3   431  CTT431      0.2404
     26  O2D       23.0690   49.9380   81.5860 O.3   431  CTT431     -0.2149
     27  C3D       22.4410   48.6700   79.6040 C.3   431  CTT431      0.2167
     28  O3D       22.5320   49.7790   78.7170 O.3   431  CTT431     -0.2175
     29  O5D       23.5790   46.3510   80.8740 O.3   431  CTT431     -0.3257
     30  C5D       22.5860   46.2520   79.8430 C.3   431  CTT431      0.1803
     31  C6D       22.5410   44.8790   79.2060 C.3   431  CTT431      0.2141
     32  O6D       23.6940   44.5920   78.4180 O.3   431  CTT431     -0.2176
     33  C4D       22.7960   47.3760   78.8590 C.3   431  CTT431      0.1804
     34  O4D       22.1650   47.2720   77.5930 O.3   431  CTT431     -0.3257
     35  C1E       22.9900   47.8970   76.5930 C.3   431  CTT431      0.2695
     36  C2E       23.0970   47.0200   75.3480 C.3   431  CTT431      0.2406
     37  O2E       23.7760   45.8060   75.7010 O.3   431  CTT431     -0.2149
     38  C3E       23.8800   47.7080   74.2240 C.3   431  CTT431      0.2198
     39  O3E       23.7390   47.0020   72.9860 O.3   431  CTT431     -0.2174
     40  C4E       23.3860   49.1430   74.0290 C.3   431  CTT431      0.2144
     41  O4E       24.2050   49.8120   73.0730 O.3   431  CTT431     -0.2176
     42  O5E       22.4630   49.1830   76.2610 O.3   431  CTT431     -0.3256
     43  C5E       23.3660   49.8710   75.3760 C.3   431  CTT431      0.1835
     44  C6E       22.8570   51.3030   75.1720 C.3   431  CTT431      0.2142
     45  O6E       21.4290   51.3070   75.2980 O.3   431  CTT431     -0.2176
@<TRIPOS>BOND
     1    39    38    1
     2    41    40    1
     3    40    38    1
     4    40    43    1
     5    38    36    1
     6    44    45    1
     7    44    43    1
     8    36    37    1
     9    36    35    1
    10    43    42    1
    11    42    35    1
    12    35    34    1
    13    34    33    1
    14    32    31    1
    15    28    27    1
    16    33    27    1
    17    33    30    1
    18    31    30    1
    19    27    25    1
    20    30    29    1
    21    25    26    1
    22    25    24    1
    23    29    24    1
    24    24    23    1
    25    23    22    1
    26    20    21    1
    27    20    19    1
    28    22    19    1
    29    22    16    1
    30    17    16    1
    31    19    18    1
    32    16    14    1
    33    18    13    1
    34    14    13    1
    35    14    15    1
    36    13    12    1
    37     6     5    1
    38    12    11    1
    39    11     5    1
    40    11     8    1
    41     5     3    1
    42     9     8    1
    43     9    10    1
    44     3     4    1
    45     3     2    1
    46     8     7    1
    47     7     2    1
    48     2     1    1
