@<TRIPOS>MOLECULE
2rg3_FUC_A_1.pdb
 10 10 0 0 0
SMALL
GASTEIGER

@<TRIPOS>ATOM
      1  C1        41.1950   -8.4500  -10.4890 C.3   402  FUC402      0.1776
      2  C2        42.1800   -8.3950   -9.3080 C.3   402  FUC402      0.2141
      3  C3        41.6020   -7.5380   -8.1650 C.3   402  FUC402      0.2172
      4  C4        40.1850   -7.9940   -7.7980 C.3   402  FUC402      0.2116
      5  C5        39.3080   -8.0640   -9.0550 C.3   402  FUC402      0.1483
      6  C6        37.9210   -8.6090   -8.7950 C.3   402  FUC402      0.0349
      7  O2        43.4160   -7.8350   -9.7410 O.3   402  FUC402     -0.2176
      8  O3        42.4380   -7.6460   -7.0220 O.3   402  FUC402     -0.2175
      9  O4        40.2510   -9.2780   -7.1990 O.3   402  FUC402     -0.2177
     10  O5        39.9310   -8.9240  -10.0330 O.3   402  FUC402     -0.3508
@<TRIPOS>BOND
     1     1    10    1
     2     1     2    1
     3    10     5    1
     4     7     2    1
     5     2     3    1
     6     5     6    1
     7     5     4    1
     8     3     4    1
     9     3     8    1
    10     4     9    1
