@<TRIPOS>MOLECULE
2rg5_279_A_1.pdb
 28 30 0 0 0
SMALL
GASTEIGER

@<TRIPOS>ATOM
      1  C1        -3.8850   -0.0190   14.0800 C.ar  501  279501      0.0044
      2  C2        -4.9140   -0.4950   14.9190 C.ar  501  279501     -0.0028
      3  C3        -2.2600   -1.1680   15.4190 C.ar  501  279501      0.0209
      4  C4        -1.4860   -3.3000   21.6710 C.ar  501  279501      0.1048
      5  C5        -2.5430   -0.3520   14.3350 C.ar  501  279501      0.0585
      6  C6        -1.6320   -4.5170   21.0300 C.ar  501  279501      0.0718
      7  C7        -4.6090   -1.3150   16.0190 C.ar  501  279501     -0.0065
      8  C8        -2.0560   -4.2370   19.6850 C.ar  501  279501      0.0046
      9  C9        -3.2700   -1.6460   16.2550 C.ar  501  279501      0.0683
     10  C10       -2.1590   -2.8570   19.5990 C.ar  501  279501      0.1123
     11  C11       -2.1300   -0.2140   20.0540 C.ar  501  279501      0.2211
     12  C12       -2.5320   -1.9590   18.5480 C.ar  501  279501      0.1710
     13  C13       -1.3570    0.0700   13.5290 C.2   501  279501      0.2901
     14  C14       -1.3530   -5.8080   21.6400 C.2   501  279501      0.2660
     15  C15       -5.6800   -1.8450   16.9270 C.3   501  279501      0.0324
     16  C16       -2.3500   -5.2380   18.6190 C.3   501  279501      0.0329
     17  C17        1.1250   -7.4270   22.9230 C.3   501  279501      0.0253
     18  C18        0.2780    1.3670   11.0850 C.3   501  279501      0.2080
     19  C19       -0.1570   -6.8670   23.5180 C.3   501  279501      0.1155
     20  N20       -1.7940   -0.9580   21.0640 N.ar  501  279501     -0.1422
     21  N21       -2.4920   -0.6700   18.8050 N.ar  501  279501     -0.2043
     22  N22       -1.8180   -2.3020   20.8000 N.ar  501  279501     -0.2241
     23  N23       -2.9030   -2.4660   17.3270 N.pl3 501  279501     -0.1932
     24  N24       -0.5610   -5.7080   22.7640 N.am  501  279501     -0.2016
     25  N25       -1.5080    1.0530   12.5640 N.am  501  279501     -0.0578
     26  O26       -0.2850   -0.4870   13.7610 O.2   501  279501     -0.2661
     27  O27       -1.7670   -6.8690   21.1840 O.2   501  279501     -0.2683
     28  O28       -0.2810    1.7590   12.3370 O.3   501  279501     -0.2409
@<TRIPOS>BOND
     1    18    28    1
     2    28    25    1
     3    25    13   am
     4    13    26    2
     5    13     5    1
     6     1     5   ar
     7     1     2   ar
     8     5     3   ar
     9     2     7   ar
    10     3     9   ar
    11     7     9   ar
    12     7    15    1
    13     9    23    1
    14    23    12    1
    15    12    21   ar
    16    12    10   ar
    17    16     8    1
    18    21    11   ar
    19    10     8   ar
    20    10    22   ar
    21     8     6   ar
    22    11    20   ar
    23    22    20   ar
    24    22     4   ar
    25     6    14    1
    26     6     4   ar
    27    27    14    2
    28    14    24   am
    29    24    19    1
    30    17    19    1
