@<TRIPOS>MOLECULE
2rg6_287_A_1.pdb
 34 37 0 0 0
SMALL
GASTEIGER

@<TRIPOS>ATOM
      1  C1        -4.1490   -4.9920   28.0210 C.ar  501  287501     -0.0000
      2  C2        -3.6380   -6.1710   27.4910 C.ar  501  287501     -0.0003
      3  C3        -3.6950   -3.7650   27.5510 C.ar  501  287501     -0.0003
      4  C4        -3.5900    1.0930   14.4390 C.ar  501  287501      0.0044
      5  C5        -2.6720   -6.1310   26.4850 C.ar  501  287501     -0.0026
      6  C6        -2.7260   -3.7200   26.5460 C.ar  501  287501     -0.0026
      7  C7        -4.6910    0.6260   15.1780 C.ar  501  287501     -0.0028
      8  C8        -2.0950    0.0630   16.0180 C.ar  501  287501      0.0209
      9  C9        -1.9470   -1.4280   22.4870 C.ar  501  287501      0.1048
     10  C10       -2.2910    0.8050   14.8620 C.ar  501  287501      0.0585
     11  C11       -1.9730   -2.7090   21.9890 C.ar  501  287501      0.0718
     12  C12       -2.1980   -4.9020   26.0020 C.ar  501  287501     -0.0026
     13  C13       -4.4940   -0.1120   16.3520 C.ar  501  287501     -0.0065
     14  C14       -2.2510   -2.6200   20.5870 C.ar  501  287501      0.0046
     15  C15       -3.1750   -0.4030   16.7560 C.ar  501  287501      0.0683
     16  C16       -2.3760   -1.2650   20.3060 C.ar  501  287501      0.1123
     17  C17       -2.4830    1.3880   20.4350 C.ar  501  287501      0.2211
     18  C18       -2.6650   -0.5100   19.1040 C.ar  501  287501      0.1710
     19  C19       -1.0740    1.2360   14.1270 C.2   501  287501      0.2901
     20  C20       -1.7760   -3.9320   22.7500 C.2   501  287501      0.2663
     21  C21       -5.6870   -0.5940   17.1420 C.3   501  287501      0.0324
     22  C22       -2.3710   -3.7830   19.6720 C.3   501  287501      0.0329
     23  C23        0.2820   -4.9080   25.4190 C.3   501  287501      0.0283
     24  C24        0.2640    2.3180   11.4950 C.3   501  287501      0.2080
     25  C25       -1.1530   -4.8910   24.9120 C.3   501  287501      0.1178
     26  N26       -2.2350    0.7860   21.5600 N.ar  501  287501     -0.1422
     27  N27       -2.6850    0.7920   19.2080 N.ar  501  287501     -0.2043
     28  N28       -2.1950   -0.5660   21.4620 N.ar  501  287501     -0.2241
     29  N29       -2.9010   -1.1470   17.9130 N.pl3 501  287501     -0.1932
     30  N30       -1.3410   -3.7480   24.0350 N.am  501  287501     -0.1989
     31  N31       -1.2510    2.2630   13.2350 N.am  501  287501     -0.0578
     32  O32       -0.0240    0.6130   14.2640 O.2   501  287501     -0.2661
     33  O33       -1.9690   -5.0280   22.2500 O.2   501  287501     -0.2683
     34  O34       -0.0020    2.7890   12.8200 O.3   501  287501     -0.2409
@<TRIPOS>BOND
     1    24    34    1
     2    34    31    1
     3    31    19   am
     4    19    32    2
     5    19    10    1
     6     4    10   ar
     7     4     7   ar
     8    10     8   ar
     9     7    13   ar
    10     8    15   ar
    11    13    15   ar
    12    13    21    1
    13    15    29    1
    14    29    18    1
    15    18    27   ar
    16    18    16   ar
    17    27    17   ar
    18    22    14    1
    19    16    14   ar
    20    16    28   ar
    21    17    26   ar
    22    14    11   ar
    23    28    26   ar
    24    28     9   ar
    25    11     9   ar
    26    11    20    1
    27    33    20    2
    28    20    30   am
    29    30    25    1
    30    25    23    1
    31    25    12    1
    32    12     5   ar
    33    12     6   ar
    34     5     2   ar
    35     6     3   ar
    36     2     1   ar
    37     3     1   ar
