@<TRIPOS>MOLECULE
2rga_GNP_A_1.pdb
 32 34 0 0 0
SMALL
GASTEIGER

@<TRIPOS>ATOM
      1  PG        -9.7610   64.3700  -66.5610 P.3   528  GNP528      0.4884
      2  O1G       -8.9170   63.9270  -65.4420 O.3   528  GNP528     -0.1240
      3  O2G      -10.7940   65.2580  -66.0950 O.3   528  GNP528     -0.1240
      4  O3G      -10.6010   63.1620  -67.0160 O.2   528  GNP528     -0.2331
      5  N3B       -8.8610   64.8840  -67.8170 N.3   528  GNP528     -0.0163
      6  PB        -9.4680   65.4720  -69.2280 P.3   528  GNP528      0.4669
      7  O1B       -9.8310   64.4390  -70.2190 O.2   528  GNP528     -0.2351
      8  O2B      -10.5000   66.4970  -69.1030 O.3   528  GNP528     -0.1253
      9  O3A       -8.2270   66.2620  -69.8450 O.3   528  GNP528     -0.2360
     10  PA        -7.9400   67.8720  -69.8490 P.3   528  GNP528      0.2220
     11  O1A       -8.9000   68.5630  -70.7650 O.2   528  GNP528     -0.5170
     12  O2A       -7.7880   68.3750  -68.4640 O.3   528  GNP528     -0.4370
     13  O5'       -6.5340   67.8740  -70.6140 O.3   528  GNP528     -0.3111
     14  C5'       -5.3690   67.2670  -69.9820 C.3   528  GNP528      0.1813
     15  C4'       -4.0720   67.8310  -70.5860 C.3   528  GNP528      0.1799
     16  O4'       -4.1070   67.6370  -72.0200 O.3   528  GNP528     -0.3326
     17  C3'       -3.8970   69.3500  -70.3640 C.3   528  GNP528      0.2158
     18  O3'       -2.5230   69.7000  -70.0720 O.3   528  GNP528     -0.2175
     19  C2'       -4.4290   69.9370  -71.6670 C.3   528  GNP528      0.2310
     20  O2'       -3.8600   71.1900  -72.0430 O.3   528  GNP528     -0.2158
     21  C1'       -3.9750   68.8910  -72.6900 C.3   528  GNP528      0.2293
     22  N9        -4.8330   68.8760  -73.8940 N.pl3 528  GNP528     -0.2354
     23  C8        -6.2090   68.6990  -74.0000 C.3   528  GNP528      0.2246
     24  N7        -6.6710   68.7340  -75.2070 N.2   528  GNP528     -0.2322
     25  C5        -5.5240   68.9480  -75.9970 C.2   528  GNP528      0.2182
     26  C6        -5.3600   69.0880  -77.4400 C.1   528  GNP528      0.2372
     27  O6        -6.2220   69.0410  -78.3250 O.2   528  GNP528     -0.2069
     28  N1        -4.0230   69.2920  -77.8080 N.2   528  GNP528     -0.2485
     29  C2        -2.9390   69.3690  -76.9300 C.1   528  GNP528      0.2531
     30  N2        -1.7190   69.5740  -77.4520 N.pl3 528  GNP528     -0.0226
     31  N3        -3.0870   69.2420  -75.5880 N.2   528  GNP528     -0.3074
     32  C4        -4.3920   69.0360  -75.1870 C.2   528  GNP528      0.2300
@<TRIPOS>BOND
     1    27    26    2
     2    28    26    2
     3    28    29    2
     4    30    29    1
     5    26    25    1
     6    29    31    2
     7    25    24    2
     8    25    32    1
     9    31    32    2
    10    24    23    1
    11    32    22    1
    12    23    22    1
    13    22    21    1
    14    21    16    1
    15    21    19    1
    16    20    19    1
    17    16    15    1
    18    19    17    1
    19    11    10    2
    20    13    14    1
    21    13    10    1
    22    15    17    1
    23    15    14    1
    24    17    18    1
    25     7     6    2
    26    10     9    1
    27    10    12    1
    28     9     6    1
    29     6     8    1
    30     6     5    1
    31     5     1    1
    32     4     1    2
    33     1     3    1
    34     1     2    1
