@<TRIPOS>MOLECULE
2rgb_GNP_A_1.pdb
 32 34 0 0 0
SMALL
GASTEIGER

@<TRIPOS>ATOM
      1  PG        -9.9320   64.6570  -66.5360 P.3   528  GNP528      0.4884
      2  O1G       -9.0960   64.2150  -65.3960 O.3   528  GNP528     -0.1240
      3  O2G      -10.9550   65.5710  -66.0890 O.3   528  GNP528     -0.1240
      4  O3G      -10.7560   63.4430  -67.0040 O.2   528  GNP528     -0.2331
      5  N3B       -9.0140   65.1990  -67.7770 N.3   528  GNP528     -0.0163
      6  PB        -9.6120   65.8090  -69.1980 P.3   528  GNP528      0.4669
      7  O1B       -9.9890   64.7670  -70.1710 O.2   528  GNP528     -0.2351
      8  O2B      -10.6400   66.8280  -69.0430 O.3   528  GNP528     -0.1253
      9  O3A       -8.3610   66.5800  -69.8320 O.3   528  GNP528     -0.2360
     10  PA        -8.0380   68.1810  -69.8320 P.3   528  GNP528      0.2220
     11  O1A       -8.9920   68.8950  -70.7340 O.2   528  GNP528     -0.5170
     12  O2A       -7.8480   68.6620  -68.4490 O.3   528  GNP528     -0.4370
     13  O5'       -6.6560   68.1540  -70.6170 O.3   528  GNP528     -0.3111
     14  C5'       -5.5010   67.5180  -70.0060 C.3   528  GNP528      0.1813
     15  C4'       -4.2010   68.1160  -70.5680 C.3   528  GNP528      0.1799
     16  O4'       -4.1820   67.9160  -72.0020 O.3   528  GNP528     -0.3326
     17  C3'       -4.0740   69.6340  -70.3530 C.3   528  GNP528      0.2158
     18  O3'       -2.7120   70.0040  -70.0410 O.3   528  GNP528     -0.2175
     19  C2'       -4.5650   70.2080  -71.6700 C.3   528  GNP528      0.2310
     20  O2'       -3.9900   71.4610  -72.0300 O.3   528  GNP528     -0.2158
     21  C1'       -4.0660   69.1680  -72.6740 C.3   528  GNP528      0.2293
     22  N9        -4.9060   69.1230  -73.8810 N.pl3 528  GNP528     -0.2354
     23  C8        -6.2750   68.9080  -73.9870 C.3   528  GNP528      0.2246
     24  N7        -6.7360   68.9230  -75.1880 N.2   528  GNP528     -0.2322
     25  C5        -5.5960   69.1700  -75.9760 C.2   528  GNP528      0.2182
     26  C6        -5.4430   69.2990  -77.4110 C.1   528  GNP528      0.2372
     27  O6        -6.3110   69.2230  -78.2840 O.2   528  GNP528     -0.2069
     28  N1        -4.1160   69.5460  -77.7860 N.2   528  GNP528     -0.2485
     29  C2        -3.0330   69.6560  -76.9130 C.1   528  GNP528      0.2531
     30  N2        -1.8210   69.8960  -77.4410 N.pl3 528  GNP528     -0.0226
     31  N3        -3.1740   69.5330  -75.5730 N.2   528  GNP528     -0.3074
     32  C4        -4.4670   69.2900  -75.1700 C.2   528  GNP528      0.2300
@<TRIPOS>BOND
     1    27    26    2
     2    28    26    2
     3    28    29    2
     4    30    29    1
     5    26    25    1
     6    29    31    2
     7    25    24    2
     8    25    32    1
     9    31    32    2
    10    24    23    1
    11    32    22    1
    12    23    22    1
    13    22    21    1
    14    21    16    1
    15    21    19    1
    16    20    19    1
    17    16    15    1
    18    19    17    1
    19    11    10    2
    20    13    14    1
    21    13    10    1
    22    15    17    1
    23    15    14    1
    24    17    18    1
    25     7     6    2
    26    10     9    1
    27    10    12    1
    28     9     6    1
    29     6     8    1
    30     6     5    1
    31     5     1    1
    32     4     1    2
    33     1     3    1
    34     1     2    1
