@<TRIPOS>MOLECULE
2rgc_GNP_A_1.pdb
 32 34 0 0 0
SMALL
GASTEIGER

@<TRIPOS>ATOM
      1  PG        -9.8670   64.4690  -66.0970 P.3   528  GNP528      0.4884
      2  O1G       -9.0490   64.0410  -64.9470 O.3   528  GNP528     -0.1240
      3  O2G      -10.9130   65.3650  -65.6790 O.3   528  GNP528     -0.1240
      4  O3G      -10.6770   63.2530  -66.5510 O.2   528  GNP528     -0.2331
      5  N3B       -8.9470   64.9840  -67.3390 N.3   528  GNP528     -0.0163
      6  PB        -9.5630   65.5740  -68.7550 P.3   528  GNP528      0.4669
      7  O1B       -9.9550   64.5340  -69.7300 O.2   528  GNP528     -0.2351
      8  O2B      -10.5840   66.6090  -68.6030 O.3   528  GNP528     -0.1253
      9  O3A       -8.3170   66.3460  -69.3990 O.3   528  GNP528     -0.2360
     10  PA        -8.0030   67.9530  -69.3970 P.3   528  GNP528      0.2220
     11  O1A       -8.9670   68.6760  -70.2760 O.2   528  GNP528     -0.5170
     12  O2A       -7.7950   68.4400  -68.0080 O.3   528  GNP528     -0.4370
     13  O5'       -6.6210   67.9580  -70.1890 O.3   528  GNP528     -0.3111
     14  C5'       -5.4620   67.3130  -69.5860 C.3   528  GNP528      0.1813
     15  C4'       -4.1610   67.8970  -70.1580 C.3   528  GNP528      0.1799
     16  O4'       -4.1640   67.7080  -71.5890 O.3   528  GNP528     -0.3326
     17  C3'       -4.0050   69.4110  -69.9320 C.3   528  GNP528      0.2158
     18  O3'       -2.6320   69.7580  -69.6440 O.3   528  GNP528     -0.2175
     19  C2'       -4.5140   70.0030  -71.2370 C.3   528  GNP528      0.2310
     20  O2'       -3.9320   71.2550  -71.6000 O.3   528  GNP528     -0.2158
     21  C1'       -4.0380   68.9610  -72.2550 C.3   528  GNP528      0.2293
     22  N9        -4.8860   68.9280  -73.4610 N.pl3 528  GNP528     -0.2354
     23  C8        -6.2550   68.7150  -73.5730 C.3   528  GNP528      0.2246
     24  N7        -6.7130   68.7440  -74.7780 N.2   528  GNP528     -0.2322
     25  C5        -5.5680   68.9980  -75.5620 C.2   528  GNP528      0.2182
     26  C6        -5.4060   69.1450  -77.0000 C.1   528  GNP528      0.2372
     27  O6        -6.2670   69.0800  -77.8780 O.2   528  GNP528     -0.2069
     28  N1        -4.0770   69.3930  -77.3670 N.2   528  GNP528     -0.2485
     29  C2        -2.9970   69.4940  -76.4850 C.1   528  GNP528      0.2531
     30  N2        -1.7770   69.7370  -77.0020 N.pl3 528  GNP528     -0.0226
     31  N3        -3.1470   69.3540  -75.1430 N.2   528  GNP528     -0.3074
     32  C4        -4.4440   69.1120  -74.7490 C.2   528  GNP528      0.2300
@<TRIPOS>BOND
     1    27    26    2
     2    28    26    2
     3    28    29    2
     4    30    29    1
     5    26    25    1
     6    29    31    2
     7    25    24    2
     8    25    32    1
     9    31    32    2
    10    24    23    1
    11    32    22    1
    12    23    22    1
    13    22    21    1
    14    21    16    1
    15    21    19    1
    16    20    19    1
    17    16    15    1
    18    19    17    1
    19    11    10    2
    20    13    14    1
    21    13    10    1
    22    15    17    1
    23    15    14    1
    24    17    18    1
    25     7     6    2
    26     9    10    1
    27     9     6    1
    28    10    12    1
    29     6     8    1
    30     6     5    1
    31     5     1    1
    32     4     1    2
    33     1     3    1
    34     1     2    1
