@<TRIPOS>MOLECULE
2rgd_GNP_A_1.pdb
 32 34 0 0 0
SMALL
GASTEIGER

@<TRIPOS>ATOM
      1  PG        -9.9490   64.9150  -66.7450 P.3   528  GNP528      0.4884
      2  O1G       -9.1220   64.4840  -65.6060 O.3   528  GNP528     -0.1240
      3  O2G      -11.0030   65.7900  -66.2970 O.3   528  GNP528     -0.1240
      4  O3G      -10.7630   63.7060  -67.2140 O.2   528  GNP528     -0.2331
      5  N3B       -9.0470   65.4400  -67.9970 N.3   528  GNP528     -0.0163
      6  PB        -9.6740   66.0100  -69.4130 P.3   528  GNP528      0.4669
      7  O1B      -10.0730   64.9630  -70.3680 O.2   528  GNP528     -0.2351
      8  O2B      -10.6760   67.0520  -69.2940 O.3   528  GNP528     -0.1253
      9  O3A       -8.4310   66.7520  -70.0750 O.3   528  GNP528     -0.2360
     10  PA        -8.1170   68.3440  -70.0960 P.3   528  GNP528      0.2220
     11  O1A       -9.0770   69.0480  -70.9950 O.2   528  GNP528     -0.5170
     12  O2A       -7.9360   68.8550  -68.7100 O.3   528  GNP528     -0.4370
     13  O5'       -6.7340   68.3060  -70.8860 O.3   528  GNP528     -0.3111
     14  C5'       -5.5680   67.6760  -70.2730 C.3   528  GNP528      0.1813
     15  C4'       -4.2740   68.2880  -70.8330 C.3   528  GNP528      0.1799
     16  O4'       -4.2560   68.0850  -72.2610 O.3   528  GNP528     -0.3326
     17  C3'       -4.1620   69.8150  -70.6090 C.3   528  GNP528      0.2158
     18  O3'       -2.8150   70.2210  -70.2720 O.3   528  GNP528     -0.2175
     19  C2'       -4.6490   70.3860  -71.9270 C.3   528  GNP528      0.2310
     20  O2'       -4.0630   71.6370  -72.2790 O.3   528  GNP528     -0.2158
     21  C1'       -4.1530   69.3390  -72.9340 C.3   528  GNP528      0.2293
     22  N9        -4.9940   69.2970  -74.1440 N.pl3 528  GNP528     -0.2354
     23  C8        -6.3620   69.0910  -74.2640 C.3   528  GNP528      0.2246
     24  N7        -6.8090   69.1070  -75.4700 N.2   528  GNP528     -0.2322
     25  C5        -5.6560   69.3410  -76.2520 C.2   528  GNP528      0.2182
     26  C6        -5.4750   69.4690  -77.6960 C.1   528  GNP528      0.2372
     27  O6        -6.3240   69.3980  -78.5920 O.2   528  GNP528     -0.2069
     28  N1        -4.1380   69.7010  -78.0490 N.2   528  GNP528     -0.2485
     29  C2        -3.0640   69.8050  -77.1540 C.1   528  GNP528      0.2531
     30  N2        -1.8320   70.0340  -77.6560 N.pl3 528  GNP528     -0.0226
     31  N3        -3.2320   69.6850  -75.8160 N.2   528  GNP528     -0.3074
     32  C4        -4.5390   69.4540  -75.4330 C.2   528  GNP528      0.2300
@<TRIPOS>BOND
     1    27    26    2
     2    28    26    2
     3    28    29    2
     4    26    25    1
     5    30    29    1
     6    29    31    2
     7    25    24    2
     8    25    32    1
     9    31    32    2
    10    24    23    1
    11    32    22    1
    12    23    22    1
    13    22    21    1
    14    21    16    1
    15    21    19    1
    16    20    19    1
    17    16    15    1
    18    19    17    1
    19    11    10    2
    20    13    14    1
    21    13    10    1
    22    15    17    1
    23    15    14    1
    24    17    18    1
    25     7     6    2
    26    10     9    1
    27    10    12    1
    28     9     6    1
    29     6     8    1
    30     6     5    1
    31     5     1    1
    32     4     1    2
    33     1     3    1
    34     1     2    1
