@<TRIPOS>MOLECULE
2rge_GNP_A_1.pdb
 32 34 0 0 0
SMALL
GASTEIGER

@<TRIPOS>ATOM
      1  PG       -10.0820   65.4520  -66.9180 P.3   528  GNP528      0.4884
      2  O1G       -9.2380   65.0410  -65.7790 O.3   528  GNP528     -0.1240
      3  O2G      -11.1400   66.3360  -66.4940 O.3   528  GNP528     -0.1240
      4  O3G      -10.8660   64.2100  -67.3860 O.2   528  GNP528     -0.2331
      5  N3B       -9.1680   65.9970  -68.1590 N.3   528  GNP528     -0.0163
      6  PB        -9.7610   66.5800  -69.5950 P.3   528  GNP528      0.4669
      7  O1B      -10.1360   65.5240  -70.5550 O.2   528  GNP528     -0.2351
      8  O2B      -10.7790   67.6120  -69.4690 O.3   528  GNP528     -0.1253
      9  O3A       -8.5060   67.3220  -70.2460 O.3   528  GNP528     -0.2360
     10  PA        -8.1680   68.9230  -70.2560 P.3   528  GNP528      0.2220
     11  O1A       -9.1350   69.6400  -71.1360 O.2   528  GNP528     -0.5170
     12  O2A       -7.9560   69.4140  -68.8730 O.3   528  GNP528     -0.4370
     13  O5'       -6.7940   68.8920  -71.0470 O.3   528  GNP528     -0.3111
     14  C5'       -5.6420   68.2490  -70.4390 C.3   528  GNP528      0.1813
     15  C4'       -4.3460   68.8530  -70.9960 C.3   528  GNP528      0.1799
     16  O4'       -4.3130   68.6430  -72.4250 O.3   528  GNP528     -0.3326
     17  C3'       -4.2360   70.3750  -70.7890 C.3   528  GNP528      0.2158
     18  O3'       -2.8860   70.7650  -70.4540 O.3   528  GNP528     -0.2175
     19  C2'       -4.7100   70.9370  -72.1130 C.3   528  GNP528      0.2310
     20  O2'       -4.1260   72.1880  -72.4620 O.3   528  GNP528     -0.2158
     21  C1'       -4.2030   69.8930  -73.1090 C.3   528  GNP528      0.2293
     22  N9        -5.0370   69.8290  -74.3220 N.pl3 528  GNP528     -0.2354
     23  C8        -6.4030   69.6150  -74.4340 C.3   528  GNP528      0.2246
     24  N7        -6.8580   69.6100  -75.6410 N.2   528  GNP528     -0.2322
     25  C5        -5.7130   69.8420  -76.4270 C.2   528  GNP528      0.2182
     26  C6        -5.5490   69.9500  -77.8660 C.1   528  GNP528      0.2372
     27  O6        -6.4100   69.8580  -78.7460 O.2   528  GNP528     -0.2069
     28  N1        -4.2180   70.1910  -78.2380 N.2   528  GNP528     -0.2485
     29  C2        -3.1430   70.3170  -77.3580 C.1   528  GNP528      0.2531
     30  N2        -1.9260   70.5480  -77.8800 N.pl3 528  GNP528     -0.0226
     31  N3        -3.2950   70.2110  -76.0150 N.2   528  GNP528     -0.3074
     32  C4        -4.5900   69.9810  -75.6140 C.2   528  GNP528      0.2300
@<TRIPOS>BOND
     1    27    26    2
     2    28    26    2
     3    28    29    2
     4    30    29    1
     5    26    25    1
     6    29    31    2
     7    25    24    2
     8    25    32    1
     9    31    32    2
    10    24    23    1
    11    32    22    1
    12    23    22    1
    13    22    21    1
    14    21    16    1
    15    21    19    1
    16    20    19    1
    17    16    15    1
    18    19    17    1
    19    11    10    2
    20    13    14    1
    21    13    10    1
    22    15    17    1
    23    15    14    1
    24    17    18    1
    25     7     6    2
    26    10     9    1
    27    10    12    1
    28     9     6    1
    29     6     8    1
    30     6     5    1
    31     5     1    1
    32     4     1    2
    33     1     3    1
    34     1     2    1
