@<TRIPOS>MOLECULE
2rgg_GNP_A_1.pdb
 32 34 0 0 0
SMALL
GASTEIGER

@<TRIPOS>ATOM
      1  PG         4.9260   31.7040   21.6990 P.3   528  GNP528      0.4884
      2  O1G        4.7090   32.0990   23.1100 O.3   528  GNP528     -0.1240
      3  O2G        4.0250   32.3890   20.8150 O.2   528  GNP528     -0.2331
      4  O3G        4.4490   30.2490   21.5850 O.3   528  GNP528     -0.1240
      5  N3B        6.5020   31.7960   21.3060 N.3   528  GNP528     -0.0163
      6  PB         7.1160   31.4930   19.8080 P.3   528  GNP528      0.4669
      7  O1B        7.2810   30.0560   19.4940 O.3   528  GNP528     -0.1253
      8  O2B        6.4980   32.2540   18.7310 O.2   528  GNP528     -0.2351
      9  O3A        8.5910   32.0840   19.8990 O.3   528  GNP528     -0.2360
     10  PA         9.1370   33.5450   19.4300 P.3   528  GNP528      0.2220
     11  O1A        9.1480   33.6280   17.9450 O.2   528  GNP528     -0.5170
     12  O2A        8.4620   34.6260   20.1940 O.3   528  GNP528     -0.4370
     13  O5'       10.6650   33.4040   19.8620 O.3   528  GNP528     -0.3111
     14  C5'       11.0070   33.2940   21.2760 C.3   528  GNP528      0.1813
     15  C4'       12.4410   33.8010   21.5430 C.3   528  GNP528      0.1799
     16  O4'       13.3610   33.0110   20.7560 O.3   528  GNP528     -0.3326
     17  C3'       12.6720   35.2650   21.1070 C.3   528  GNP528      0.2158
     18  O3'       13.5650   35.9600   22.0140 O.3   528  GNP528     -0.2175
     19  C2'       13.2460   35.1100   19.7150 C.3   528  GNP528      0.2310
     20  O2'       14.1050   36.1750   19.3020 O.3   528  GNP528     -0.2158
     21  C1'       14.1060   33.8550   19.8750 C.3   528  GNP528      0.2293
     22  N9        14.2830   33.1270   18.6100 N.pl3 528  GNP528     -0.2354
     23  C8        13.3210   32.6700   17.7140 C.3   528  GNP528      0.2246
     24  N7        13.7880   32.0500   16.6850 N.2   528  GNP528     -0.2322
     25  C5        15.1820   32.0760   16.8830 C.2   528  GNP528      0.2182
     26  C6        16.2760   31.5450   16.0840 C.1   528  GNP528      0.2372
     27  O6        16.2250   30.9280   15.0130 O.2   528  GNP528     -0.2069
     28  N1        17.5320   31.7980   16.6630 N.2   528  GNP528     -0.2485
     29  C2        17.7530   32.4750   17.8610 C.1   528  GNP528      0.2531
     30  N2        19.0260   32.6320   18.2750 N.pl3 528  GNP528     -0.0226
     31  N3        16.7350   32.9700   18.6070 N.2   528  GNP528     -0.3074
     32  C4        15.4850   32.7400   18.0710 C.2   528  GNP528      0.2300
@<TRIPOS>BOND
     1    27    26    2
     2    26    28    2
     3    26    25    1
     4    28    29    2
     5    24    25    2
     6    24    23    1
     7    25    32    1
     8    23    22    1
     9    29    30    1
    10    29    31    2
    11    11    10    2
    12    32    31    2
    13    32    22    1
    14    22    21    1
    15     8     6    2
    16    20    19    1
    17    10    13    1
    18    10     9    1
    19    10    12    1
    20     7     6    1
    21    19    21    1
    22    19    17    1
    23     6     9    1
    24     6     5    1
    25    13    14    1
    26    21    16    1
    27    16    15    1
    28     3     1    2
    29    17    15    1
    30    17    18    1
    31    14    15    1
    32     5     1    1
    33     4     1    1
    34     1     2    1
