@<TRIPOS>MOLECULE
2rgm_G2F_A_1.pdb
 11 11 0 0 0
SMALL
GASTEIGER

@<TRIPOS>ATOM
      1  C1         6.0980    1.6900   36.3150 C.3   1386  G2F1386     0.1801
      2  C2         5.8720    0.4490   35.4610 C.3   1386  G2F1386     0.2230
      3  C3         5.0470    0.7820   34.2330 C.3   1386  G2F1386     0.2194
      4  C4         3.7290    1.4390   34.6480 C.3   1386  G2F1386     0.2144
      5  C5         4.0790    2.7300   35.3910 C.3   1386  G2F1386     0.1810
      6  C6         2.8410    3.4940   35.8620 C.3   1386  G2F1386     0.2141
      7  O3         4.8030   -0.4240   33.5160 O.3   1386  G2F1386    -0.2173
      8  O4         2.9310    1.7200   33.4980 O.3   1386  G2F1386    -0.2176
      9  O5         4.8990    2.4200   36.5390 O.3   1386  G2F1386    -0.3479
     10  O6         2.0460    2.6480   36.7090 O.3   1386  G2F1386    -0.2176
     11  F2         7.0960   -0.0400   35.0750 F     1386  G2F1386    -0.2317
@<TRIPOS>BOND
     1     8     4    1
     2     7     3    1
     3     3     4    1
     4     3     2    1
     5     4     5    1
     6    11     2    1
     7     5     6    1
     8     5     9    1
     9     2     1    1
    10     6    10    1
    11     1     9    1
