@<TRIPOS>MOLECULE
2rgn_GDP_A_1.pdb
 28 30 0 0 0
SMALL
GASTEIGER

@<TRIPOS>ATOM
      1  PB        25.1640   -4.1440    1.6990 P.3   360  GDP360      0.5373
      2  O1B       26.0400   -3.9630    0.4980 O.2   360  GDP360     -0.2221
      3  O2B       24.5660   -5.5140    1.6040 O.3   360  GDP360     -0.1143
      4  O3B       25.9890   -4.0370    2.9480 O.3   360  GDP360     -0.1143
      5  O3A       24.0280   -3.0080    1.6640 O.3   360  GDP360     -0.2261
      6  PA        22.4300   -3.2490    1.6780 P.3   360  GDP360      0.2231
      7  O1A       21.8970   -4.0940    0.5570 O.2   360  GDP360     -0.5169
      8  O2A       22.0280   -3.7830    3.0200 O.3   360  GDP360     -0.4370
      9  O5'       21.8300   -1.7820    1.4560 O.3   360  GDP360     -0.3111
     10  C5'       22.3970   -0.6490    2.1270 C.3   360  GDP360      0.1813
     11  C4'       21.3350    0.3850    2.4860 C.3   360  GDP360      0.1799
     12  O4'       21.2520    1.3400    1.4280 O.3   360  GDP360     -0.3326
     13  C3'       19.9400   -0.2140    2.6740 C.3   360  GDP360      0.2158
     14  O3'       19.3190    0.3200    3.8390 O.3   360  GDP360     -0.2175
     15  C2'       19.1430    0.1910    1.4600 C.3   360  GDP360      0.2310
     16  O2'       17.8270    0.6140    1.8180 O.3   360  GDP360     -0.2158
     17  C1'       19.9310    1.3500    0.8770 C.3   360  GDP360      0.2293
     18  N9        20.0500    1.2530   -0.5880 N.pl3 360  GDP360     -0.2354
     19  C8        20.6510    0.2760   -1.2880 C.3   360  GDP360      0.2246
     20  N7        20.5770    0.5390   -2.6190 N.2   360  GDP360     -0.2322
     21  C5        19.9280    1.7010   -2.7710 C.2   360  GDP360      0.2182
     22  C6        19.5070    2.5530   -3.8970 C.1   360  GDP360      0.2372
     23  O6        19.7620    2.2240   -5.0720 O.2   360  GDP360     -0.2069
     24  N1        18.8480    3.6850   -3.6200 N.2   360  GDP360     -0.2485
     25  C2        18.5550    4.0680   -2.3610 C.1   360  GDP360      0.2531
     26  N2        17.8860    5.2230   -2.1470 N.pl3 360  GDP360     -0.0226
     27  N3        18.9050    3.3320   -1.2770 N.2   360  GDP360     -0.3074
     28  C4        19.5820    2.1680   -1.4260 C.2   360  GDP360      0.2300
@<TRIPOS>BOND
     1    23    22    2
     2    22    24    2
     3    22    21    1
     4    24    25    2
     5    21    20    2
     6    21    28    1
     7    20    19    1
     8    25    26    1
     9    25    27    2
    10    28    27    2
    11    28    18    1
    12    19    18    1
    13    18    17    1
    14     2     1    2
    15     7     6    2
    16    17    12    1
    17    17    15    1
    18    12    11    1
    19     9     6    1
    20     9    10    1
    21    15    16    1
    22    15    13    1
    23     3     1    1
    24     5     6    1
    25     5     1    1
    26     6     8    1
    27     1     4    1
    28    10    11    1
    29    11    13    1
    30    13    14    1
