@<TRIPOS>MOLECULE
2rgp_HYZ_A_1.pdb
 33 37 0 0 0
SMALL
GASTEIGER

@<TRIPOS>ATOM
      1  C1        14.7180   40.1160   97.0990 C.ar    1  HYZ1        0.0296
      2  C2        16.0310   40.2220   97.6320 C.ar    1  HYZ1        0.0020
      3  C3        16.8780   39.0760   97.6860 C.ar    1  HYZ1       -0.0022
      4  N6        13.9670   33.2580   86.9490 N.pl3   1  HYZ1        0.2114
      5  C7        17.3230   36.5580   97.2600 C.3     1  HYZ1        0.1538
      6  C8        15.5850   33.7600   95.9940 C.ar    1  HYZ1        0.1217
      7  C9        16.0750   34.2210   94.7560 C.ar    1  HYZ1        0.0417
      8  C10       16.8400   35.3580   95.0700 C.ar    1  HYZ1        0.0800
      9  C11       17.5140   36.1290   94.0760 C.ar    1  HYZ1        0.0224
     10  C12       17.3900   35.7120   92.7350 C.ar    1  HYZ1        0.0459
     11  C13       16.6250   34.5740   92.3820 C.ar    1  HYZ1        0.1832
     12  C14       15.9650   33.8170   93.4030 C.ar    1  HYZ1        0.0475
     13  C15       14.1240   33.6450   88.2640 C.2     1  HYZ1        0.4038
     14  C16       15.3910   33.7190   88.8960 C.3     1  HYZ1        0.2414
     15  C19       16.6440   33.3950   88.1860 C.3     1  HYZ1        0.1327
     16  C20       19.5090   31.9970   84.8580 C.3     1  HYZ1        0.0189
     17  C21       18.1270   31.9340   85.5370 C.3     1  HYZ1        0.0901
     18  C22       19.1670   31.5240   87.7400 C.3     1  HYZ1        0.0901
     19  C24       20.5540   31.1900   85.6350 C.3     1  HYZ1        0.0030
     20  C4        16.4190   37.8080   97.2090 C.ar    1  HYZ1        0.0043
     21  C5        15.0830   37.7300   96.6750 C.ar    1  HYZ1        0.0273
     22  C6        14.2560   38.8690   96.6250 C.ar    1  HYZ1        0.1399
     23  F1        13.0110   38.7560   96.1180 F       1  HYZ1       -0.2042
     24  N1        16.7310   35.4930   96.4340 N.ar    1  HYZ1       -0.2464
     25  N2        15.9710   34.5190   97.0190 N.ar    1  HYZ1       -0.1674
     26  N3        16.5250   34.2480   91.0370 N.pl3   1  HYZ1       -0.0094
     27  N4        12.9540   33.9630   88.9110 N.2     1  HYZ1       -0.0030
     28  C17       15.3910   34.1200   90.2310 C.2     1  HYZ1        0.3546
     29  N5        14.2120   34.4440   90.8920 N.2     1  HYZ1       -0.0072
     30  C18       13.0410   34.3520   90.2010 C.3     1  HYZ1        0.5249
     31  N7        16.9000   32.2900   87.5590 N.3     1  HYZ1       -0.1456
     32  N8        18.1460   32.3440   86.9840 N.3     1  HYZ1       -0.2039
     33  C23       20.5730   31.5960   87.1120 C.3     1  HYZ1        0.0189
@<TRIPOS>BOND
     1    16    17    1
     2    16    19    1
     3    17    32    1
     4    19    33    1
     5     4    13    1
     6    32    31    1
     7    32    18    1
     8    33    18    1
     9    31    15    1
    10    15    14    1
    11    13    14    1
    12    13    27    2
    13    14    28    1
    14    27    30    1
    15    30    29    1
    16    28    29    2
    17    28    26    1
    18    26    11    1
    19    11    10   ar
    20    11    12   ar
    21    10     9   ar
    22    12     7   ar
    23     9     8   ar
    24     7     8   ar
    25     7     6   ar
    26     8    24   ar
    27     6    25   ar
    28    23    22    1
    29    24    25   ar
    30    24     5    1
    31    22    21   ar
    32    22     1   ar
    33    21    20   ar
    34     1     2   ar
    35    20     5    1
    36    20     3   ar
    37     2     3   ar
