@<TRIPOS>MOLECULE
2rgs_FUC_B_1.pdb
 10 10 0 0 0
SMALL
GASTEIGER

@<TRIPOS>ATOM
      1  C1        39.4480  -22.4690   12.6300 C.3   602  FUC602      0.1776
      2  C2        38.3420  -21.6260   12.0280 C.3   602  FUC602      0.2141
      3  C3        38.9450  -20.5260   11.1570 C.3   602  FUC602      0.2172
      4  C4        39.8680  -21.1160   10.1000 C.3   602  FUC602      0.2116
      5  C5        40.8990  -22.0180   10.7930 C.3   602  FUC602      0.1483
      6  C6        41.8200  -22.7230    9.8060 C.3   602  FUC602      0.0349
      7  O2        37.5710  -21.0610   13.0690 O.3   602  FUC602     -0.2176
      8  O3        37.9280  -19.7910   10.5170 O.3   602  FUC602     -0.2175
      9  O4        39.0550  -21.8660    9.2340 O.3   602  FUC602     -0.2177
     10  O5        40.2390  -22.9950   11.5860 O.3   602  FUC602     -0.3508
@<TRIPOS>BOND
     1     9     4    1
     2     6     5    1
     3     4     5    1
     4     4     3    1
     5     8     3    1
     6     5    10    1
     7     3     2    1
     8    10     1    1
     9     2     1    1
    10     2     7    1
