@<TRIPOS>MOLECULE
2rgs_MAN_A_1.pdb
 11 11 0 0 0
SMALL
GASTEIGER

@<TRIPOS>ATOM
      1  C1        38.3510   -5.5440   19.3100 C.3   604  MAN604      0.1777
      2  C2        38.5920   -7.0330   19.0300 C.3   604  MAN604      0.2141
      3  C3        38.3720   -7.3380   17.5460 C.3   604  MAN604      0.2173
      4  C4        37.0220   -6.8140   17.0730 C.3   604  MAN604      0.2142
      5  C5        36.8080   -5.3530   17.5030 C.3   604  MAN604      0.1810
      6  C6        35.3650   -4.8590   17.2630 C.3   604  MAN604      0.2141
      7  O2        37.6870   -7.7970   19.8000 O.3   604  MAN604     -0.2176
      8  O3        38.4490   -8.7280   17.3100 O.3   604  MAN604     -0.2175
      9  O4        36.9630   -6.9560   15.6680 O.3   604  MAN604     -0.2176
     10  O5        37.0560   -5.2120   18.8860 O.3   604  MAN604     -0.3481
     11  O6        35.3710   -3.4820   17.5890 O.3   604  MAN604     -0.2176
@<TRIPOS>BOND
     1     9     4    1
     2     4     5    1
     3     4     3    1
     4     6     5    1
     5     6    11    1
     6     8     3    1
     7     5    10    1
     8     3     2    1
     9    10     1    1
    10     2     1    1
    11     2     7    1
