@<TRIPOS>MOLECULE
2rgs_GAL_A_1.pdb
 11 11 0 0 0
SMALL
GASTEIGER

@<TRIPOS>ATOM
      1  C1        33.5010    3.2990   11.8340 C.3   607  GAL607      0.1777
      2  C2        33.7300    3.5080   10.3270 C.3   607  GAL607      0.2141
      3  C3        33.6000    5.0010   10.0120 C.3   607  GAL607      0.2173
      4  C4        32.3430    5.6390   10.6110 C.3   607  GAL607      0.2142
      5  C5        32.1680    5.2740   12.0890 C.3   607  GAL607      0.1810
      6  C6        30.8040    5.6980   12.6270 C.3   607  GAL607      0.2141
      7  O2        34.9860    3.0090    9.8910 O.3   607  GAL607     -0.2176
      8  O3        33.5480    5.1690    8.6260 O.3   607  GAL607     -0.2175
      9  O4        31.2460    5.1880    9.8630 O.3   607  GAL607     -0.2176
     10  O5        32.2520    3.8720   12.1790 O.3   607  GAL607     -0.3481
     11  O6        30.9410    5.8910   14.0090 O.3   607  GAL607     -0.2176
@<TRIPOS>BOND
     1     8     3    1
     2     9     4    1
     3     7     2    1
     4     3     2    1
     5     3     4    1
     6     2     1    1
     7     4     5    1
     8     1    10    1
     9     5    10    1
    10     5     6    1
    11     6    11    1
