@<TRIPOS>MOLECULE
2rgu_356_A_1.pdb
 35 39 0 0 0
SMALL
GASTEIGER

@<TRIPOS>ATOM
      1  C1        49.4690   47.4300   35.4360 C.3   901  356901      0.2219
      2  N2        48.1320   47.7200   35.8280 N.pl3 901  356901     -0.2463
      3  C3        49.5620   47.8030   34.0770 C.2   901  356901      0.1973
      4  C4        50.6500   46.8890   36.0520 C.2   901  356901      0.2600
      5  C5        47.5710   48.3050   34.6930 C.cat 901  356901      0.2440
      6  C6        47.4490   47.4650   37.1480 C.3   901  356901      0.1719
      7  N7        48.4260   48.3150   33.7200 N.2   901  356901     -0.3599
      8  N8        50.7390   47.6040   33.3630 N.am  901  356901     -0.2178
      9  N9        51.8100   46.7430   35.2970 N.am  901  356901     -0.1956
     10  O10       50.6290   46.5710   37.2360 O.2   901  356901     -0.2721
     11  N11       46.3270   48.8430   34.5060 N.pl3 901  356901     -0.2701
     12  C12       47.7600   48.3300   38.2790 C.1   901  356901     -0.0687
     13  C13       51.8330   47.0890   33.9690 C.2   901  356901      0.3193
     14  C14       50.7730   47.9600   31.9220 C.3   901  356901      0.1239
     15  C15       53.0530   46.2020   35.9300 C.3   901  356901      0.2273
     16  C16       45.7830   49.7390   35.5090 C.3   901  356901      0.1133
     17  C17       45.4010   48.3450   33.5390 C.3   901  356901      0.0945
     18  C18       47.9460   48.9710   39.2330 C.1   901  356901     -0.0883
     19  O19       52.8580   46.9300   33.3080 O.2   901  356901     -0.2515
     20  C20       54.1340   47.2770   35.8150 C.1   901  356901      0.1337
     21  C21       45.7360   51.0680   34.7710 C.3   901  356901      0.1117
     22  C22       45.0410   49.6040   32.6770 C.3   901  356901      0.0231
     23  C23       48.1510   49.7500   40.4490 C.3   901  356901      0.0900
     24  N24       53.7480   48.5430   35.9010 N.2   901  356901     -0.3458
     25  N25       55.4120   46.9270   35.6130 N.2   901  356901     -0.3501
     26  C26       44.7760   50.9180   33.5430 C.3   901  356901      0.0225
     27  N27       45.2640   52.1000   35.6950 N.3   901  356901     -0.1311
     28  C28       54.6250   49.5510   35.7880 C.2   901  356901      0.1312
     29  C29       56.3930   47.8390   35.4830 C.2   901  356901      0.1096
     30  C30       56.0370   49.2360   35.5610 C.3   901  356901      0.1240
     31  C31       54.2130   50.9030   35.8790 C.2   901  356901      0.0292
     32  C32       57.8260   47.3980   35.2610 C.3   901  356901      0.0633
     33  C33       56.9820   50.3030   35.4330 C.2   901  356901     -0.0127
     34  C34       55.1580   51.9180   35.7520 C.2   901  356901      0.0020
     35  C35       56.5370   51.6180   35.5280 C.2   901  356901     -0.0037
@<TRIPOS>BOND
     1    14     8    1
     2    22    17    1
     3    22    26    1
     4    19    13    2
     5     8    13   am
     6     8     3    1
     7    17    11    1
     8    26    21    1
     9     7     3    2
    10     7     5    2
    11    13     9   am
    12     3     1    1
    13    11     5    1
    14    11    16    1
    15     5     2    1
    16    21    16    1
    17    21    27    1
    18    32    29    1
    19     9    15    1
    20     9     4   am
    21    33    35    2
    22    33    30    1
    23     1     2    1
    24     1     4    1
    25    29    30    1
    26    29    25    2
    27    35    34    1
    28    30    28    1
    29    25    20    2
    30    34    31    2
    31    28    31    1
    32    28    24    2
    33    20    24    2
    34    20    15    1
    35     2     6    1
    36     4    10    2
    37     6    12    1
    38    12    18    3
    39    18    23    1
