@<TRIPOS>MOLECULE
2rgu_NAG_A_1.pdb
 15 15 0 0 0
SMALL
GASTEIGER

@<TRIPOS>ATOM
      1  C1        56.4160   61.8040   -6.5410 C.3   794  NAG794      0.2917
      2  C2        55.6530   62.9250   -5.8140 C.3   794  NAG794      0.1871
      3  C3        54.3780   63.3380   -6.5720 C.3   794  NAG794      0.2095
      4  C4        54.6140   63.4730   -8.0800 C.3   794  NAG794      0.2136
      5  C5        55.3410   62.2410   -8.6090 C.3   794  NAG794      0.1835
      6  C6        55.6430   62.3280  -10.0890 C.3   794  NAG794      0.2142
      7  C7        55.9790   62.8350   -3.4080 C.2   794  NAG794      0.2421
      8  C8        55.5010   62.3080   -2.0650 C.3   794  NAG794      0.0964
      9  N2        55.2800   62.4710   -4.4830 N.am  794  NAG794     -0.1991
     10  O1        57.6690   61.6480   -5.9700 O.3   794  NAG794     -0.1879
     11  O3        53.9150   64.5830   -6.0650 O.3   794  NAG794     -0.2183
     12  O4        53.3680   63.6150   -8.7490 O.3   794  NAG794     -0.2176
     13  O5        56.5940   62.1030   -7.9260 O.3   794  NAG794     -0.3242
     14  O6        56.7840   63.1380  -10.3290 O.3   794  NAG794     -0.2176
     15  O7        56.9740   63.5610   -3.4580 O.2   794  NAG794     -0.2733
@<TRIPOS>BOND
     1    14     6    1
     2     6     5    1
     3    12     4    1
     4     5     4    1
     5     5    13    1
     6     4     3    1
     7    13     1    1
     8     3    11    1
     9     3     2    1
    10     1    10    1
    11     1     2    1
    12     2     9    1
    13     9     7   am
    14    15     7    2
    15     7     8    1
