@<TRIPOS>MOLECULE
2rgz_HEM_A_1.pdb
 43 50 0 0 0
SMALL
GASTEIGER

@<TRIPOS>ATOM
      1  CHA       20.7030   27.5480   15.7300 C.2   300  HEM300      0.0000
      2  CHB       23.9350   31.0080   16.3890 C.2   300  HEM300      0.0000
      3  CHC       27.3040   28.2170   14.4210 C.2   300  HEM300      0.0000
      4  CHD       24.1080   24.6480   14.0310 C.2   300  HEM300      0.0000
      5  C1A       21.2990   28.7390   16.0820 C.2   300  HEM300      0.0000
      6  C2A       20.6040   29.8100   16.7610 C.2   300  HEM300      0.0000
      7  C3A       21.5080   30.7960   16.9200 C.2   300  HEM300      0.0000
      8  C4A       22.7590   30.3020   16.3780 C.2   300  HEM300      0.0000
      9  CMA       21.2730   32.1340   17.6020 C.3   300  HEM300      0.0000
     10  CAA       19.2330   29.7090   17.4230 C.3   300  HEM300      0.0000
     11  CBA       18.0830   29.8950   16.4570 C.3   300  HEM300      0.0000
     12  CGA       16.8000   29.2080   16.9170 C.2   300  HEM300      0.0000
     13  O1A       15.7130   29.5700   16.3960 O.co2 300  HEM300      0.0000
     14  O2A       16.8850   28.3010   17.7850 O.co2 300  HEM300      0.0000
     15  C1B       25.1420   30.5470   15.9110 C.ar  300  HEM300      0.0000
     16  C2B       26.3610   31.3270   15.9130 C.ar  300  HEM300      0.0000
     17  C3B       27.3140   30.5480   15.3340 C.ar  300  HEM300      0.0000
     18  C4B       26.6620   29.2960   14.9980 C.ar  300  HEM300      0.0000
     19  CMB       26.5330   32.7300   16.4880 C.3   300  HEM300      0.0000
     20  CAB       28.6600   30.8560   15.1180 C.3   300  HEM300      0.0000
     21  CBB       29.2790   32.0700   15.6130 C.3   300  HEM300      0.0000
     22  C1C       26.7180   26.9960   14.1360 C.2   300  HEM300      0.0000
     23  C2C       27.4430   25.8590   13.6310 C.2   300  HEM300      0.0000
     24  C3C       26.5480   24.8310   13.5570 C.2   300  HEM300      0.0000
     25  C4C       25.2790   25.3660   14.0040 C.2   300  HEM300      0.0000
     26  CMC       28.9310   25.8160   13.3170 C.3   300  HEM300      0.0000
     27  CAC       26.8150   23.5040   13.2310 C.3   300  HEM300      0.0000
     28  CBC       27.7560   23.1370   12.1930 C.3   300  HEM300      0.0000
     29  C1D       22.8880   25.1430   14.4270 C.ar  300  HEM300      0.0000
     30  C2D       21.6640   24.3630   14.4890 C.ar  300  HEM300      0.0000
     31  C3D       20.7120   25.2000   14.9320 C.ar  300  HEM300      0.0000
     32  C4D       21.3440   26.4730   15.1580 C.ar  300  HEM300      0.0000
     33  CMD       21.5050   22.8690   14.2410 C.3   300  HEM300      0.0000
     34  CAD       19.2600   24.8670   15.1980 C.3   300  HEM300      0.0000
     35  CBD       18.9790   24.5310   16.6570 C.3   300  HEM300      0.0000
     36  CGD       17.5150   24.2480   16.8910 C.2   300  HEM300      0.0000
     37  O1D       16.7090   25.1910   16.7200 O.co2 300  HEM300      0.0000
     38  O2D       17.1670   23.0880   17.2270 O.co2 300  HEM300      0.0000
     39  NA        22.6260   29.0320   15.8730 N.2   300  HEM300      0.0000
     40  NB        25.3300   29.2970   15.3600 N.ar  300  HEM300      0.0000
     41  NC        25.3880   26.6930   14.3750 N.2   300  HEM300      0.0000
     42  ND        22.6810   26.4420   14.8550 N.ar  300  HEM300      0.0000
     43 FE         24.0160   27.8420   15.1700 Fe    300  HEM300      0.0000
@<TRIPOS>BOND
     1    28    27    1
     2    27    24    1
     3    26    23    1
     4    24    23    2
     5    24    25    1
     6    23    22    1
     7    25     4    1
     8    25    41    2
     9     4    29    2
    10    22    41    1
    11    22     3    2
    12    33    30    1
    13    41    43    1
    14     3    18    1
    15    29    30   ar
    16    29    42   ar
    17    30    31   ar
    18    42    32   ar
    19    42    43    1
    20    31    32   ar
    21    31    34    1
    22    18    17   ar
    23    18    40   ar
    24    20    17    1
    25    20    21    1
    26    32     1    2
    27    43    40    1
    28    43    39    1
    29    34    35    1
    30    17    16   ar
    31    40    15   ar
    32     1     5    1
    33    39     5    2
    34    39     8    1
    35    15    16   ar
    36    15     2    1
    37    16    19    1
    38     5     6    1
    39     8     2    2
    40     8     7    1
    41    13    12   ar
    42    11    12    1
    43    11    10    1
    44    35    36    1
    45    37    36   ar
    46     6     7    2
    47     6    10    1
    48    36    38   ar
    49    12    14   ar
    50     7     9    1
