@<TRIPOS>MOLECULE
2rh1_MAL_A_1.pdb
 23 24 0 0 0
SMALL
GASTEIGER

@<TRIPOS>ATOM
      1  C1       -30.4330   67.5510   22.6040 C.3   401  MAL401      0.2695
      2  C2       -29.5080   68.2710   21.6130 C.3   401  MAL401      0.2406
      3  C3       -28.2860   67.4660   21.2500 C.3   401  MAL401      0.2198
      4  C4       -27.4370   67.7740   22.4750 C.3   401  MAL401      0.2144
      5  C5       -28.2220   67.3260   23.7420 C.3   401  MAL401      0.1835
      6  C6       -27.4670   67.8210   24.9970 C.3   401  MAL401      0.2142
      7  O1       -30.8600   66.1520   22.4810 O.3   401  MAL401     -0.3257
      8  O2       -30.1960   68.8960   20.4300 O.3   401  MAL401     -0.2149
      9  O3       -27.6920   67.9230   20.0420 O.3   401  MAL401     -0.2174
     10  O4       -26.1510   67.1330   22.4170 O.3   401  MAL401     -0.2176
     11  O5       -29.6400   67.7230   23.7960 O.3   401  MAL401     -0.3256
     12  O6       -28.3290   68.1910   26.0910 O.3   401  MAL401     -0.2176
     13  C1'      -34.2250   64.3650   24.5550 C.3   401  MAL401      0.3023
     14  C2'      -34.0620   65.8750   24.6950 C.3   401  MAL401      0.2433
     15  C3'      -33.0530   66.4970   23.7320 C.3   401  MAL401      0.2168
     16  C4'      -31.7730   65.6530   23.5330 C.3   401  MAL401      0.1804
     17  C5'      -32.1920   64.1690   23.3290 C.3   401  MAL401      0.1804
     18  C6'      -31.0440   63.1640   23.1540 C.3   401  MAL401      0.2141
     19  O1'      -34.9050   63.8500   25.7050 O.3   401  MAL401     -0.1869
     20  O2'      -35.3280   66.5100   24.4630 O.3   401  MAL401     -0.2148
     21  O3'      -32.8030   67.7710   24.3460 O.3   401  MAL401     -0.2175
     22  O5'      -32.9510   63.7370   24.4670 O.3   401  MAL401     -0.3237
     23  O6'      -31.3190   61.8890   23.7810 O.3   401  MAL401     -0.2176
@<TRIPOS>BOND
     1     9     3    1
     2     8     2    1
     3     3     2    1
     4     3     4    1
     5     2     1    1
     6    10     4    1
     7     4     5    1
     8     7     1    1
     9     7    16    1
    10     1    11    1
    11    18    17    1
    12    18    23    1
    13    17    16    1
    14    17    22    1
    15    16    15    1
    16    15    21    1
    17    15    14    1
    18     5    11    1
    19     5     6    1
    20    20    14    1
    21    22    13    1
    22    13    14    1
    23    13    19    1
    24     6    12    1
