@<TRIPOS>MOLECULE
2rh1_CAU_A_1.pdb
 22 24 0 0 0
SMALL
GASTEIGER

@<TRIPOS>ATOM
      1  O17      -33.4770   10.9570    8.1700 O.3   408  CAU408     -0.2176
      2  C16      -32.2670   10.2300    8.0410 C.3   408  CAU408      0.2126
      3  C18      -32.4780    8.9510    7.2250 C.3   408  CAU408      0.1253
      4  N19      -33.7020    8.2500    7.6000 N.3   408  CAU408     -0.2167
      5  C20      -33.8060    6.8050    7.4980 C.3   408  CAU408      0.0730
      6  C21      -33.5330    6.3850    6.0550 C.3   408  CAU408      0.0188
      7  C22      -35.1840    6.3500    7.9880 C.3   408  CAU408      0.0188
      8  C15      -31.2420   11.1050    7.3640 C.3   408  CAU408      0.2395
      9  O14      -30.0490   10.3670    7.1820 O.3   408  CAU408     -0.4726
     10  C13      -28.9310   10.8570    6.5810 C.ar  408  CAU408      0.1411
     11  C12      -28.9110   12.1330    6.0050 C.ar  408  CAU408      0.0371
     12  C11      -27.7680   12.6280    5.3930 C.ar  408  CAU408      0.0057
     13  C10      -26.6080   11.8750    5.3320 C.ar  408  CAU408      0.0322
     14  C8       -26.5650   10.6250    5.8750 C.ar  408  CAU408      0.1344
     15  C9       -27.7680   10.1080    6.5170 C.ar  408  CAU408      0.0660
     16  N7       -25.5930    9.6570    5.9740 N.2   408  CAU408     -0.4018
     17  C3       -26.0960    8.5610    6.6370 C.ar  408  CAU408      0.1315
     18  C4       -27.4820    8.8630    6.9760 C.ar  408  CAU408      0.0350
     19  C2       -25.5890    7.3380    7.0090 C.ar  408  CAU408      0.0320
     20  C1       -26.3950    6.4320    7.6890 C.ar  408  CAU408      0.0026
     21  C6       -27.7170    6.7310    8.0060 C.ar  408  CAU408      0.0002
     22  C5       -28.2690    7.9480    7.6520 C.ar  408  CAU408      0.0027
@<TRIPOS>BOND
     1    13    12   ar
     2    13    14   ar
     3    12    11   ar
     4    14    16    2
     5    14    15   ar
     6    16    17    2
     7    11    10   ar
     8     6     5    1
     9    15    10   ar
    10    15    18    2
    11    10     9    1
    12    17    18   ar
    13    17    19   ar
    14    18    22   ar
    15    19    20   ar
    16     9     8    1
    17     3     4    1
    18     3     2    1
    19     8     2    1
    20     5     4    1
    21     5     7    1
    22    22    21   ar
    23    20    21   ar
    24     2     1    1
