@<TRIPOS>MOLECULE
2rh1_CLR_A_1.pdb
 28 31 0 0 0
SMALL
GASTEIGER

@<TRIPOS>ATOM
      1  C1       -36.2920   27.6530   -4.3520 C.3   412  CLR412      0.0063
      2  C2       -36.5710   29.1330   -4.5910 C.3   412  CLR412      0.0335
      3  C3       -35.4250   29.7930   -5.3540 C.3   412  CLR412      0.1560
      4  C4       -34.9650   29.0380   -6.6270 C.3   412  CLR412      0.0545
      5  C5       -35.0010   27.5150   -6.5130 C.2   412  CLR412     -0.0466
      6  C6       -34.0880   26.7850   -7.2090 C.2   412  CLR412     -0.0345
      7  C7       -34.0170   25.2590   -7.2040 C.3   412  CLR412      0.0254
      8  C8       -35.2750   24.6310   -6.6330 C.3   412  CLR412      0.0046
      9  C9       -35.6510   25.3770   -5.3370 C.3   412  CLR412      0.0038
     10  C10      -36.0500   26.8460   -5.6450 C.3   412  CLR412      0.0150
     11  C11      -36.7070   24.6550   -4.4660 C.3   412  CLR412      0.0003
     12  C12      -36.5360   23.1430   -4.3650 C.3   412  CLR412      0.0000
     13  C13      -36.3290   22.4950   -5.7190 C.3   412  CLR412      0.0000
     14  C14      -35.1000   23.1380   -6.3530 C.3   412  CLR412      0.0003
     15  C15      -34.7820   22.2370   -7.5420 C.3   412  CLR412      0.0000
     16  C16      -35.2170   20.8370   -7.0810 C.3   412  CLR412      0.0000
     17  C17      -35.9950   21.0000   -5.7580 C.3   412  CLR412      0.0000
     18  C18      -37.5620   22.7260   -6.5710 C.3   412  CLR412      0.0000
     19  C19      -37.2680   26.9360   -6.5120 C.3   412  CLR412      0.0040
     20  C20      -37.1440   19.9610   -5.6320 C.3   412  CLR412      0.0000
     21  C21      -38.0320   20.1870   -4.4060 C.3   412  CLR412      0.0000
     22  C22      -36.5610   18.5380   -5.6570 C.3   412  CLR412      0.0000
     23  C23      -37.4370   17.4570   -5.0120 C.3   412  CLR412      0.0000
     24  C24      -36.7480   16.0940   -5.0990 C.3   412  CLR412      0.0000
     25  C25      -37.5350   15.0140   -5.8530 C.3   412  CLR412      0.0000
     26  C26      -36.5710   14.0800   -6.5910 C.3   412  CLR412      0.0000
     27  C27      -38.4020   14.1920   -4.8990 C.3   412  CLR412      0.0000
     28  O1       -35.8280   31.1580   -5.6640 O.3   412  CLR412     -0.2228
@<TRIPOS>BOND
     1    15    16    1
     2    15    14    1
     3     6     7    1
     4     6     5    2
     5     7     8    1
     6    16    17    1
     7     8    14    1
     8     8     9    1
     9     4     5    1
    10     4     3    1
    11    26    25    1
    12    18    13    1
    13     5    10    1
    14    19    10    1
    15    14    13    1
    16    25    24    1
    17    25    27    1
    18    17    13    1
    19    17    20    1
    20    13    12    1
    21    28     3    1
    22    22    20    1
    23    22    23    1
    24    10     9    1
    25    10     1    1
    26    20    21    1
    27     3     2    1
    28     9    11    1
    29    24    23    1
    30     2     1    1
    31    11    12    1
