@<TRIPOS>MOLECULE
2rh6_AMP_A_1.pdb
 23 25 0 0 0
SMALL
GASTEIGER

@<TRIPOS>ATOM
      1  P         28.8330   44.3910   23.0590 P.3   433  AMP433      0.5327
      2  O1P       27.6160   44.6900   23.9170 O.3   433  AMP433     -0.1145
      3  O2P       29.5790   43.1300   23.5410 O.3   433  AMP433     -0.1145
      4  O3P       29.6590   45.6150   22.7610 O.2   433  AMP433     -0.2224
      5  O5'       28.2570   43.9550   21.6050 O.3   433  AMP433     -0.2675
      6  C5'       26.9660   44.3890   21.1720 C.3   433  AMP433      0.1860
      7  C4'       26.9410   44.6050   19.6670 C.3   433  AMP433      0.1823
      8  O4'       26.6710   43.3460   19.0410 O.3   433  AMP433     -0.3135
      9  C3'       25.8270   45.5700   19.2580 C.3   433  AMP433      0.2184
     10  O3'       26.3220   46.6820   18.4950 O.3   433  AMP433     -0.2174
     11  C2'       24.8590   44.7640   18.4230 C.3   433  AMP433      0.2570
     12  O2'       24.4890   45.4830   17.2380 O.3   433  AMP433     -0.2130
     13  C1'       25.5880   43.4550   18.1060 C.3   433  AMP433      0.3186
     14  N9        24.6640   42.2860   18.1800 N.pl3 433  AMP433     -0.1439
     15  C8        23.6880   42.1110   19.0900 C.3   433  AMP433      0.3377
     16  N7        23.0000   40.9600   18.8890 N.2   433  AMP433     -0.2095
     17  C5        23.5420   40.3730   17.8160 C.2   433  AMP433      0.2526
     18  C6        23.2850   39.1230   17.0770 C.2   433  AMP433      0.4393
     19  N6        22.2910   38.2890   17.4740 N.pl3 433  AMP433      0.2180
     20  N1        24.0730   38.8640   16.0140 N.2   433  AMP433      0.0021
     21  C2        25.0630   39.7000   15.6200 C.3   433  AMP433      0.5254
     22  N3        25.3470   40.8570   16.2530 N.2   433  AMP433     -0.0055
     23  C4        24.6380   41.2410   17.3460 C.2   433  AMP433      0.3518
@<TRIPOS>BOND
     1    21    20    1
     2    21    22    1
     3    20    18    2
     4    22    23    2
     5    18    19    1
     6    18    17    1
     7    12    11    1
     8    23    17    1
     9    23    14    1
    10    17    16    2
    11    13    14    1
    12    13    11    1
    13    13     8    1
    14    14    15    1
    15    11     9    1
    16    10     9    1
    17    16    15    1
    18     8     7    1
    19     9     7    1
    20     7     6    1
    21     6     5    1
    22     5     1    1
    23     4     1    2
    24     1     3    1
    25     1     2    1
