@<TRIPOS>MOLECULE
2rh9_PLP_B_1.pdb
 15 15 0 0 0
SMALL
GASTEIGER

@<TRIPOS>ATOM
      1  N1        84.5050   13.8340   11.8560 N.2   399  PLP399     -0.2458
      2  C2        84.3480   14.2750   10.5710 C.2   399  PLP399      0.0942
      3  C2A       85.5200   14.1150    9.6630 C.3   399  PLP399      0.0552
      4  C3        83.1390   14.8580   10.1470 C.2   399  PLP399      0.1899
      5  O3        83.0030   15.2480    8.9670 O.2   399  PLP399     -0.2898
      6  C4        82.0810   15.0020   11.0550 C.3   399  PLP399      0.0852
      7  C4A       80.7750   15.6000   10.5730 C.3   399  PLP399      0.0127
      8  C5        82.2750   14.5380   12.3850 C.2   399  PLP399      0.0118
      9  C6        83.4830   13.9520   12.7560 C.2   399  PLP399      0.0929
     10  C5A       81.2400   14.6400   13.4730 C.3   399  PLP399      0.1779
     11  O4P       79.9800   13.9720   13.2810 O.3   399  PLP399     -0.2656
     12  P         79.7660   12.5410   13.9190 P.3   399  PLP399      0.5329
     13  O1P       78.3820   12.2320   13.5130 O.3   399  PLP399     -0.1145
     14  O2P       79.8640   12.7430   15.4030 O.3   399  PLP399     -0.1145
     15  O3P       80.7660   11.5860   13.4070 O.2   399  PLP399     -0.2224
@<TRIPOS>BOND
     1     5     4    2
     2     3     2    1
     3     4     2    1
     4     4     6    1
     5     2     1    2
     6     7     6    1
     7     6     8    1
     8     1     9    1
     9     8     9    2
    10     8    10    1
    11    11    10    1
    12    11    12    1
    13    15    12    2
    14    13    12    1
    15    12    14    1
