@<TRIPOS>MOLECULE
2rh9_IGP_A_1.pdb
 19 20 0 0 0
SMALL
GASTEIGER

@<TRIPOS>ATOM
      1  C1        47.6900   28.2680   12.1480 C.3   269  IGP269      0.1895
      2  P         48.0520   29.2930    9.7650 P.3   269  IGP269      0.5327
      3  OP1       49.2540   30.0420   10.3150 O.3   269  IGP269     -0.1145
      4  OP2       46.7540   30.0900    9.8130 O.3   269  IGP269     -0.1145
      5  OP3       48.3190   28.6940    8.3960 O.2   269  IGP269     -0.2224
      6  OP4       47.8260   28.0270   10.7500 O.3   269  IGP269     -0.2674
      7  C2        48.9710   27.8000   12.8100 C.3   269  IGP269      0.2163
      8  O2        50.0400   28.6360   12.3470 O.3   269  IGP269     -0.2173
      9  C3        48.9330   27.8340   14.3450 C.3   269  IGP269      0.2084
     10  O3        47.7850   27.1370   14.8310 O.3   269  IGP269     -0.2154
     11  CG        50.2230   27.2240   14.7390 C.2   269  IGP269      0.0306
     12  CD2       50.5400   25.7940   14.6980 C.2   269  IGP269      0.0137
     13  CE2       51.9570   25.7770   15.1070 C.2   269  IGP269      0.0805
     14  CE3       49.8370   24.6340   14.4370 C.2   269  IGP269     -0.0201
     15  CD1       51.3460   27.9580   15.0800 C.2   269  IGP269      0.0971
     16  NE1       52.3570   27.0590   15.3080 N.2   269  IGP269     -0.2441
     17  CZ2       52.5770   24.5390   15.1970 C.2   269  IGP269      0.0148
     18  CZ3       50.5070   23.4190   14.5470 C.3   269  IGP269      0.0521
     19  CH2       51.8510   23.3710   14.9260 C.2   269  IGP269     -0.0199
@<TRIPOS>BOND
     1     5     2    2
     2     2     4    1
     3     2     3    1
     4     2     6    1
     5     6     1    1
     6     1     7    1
     7     8     7    1
     8     7     9    1
     9     9    11    1
    10     9    10    1
    11    14    18    1
    12    14    12    2
    13    18    19    1
    14    12    11    1
    15    12    13    1
    16    11    15    2
    17    19    17    2
    18    15    16    1
    19    13    17    1
    20    13    16    2
