@<TRIPOS>MOLECULE
2rhd_GDP_A_1.pdb
 28 30 0 0 0
SMALL
GASTEIGER

@<TRIPOS>ATOM
      1  PB        40.4770   26.5000   19.0000 P.3   3800  GDP3800     0.5373
      2  O1B       41.7890   25.7730   18.7950 O.3   3800  GDP3800    -0.1143
      3  O2B       40.6900   27.9710   18.8570 O.3   3800  GDP3800    -0.1143
      4  O3B       39.4760   25.9810   17.9900 O.2   3800  GDP3800    -0.2221
      5  O3A       39.9900   26.2490   20.5010 O.3   3800  GDP3800    -0.2261
      6  PA        38.8100   25.2730   21.0000 P.3   3800  GDP3800     0.2231
      7  O1A       37.4430   25.7720   20.6350 O.3   3800  GDP3800    -0.4370
      8  O2A       39.0870   23.8610   20.5770 O.2   3800  GDP3800    -0.5169
      9  O5'       38.9630   25.4450   22.5900 O.3   3800  GDP3800    -0.3111
     10  C5'       40.1190   24.9500   23.2720 C.3   3800  GDP3800     0.1813
     11  C4'       39.7410   24.5540   24.6970 C.3   3800  GDP3800     0.1799
     12  O4'       39.5020   25.7280   25.4500 O.3   3800  GDP3800    -0.3326
     13  C3'       38.4180   23.8000   24.7780 C.3   3800  GDP3800     0.2158
     14  O3'       38.6000   22.4030   24.6100 O.3   3800  GDP3800    -0.2175
     15  C2'       37.8680   24.1370   26.1390 C.3   3800  GDP3800     0.2310
     16  O2'       38.4660   23.2890   27.1160 O.3   3800  GDP3800    -0.2158
     17  C1'       38.4530   25.5100   26.4120 C.3   3800  GDP3800     0.2293
     18  N9        37.5000   26.6310   26.2580 N.pl3 3800  GDP3800    -0.2354
     19  C8        37.0260   27.1500   25.0980 C.3   3800  GDP3800     0.2246
     20  N7        36.2280   28.2070   25.3480 N.2   3800  GDP3800    -0.2322
     21  C5        36.1960   28.3880   26.6820 C.2   3800  GDP3800     0.2182
     22  C6        35.5330   29.3140   27.6160 C.1   3800  GDP3800     0.2372
     23  O6        34.7980   30.2210   27.1650 O.2   3800  GDP3800    -0.2069
     24  N1        35.7720   29.1660   28.9440 N.2   3800  GDP3800    -0.2485
     25  C2        36.5670   28.1750   29.4110 C.1   3800  GDP3800     0.2531
     26  N2        36.7770   28.0350   30.7300 N.pl3 3800  GDP3800    -0.0226
     27  N3        37.1920   27.2870   28.6060 N.2   3800  GDP3800    -0.3074
     28  C4        37.0460   27.3540   27.2710 C.2   3800  GDP3800     0.2300
@<TRIPOS>BOND
     1     4     1    2
     2     2     1    1
     3     3     1    1
     4     1     5    1
     5     5     6    1
     6     8     6    2
     7     7     6    1
     8     6     9    1
     9     9    10    1
    10    10    11    1
    11    14    13    1
    12    11    13    1
    13    11    12    1
    14    13    15    1
    15    19    20    1
    16    19    18    1
    17    20    21    2
    18    12    17    1
    19    15    17    1
    20    15    16    1
    21    18    17    1
    22    18    28    1
    23    21    28    1
    24    21    22    1
    25    23    22    2
    26    28    27    2
    27    22    24    2
    28    27    25    2
    29    24    25    2
    30    25    26    1
