@<TRIPOS>MOLECULE
2rhg_PLP_B_1.pdb
 15 15 0 0 0
SMALL
GASTEIGER

@<TRIPOS>ATOM
      1  N1        84.8130   13.8560   11.9560 N.ar  399  PLP399     -0.2452
      2  C2        84.8490   14.3600   10.6850 C.ar  399  PLP399      0.0978
      3  C2A       86.1460   14.2340    9.8450 C.3   399  PLP399      0.0555
      4  C3        83.7580   15.0280   10.1790 C.ar  399  PLP399      0.2049
      5  O3        83.7980   15.5510    8.8740 O.3   399  PLP399     -0.2857
      6  C4        82.6200   15.1580   10.9420 C.ar  399  PLP399      0.0182
      7  C4A       81.3470   15.9120   10.3340 C.3   399  PLP399      0.0342
      8  C5        82.5960   14.6570   12.2310 C.ar  399  PLP399      0.0261
      9  C6        83.6840   13.9870   12.7190 C.ar  399  PLP399      0.0965
     10  C5A       81.3360   14.8800   13.1770 C.3   399  PLP399      0.1815
     11  O4P       80.3700   13.8520   13.0980 O.3   399  PLP399     -0.2653
     12  P         80.0340   12.6370   13.9800 P.3   399  PLP399      0.5329
     13  O1P       80.2330   13.0380   15.4070 O.3   399  PLP399     -0.1145
     14  O2P       80.9970   11.6050   13.5120 O.2   399  PLP399     -0.2224
     15  O3P       78.6410   12.4660   13.5470 O.3   399  PLP399     -0.1145
@<TRIPOS>BOND
     1     5     4    1
     2     3     2    1
     3     4     2   ar
     4     4     6   ar
     5     7     6    1
     6     2     1   ar
     7     6     8   ar
     8     1     9   ar
     9     8     9   ar
    10     8    10    1
    11    11    10    1
    12    11    12    1
    13    14    12    2
    14    15    12    1
    15    12    13    1
