@<TRIPOS>MOLECULE
2rhg_IGP_A_1.pdb
 19 20 0 0 0
SMALL
GASTEIGER

@<TRIPOS>ATOM
      1  C1        47.9320   28.5370   12.3670 C.3   269  IGP269      0.1895
      2  P         48.1380   29.3540    9.8490 P.3   269  IGP269      0.5327
      3  OP1       49.4530   30.1380   10.2380 O.3   269  IGP269     -0.1145
      4  OP2       46.8840   30.3890    9.8360 O.3   269  IGP269     -0.1145
      5  OP3       48.1860   28.7860    8.4230 O.2   269  IGP269     -0.2224
      6  OP4       47.8100   28.2100   10.9230 O.3   269  IGP269     -0.2674
      7  C2        49.2310   27.9090   12.8950 C.3   269  IGP269      0.2163
      8  O2        50.3580   28.6520   12.4240 O.3   269  IGP269     -0.2173
      9  C3        49.2850   27.8380   14.4410 C.3   269  IGP269      0.2084
     10  O3        48.1650   27.0930   14.9850 O.3   269  IGP269     -0.2154
     11  CG        50.6200   27.1920   14.8430 C.2   269  IGP269      0.0306
     12  CD2       50.9850   25.7740   14.7900 C.2   269  IGP269      0.0137
     13  CE2       52.3220   25.7020   15.2610 C.2   269  IGP269      0.0805
     14  CE3       50.3330   24.5360   14.3270 C.2   269  IGP269     -0.0201
     15  CD1       51.6630   27.8430   15.3500 C.2   269  IGP269      0.0971
     16  NE1       52.7030   26.8970   15.6000 N.2   269  IGP269     -0.2441
     17  CZ2       53.0490   24.4790   15.3660 C.2   269  IGP269      0.0148
     18  CZ3       51.0960   23.2790   14.4380 C.3   269  IGP269      0.0521
     19  CH2       52.4270   23.2660   14.9360 C.2   269  IGP269     -0.0199
@<TRIPOS>BOND
     1     5     2    2
     2     4     2    1
     3     2     3    1
     4     2     6    1
     5     6     1    1
     6     1     7    1
     7     8     7    1
     8     7     9    1
     9    14    18    1
    10    14    12    2
    11    18    19    1
    12     9    11    1
    13     9    10    1
    14    12    11    1
    15    12    13    1
    16    11    15    2
    17    19    17    2
    18    13    17    1
    19    13    16    2
    20    15    16    1
