@<TRIPOS>MOLECULE
2rhi_III_B_1.pdb
 28 27 0 0 0
SMALL
GASTEIGER

@<TRIPOS>ATOM
      1  N        -18.2010   -3.7070   -6.5530 N.3    24  THR24      -0.1203
      2  CA       -16.7930   -3.6630   -6.0740 C.3    24  THR24       0.1994
      3  C        -16.7190   -3.5990   -4.5520 C.2    24  THR24       0.2618
      4  O        -17.5180   -2.9400   -3.8990 O.2    24  THR24      -0.2717
      5  CB       -16.0490   -2.4630   -6.6730 C.3    24  THR24       0.1784
      6  OG1      -16.2610   -1.3020   -5.8620 O.3    24  THR24      -0.2211
      7  CG2      -16.5670   -2.1800   -8.0860 C.3    24  THR24       0.0376
      8  N        -15.7290   -4.2930   -4.0030 N.am   25  LYS25      -0.1965
      9  CA       -15.5480   -4.3600   -2.5570 C.3    25  LYS25       0.1728
     10  C        -14.2980   -3.6600   -2.1170 C.2    25  LYS25       0.2617
     11  O        -13.3910   -3.3910   -2.8540 O.2    25  LYS25      -0.2715
     12  CB       -15.3830   -5.8220   -2.1260 C.3    25  LYS25       0.0311
     13  CG       -16.5500   -6.7350   -2.4260 C.3    25  LYS25       0.0038
     14  CD       -17.8450   -6.1190   -1.9340 C.3    25  LYS25       0.0206
     15  CE       -18.3130   -6.7370   -0.6310 C.3    25  LYS25       0.1093
     16  NZ       -19.5890   -7.4880   -0.8040 N.3    25  LYS25      -0.1314
     17  N        -14.2230   -3.3590   -0.7980 N.am   26  LYS26      -0.1942
     18  CA       -12.9840   -2.7940   -0.3530 C.3    26  LYS26       0.1978
     19  CB       -12.7870   -1.3570   -0.8280 C.3    26  LYS26       0.0333
     20  CG       -13.8070   -0.3790   -0.3230 C.3    26  LYS26       0.0038
     21  CD       -13.5260    0.9920   -0.8970 C.3    26  LYS26       0.0174
     22  CE       -14.4270    2.0420   -0.2800 C.3    26  LYS26       0.0722
     23  NZ       -14.0630    3.3850   -0.7490 N.3    26  LYS26      -0.2703
     24  CH1      -14.2660    3.5170   -2.2050 C.3    26  LYS26       0.0897
     25  CH2      -14.8870    4.3550   -0.0170 C.3    26  LYS26       0.0897
     26  C        -13.0490   -2.8780    1.1470 C.2    26  LYS26       0.3842
     27  O        -14.1550   -3.1590    1.6450 O.co2  26  LYS26      -0.2437
     28  OXT      -12.0040   -2.6780    1.7840 O.co2  26  LYS26      -0.2437
@<TRIPOS>BOND
     1     7     5    1
     2     5     2    1
     3     5     6    1
     4     1     2    1
     5     2     3    1
     6     3     8   am
     7     3     4    2
     8     8     9    1
     9    11    10    2
    10     9    12    1
    11     9    10    1
    12    13    12    1
    13    13    14    1
    14    24    23    1
    15    10    17   am
    16    14    15    1
    17    21    20    1
    18    21    22    1
    19    19    18    1
    20    19    20    1
    21    16    15    1
    22    17    18    1
    23    23    22    1
    24    23    25    1
    25    18    26    1
    26    26    27   ar
    27    26    28   ar
