@<TRIPOS>MOLECULE
2rhl_GDP_A_1.pdb
 28 30 0 0 0
SMALL
GASTEIGER

@<TRIPOS>ATOM
      1  PB        -5.5020  -30.3600   -3.0260 P.3     1  GDP1        0.5373
      2  O1B       -5.7210  -30.1550   -4.5000 O.2     1  GDP1       -0.2221
      3  O2B       -4.0330  -30.6860   -2.8090 O.3     1  GDP1       -0.1143
      4  O3B       -5.8730  -29.0990   -2.2710 O.3     1  GDP1       -0.1143
      5  O3A       -6.3050  -31.6640   -2.5960 O.3     1  GDP1       -0.2261
      6  PA        -6.7190  -31.9320   -1.0850 P.3     1  GDP1        0.2231
      7  O1A       -8.0440  -31.3110   -0.7270 O.2     1  GDP1       -0.5169
      8  O2A       -5.6390  -31.4790   -0.1260 O.3     1  GDP1       -0.4370
      9  O5'       -6.9030  -33.5130   -1.0140 O.3     1  GDP1       -0.3111
     10  C5'       -5.8280  -34.3480   -1.3810 C.3     1  GDP1        0.1813
     11  C4'       -5.8090  -35.5510   -0.4570 C.3     1  GDP1        0.1799
     12  O4'       -5.6960  -35.1560    0.9090 O.3     1  GDP1       -0.3326
     13  C3'       -7.0730  -36.3910   -0.5590 C.3     1  GDP1        0.2158
     14  O3'       -6.9550  -37.3230   -1.6240 O.3     1  GDP1       -0.2175
     15  C2'       -7.2210  -37.0360    0.8100 C.3     1  GDP1        0.2310
     16  O2'       -6.5600  -38.2990    0.9830 O.3     1  GDP1       -0.2158
     17  C1'       -6.5710  -36.0010    1.6970 C.3     1  GDP1        0.2293
     18  N9        -7.5250  -35.0840    2.3630 N.pl3   1  GDP1       -0.2354
     19  C8        -8.6830  -34.5380    1.9440 C.3     1  GDP1        0.2246
     20  N7        -9.1950  -33.7120    2.9080 N.2     1  GDP1       -0.2322
     21  C5        -8.3220  -33.7110    3.9280 C.2     1  GDP1        0.2182
     22  C6        -8.1920  -33.0790    5.2390 C.1     1  GDP1        0.2372
     23  O6        -9.0500  -32.2810    5.6540 O.2     1  GDP1       -0.2069
     24  N1        -7.1110  -33.3740    5.9840 N.2     1  GDP1       -0.2485
     25  C2        -6.1270  -34.2170    5.5960 C.1     1  GDP1        0.2531
     26  N2        -5.0510  -34.4550    6.4110 N.pl3   1  GDP1       -0.0226
     27  N3        -6.1890  -34.8260    4.3920 N.2     1  GDP1       -0.3074
     28  C4        -7.2230  -34.6040    3.5590 C.2     1  GDP1        0.2300
@<TRIPOS>BOND
     1     2     1    2
     2     1     3    1
     3     1     5    1
     4     1     4    1
     5     5     6    1
     6    14    13    1
     7    10     9    1
     8    10    11    1
     9     6     9    1
    10     6     7    2
    11     6     8    1
    12    13    11    1
    13    13    15    1
    14    11    12    1
    15    15    16    1
    16    15    17    1
    17    12    17    1
    18    17    18    1
    19    19    18    1
    20    19    20    1
    21    18    28    1
    22    20    21    2
    23    28    21    1
    24    28    27    2
    25    21    22    1
    26    27    25    2
    27    22    23    2
    28    22    24    2
    29    25    24    2
    30    25    26    1
