@<TRIPOS>MOLECULE
2rho_GSP_A_1.pdb
 32 34 0 0 0
SMALL
GASTEIGER

@<TRIPOS>ATOM
      1  PG        89.6820   19.2140   72.5590 P.3   501  GSP501      0.4340
      2  O3B       88.5050   18.5060   71.6920 O.3   501  GSP501     -0.2405
      3  S1G       89.1780   20.8390   72.7290 S.3   501  GSP501      0.0416
      4  O2G       91.0320   19.1860   71.8190 O.2   501  GSP501     -0.2423
      5  O3G       89.5850   18.7880   74.0090 O.3   501  GSP501     -0.1305
      6  PB        88.1770   18.5810   70.1080 P.3   501  GSP501      0.2262
      7  O1B       88.4020   19.8130   69.3150 O.2   501  GSP501     -0.5168
      8  O2B       86.7470   18.1390   69.9760 O.3   501  GSP501     -0.4369
      9  PA        89.2280   17.0400   68.0440 P.3   501  GSP501      0.2189
     10  O1A       90.4330   17.5600   67.3870 O.3   501  GSP501     -0.4371
     11  O2A       88.0890   17.4890   67.2090 O.2   501  GSP501     -0.5170
     12  O3A       89.1710   17.4440   69.5740 O.3   501  GSP501     -0.2701
     13  O5'       89.3850   15.4560   68.0870 O.3   501  GSP501     -0.3112
     14  C5'       88.2810   14.6410   68.4000 C.3   501  GSP501      0.1813
     15  C4'       88.2760   13.3770   67.5530 C.3   501  GSP501      0.1799
     16  O4'       88.0570   13.6730   66.1850 O.3   501  GSP501     -0.3326
     17  C3'       89.6070   12.6120   67.6370 C.3   501  GSP501      0.2158
     18  O3'       89.5720   11.6290   68.6600 O.3   501  GSP501     -0.2175
     19  C2'       89.7350   12.0180   66.2570 C.3   501  GSP501      0.2310
     20  O2'       89.0400   10.8200   66.1350 O.3   501  GSP501     -0.2158
     21  C1'       89.0110   12.9750   65.3600 C.3   501  GSP501      0.2293
     22  N9        89.9080   13.9300   64.6900 N.pl3 501  GSP501     -0.2354
     23  C8        91.0600   14.5360   65.1370 C.3   501  GSP501      0.2246
     24  N7        91.5040   15.4010   64.1760 N.2   501  GSP501     -0.2322
     25  C5        90.6490   15.3520   63.1200 C.2   501  GSP501      0.2182
     26  C6        90.5790   15.9870   61.8920 C.1   501  GSP501      0.2372
     27  O6        91.4300   16.8040   61.5660 O.2   501  GSP501     -0.2069
     28  N1        89.5310   15.7140   61.0210 N.2   501  GSP501     -0.2485
     29  C2        88.5570   14.8070   61.3890 C.1   501  GSP501      0.2531
     30  N2        87.5270   14.5000   60.6180 N.pl3 501  GSP501     -0.0226
     31  N3        88.6400   14.2010   62.6020 N.2   501  GSP501     -0.3074
     32  C4        89.6470   14.4470   63.4520 C.2   501  GSP501      0.2300
@<TRIPOS>BOND
     1    30    29    1
     2    28    29    2
     3    28    26    2
     4    29    31    2
     5    27    26    2
     6    26    25    1
     7    31    32    2
     8    25    32    1
     9    25    24    2
    10    32    22    1
    11    24    23    1
    12    22    23    1
    13    22    21    1
    14    21    16    1
    15    21    19    1
    16    20    19    1
    17    16    15    1
    18    19    17    1
    19    11     9    2
    20    10     9    1
    21    15    17    1
    22    15    14    1
    23    17    18    1
    24     9    13    1
    25     9    12    1
    26    13    14    1
    27     7     6    2
    28    12     6    1
    29     8     6    1
    30     6     2    1
    31     2     1    1
    32     4     1    2
    33     1     3    1
    34     1     5    1
