@<TRIPOS>MOLECULE
2rho_GDP_B_1.pdb
 28 30 0 0 0
SMALL
GASTEIGER

@<TRIPOS>ATOM
      1  PB        93.4050   29.1940   94.4340 P.3   501  GDP501      0.5373
      2  O1B       93.1390   29.2010   92.9520 O.2   501  GDP501     -0.2221
      3  O2B       92.2280   29.8290   95.1710 O.3   501  GDP501     -0.1143
      4  O3B       93.6490   27.7840   94.9110 O.3   501  GDP501     -0.1143
      5  O3A       94.7000   30.0810   94.5960 O.3   501  GDP501     -0.2261
      6  PA        95.5030   30.2940   95.9260 P.3   501  GDP501      0.2231
      7  O1A       96.6630   29.3270   96.0020 O.2   501  GDP501     -0.5169
      8  O2A       94.6420   30.1610   97.1450 O.3   501  GDP501     -0.4370
      9  O5'       96.0510   31.7790   95.6860 O.3   501  GDP501     -0.3111
     10  C5'       95.1570   32.8720   95.8510 C.3   501  GDP501      0.1813
     11  C4'       95.7440   34.0310   96.6450 C.3   501  GDP501      0.1799
     12  O4'       95.8900   33.7510   98.0420 O.3   501  GDP501     -0.3326
     13  C3'       97.1250   34.4130   96.1490 C.3   501  GDP501      0.2158
     14  O3'       97.0490   35.3510   95.0820 O.3   501  GDP501     -0.2175
     15  C2'       97.7760   35.0380   97.3640 C.3   501  GDP501      0.2310
     16  O2'       97.4400   36.4140   97.4650 O.3   501  GDP501     -0.2158
     17  C1'       97.1340   34.2870   98.5020 C.3   501  GDP501      0.2293
     18  N9        97.9380   33.1320   98.9000 N.pl3 501  GDP501     -0.2354
     19  C8        98.7420   32.3330   98.1740 C.3   501  GDP501      0.2246
     20  N7        99.2440   31.3350   98.9780 N.2   501  GDP501     -0.2322
     21  C5        98.7660   31.5040  100.2270 C.2   501  GDP501      0.2182
     22  C6        98.8780   30.8690  101.5490 C.1   501  GDP501      0.2372
     23  O6        99.5960   29.8510  101.7550 O.2   501  GDP501     -0.2069
     24  N1        98.1620   31.3930  102.5610 N.2   501  GDP501     -0.2485
     25  C2        97.3910   32.4810  102.4220 C.1   501  GDP501      0.2531
     26  N2        96.6900   32.9930  103.4720 N.pl3 501  GDP501     -0.0226
     27  N3        97.2570   33.1010  101.2400 N.2   501  GDP501     -0.3074
     28  C4        97.8910   32.6730  100.1440 C.2   501  GDP501      0.2300
@<TRIPOS>BOND
     1     2     1    2
     2     1     5    1
     3     1     4    1
     4     1     3    1
     5     5     6    1
     6    14    13    1
     7     9    10    1
     8     9     6    1
     9    10    11    1
    10     6     7    2
    11     6     8    1
    12    13    11    1
    13    13    15    1
    14    11    12    1
    15    15    16    1
    16    15    17    1
    17    12    17    1
    18    19    18    1
    19    19    20    1
    20    17    18    1
    21    18    28    1
    22    20    21    2
    23    28    21    1
    24    28    27    2
    25    21    22    1
    26    27    25    2
    27    22    23    2
    28    22    24    2
    29    25    24    2
    30    25    26    1
