@<TRIPOS>MOLECULE
2rhq_GAX_A_1.pdb
 30 33 0 0 0
SMALL
GASTEIGER

@<TRIPOS>ATOM
      1  N6        92.3610   -9.9800   15.8350 N.ar  352  GAX352     -0.2292
      2  N1       100.4610  -11.1280   18.2180 N.am  352  GAX352     -0.1606
      3  C2        99.3420  -11.2410   18.9730 C.ar  352  GAX352      0.0763
      4  N2       101.9050  -11.5200   16.4960 N.am  352  GAX352     -0.1356
      5  N3       103.7300  -11.7910   15.0110 N.ar  352  GAX352     -0.2209
      6  C4        97.5160  -10.0170   20.0730 C.ar  352  GAX352      0.1235
      7  N4        95.6460   -8.5170   19.1170 N.3   352  GAX352     -0.1520
      8  C5        97.0990  -11.2790   20.5500 C.ar  352  GAX352      0.0200
      9  C6        97.7580  -12.4590   20.2450 C.ar  352  GAX352      0.0027
     10  O1        95.9300   -8.7130   21.6170 O.2   352  GAX352     -0.1528
     11  O2        97.4090   -7.3620   20.4430 O.2   352  GAX352     -0.1528
     12  O3       100.6120  -13.1600   17.3180 O.2   352  GAX352     -0.2484
     13  C7       100.9560  -11.9990   17.3300 C.2   352  GAX352      0.3495
     14  C8       102.7370  -12.3140   15.7630 C.ar  352  GAX352      0.1873
     15  C10      104.3940  -12.7580   14.3010 C.ar  352  GAX352      0.1079
     16  C9       103.8710  -14.0250   14.5040 C.ar  352  GAX352      0.0588
     17  S2       102.5150  -14.0220   15.6020 S.2   352  GAX352     -0.0491
     18  C3        98.6480  -10.0530   19.2620 C.ar  352  GAX352      0.0365
     19  C1        98.9080  -12.4560   19.4690 C.ar  352  GAX352      0.0167
     20  S1        96.6790   -8.6040   20.3990 S.O2  352  GAX352      0.0634
     21  C14       95.9230   -7.5420   18.0390 C.3   352  GAX352      0.1173
     22  C13       95.2230   -7.9500   16.7360 C.3   352  GAX352      0.1113
     23  N5        93.8100   -8.3770   16.8950 N.pl3 352  GAX352     -0.2903
     24  C12       93.5830   -9.2290   18.0830 C.3   352  GAX352      0.1113
     25  C11       94.2030   -8.6230   19.3470 C.3   352  GAX352      0.1173
     26  C15       93.3040   -9.0150   15.7230 C.ar  352  GAX352      0.1318
     27  C19       93.7480   -8.6560   14.4440 C.ar  352  GAX352      0.0343
     28  C18       93.2310   -9.2790   13.3060 C.ar  352  GAX352      0.0045
     29  C17       92.2730  -10.2640   13.4670 C.ar  352  GAX352      0.0208
     30  C16       91.8560  -10.5910   14.7530 C.ar  352  GAX352      0.1003
@<TRIPOS>BOND
     1    28    29   ar
     2    28    27   ar
     3    29    30   ar
     4    15    16   ar
     5    15     5   ar
     6    27    26   ar
     7    16    17   ar
     8    30     1   ar
     9     5    14   ar
    10    17    14   ar
    11    26     1   ar
    12    26    23    1
    13    14     4    1
    14     4    13   am
    15    22    23    1
    16    22    21    1
    17    23    24    1
    18    12    13    2
    19    13     2   am
    20    21     7    1
    21    24    25    1
    22     2     3    1
    23     3    18   ar
    24     3    19   ar
    25     7    25    1
    26     7    20    1
    27    18     6   ar
    28    19     9   ar
    29     6    20    1
    30     6     8   ar
    31     9     8   ar
    32    20    11    2
    33    20    10    2
