@<TRIPOS>MOLECULE
2rhs_GAX_A_1.pdb
 30 33 0 0 0
SMALL
GASTEIGER

@<TRIPOS>ATOM
      1  N6        27.4720    4.2130   27.0840 N.ar    1  GAX1       -0.2292
      2  N1        28.5220    5.5000   35.4020 N.am    1  GAX1       -0.1606
      3  C2        29.4050    5.3670   34.4080 C.ar    1  GAX1        0.0763
      4  N2        26.5210    6.0140   36.2150 N.am    1  GAX1       -0.1356
      5  N3        24.7390    6.3680   37.7350 N.ar    1  GAX1       -0.2209
      6  C4        30.5210    3.8660   32.8720 C.ar    1  GAX1        0.1235
      7  N4        29.7530    2.3580   30.9630 N.3     1  GAX1       -0.1520
      8  C5        31.1900    4.9800   32.3850 C.ar    1  GAX1        0.0200
      9  C6        30.9820    6.2450   32.8960 C.ar    1  GAX1        0.0027
     10  O1        32.1450    2.2350   31.7830 O.2     1  GAX1       -0.1528
     11  O2        30.4380    1.3840   33.1790 O.2     1  GAX1       -0.1528
     12  O3        27.7720    7.5870   35.2130 O.2     1  GAX1       -0.2484
     13  C7        27.6100    6.4330   35.5750 C.2     1  GAX1        0.3495
     14  C8        25.7080    6.8390   36.9230 C.ar    1  GAX1        0.1873
     15  C10       24.0560    7.3840   38.3180 C.ar    1  GAX1        0.1079
     16  C9        24.4460    8.6740   37.9920 C.ar    1  GAX1        0.0588
     17  S2        25.7690    8.5810   36.8800 S.2     1  GAX1       -0.0491
     18  C3        29.6110    4.0830   33.8980 C.ar    1  GAX1        0.0365
     19  C1        30.0840    6.4660   33.9310 C.ar    1  GAX1        0.0167
     20  S1        30.7820    2.4090   32.2300 S.O2    1  GAX1        0.0634
     21  C14       28.4420    1.6880   31.0970 C.3     1  GAX1        0.1173
     22  C13       27.4270    2.3050   30.1280 C.3     1  GAX1        0.1113
     23  N5        27.8980    2.5030   28.7410 N.pl3   1  GAX1       -0.2903
     24  C12       29.2830    3.0040   28.6530 C.3     1  GAX1        0.1113
     25  C11       30.2630    2.2820   29.5820 C.3     1  GAX1        0.1173
     26  C15       27.0100    3.3230   28.0000 C.ar    1  GAX1        0.1318
     27  C19       25.6300    3.2420   28.1880 C.ar    1  GAX1        0.0343
     28  C18       24.7760    4.0590   27.4500 C.ar    1  GAX1        0.0045
     29  C17       25.2920    4.9620   26.5260 C.ar    1  GAX1        0.0208
     30  C16       26.6690    5.0140   26.3660 C.ar    1  GAX1        0.1003
@<TRIPOS>BOND
     1    30    29   ar
     2    30     1   ar
     3    29    28   ar
     4     1    26   ar
     5    28    27   ar
     6    26    27   ar
     7    26    23    1
     8    24    23    1
     9    24    25    1
    10    23    22    1
    11    25     7    1
    12    22    21    1
    13     7    21    1
    14     7    20    1
    15    10    20    2
    16    20     6    1
    17    20    11    2
    18     8     6   ar
    19     8     9   ar
    20     6    18   ar
    21     9    19   ar
    22    18     3   ar
    23    19     3   ar
    24     3     2    1
    25    12    13    2
    26     2    13   am
    27    13     4   am
    28     4    14    1
    29    17    14   ar
    30    17    16   ar
    31    14     5   ar
    32     5    15   ar
    33    16    15   ar
