@<TRIPOS>MOLECULE
2rht_C1E_A_1.pdb
 17 17 0 0 0
SMALL
GASTEIGER

@<TRIPOS>ATOM
      1  OA4        0.5950   16.2060  -16.8590 O.2   287  C1E287     -0.2866
      2  CA6        0.6660   14.9780  -16.9540 C.2   287  C1E287      0.1957
      3  CA5       -0.2950   14.2610  -17.8060 C.2   287  C1E287      0.0430
      4  CA4       -1.3140   14.9660  -18.3390 C.2   287  C1E287      0.0181
      5  CA3       -2.1630   14.4830  -19.4360 C.2   287  C1E287      0.1033
      6 CLA1       -1.9260   12.8360  -20.0360 Cl    287  C1E287     -0.0787
      7  CA2       -3.1040   15.2440  -20.0190 C.2   287  C1E287      0.2850
      8  OA3       -3.8560   14.7490  -20.9950 O.2   287  C1E287     -0.2786
      9  CA1       -3.4930   16.5320  -19.4700 C.2   287  C1E287      0.4269
     10  OA2       -4.3580   16.5920  -18.5720 O.co2 287  C1E287     -0.2369
     11  OA1       -2.8660   17.5340  -19.8340 O.co2 287  C1E287     -0.2369
     12  CB1        1.7590   14.2490  -16.2070 C.ar  287  C1E287      0.0390
     13  CB2        2.9800   14.8830  -15.9720 C.ar  287  C1E287      0.0032
     14  CB3        3.9860   14.2250  -15.2620 C.ar  287  C1E287      0.0001
     15  CB4        3.7860   12.9230  -14.8050 C.ar  287  C1E287      0.0000
     16  CB5        2.5710   12.2710  -15.0580 C.ar  287  C1E287      0.0001
     17  CB6        1.5560   12.9380  -15.7480 C.ar  287  C1E287      0.0032
@<TRIPOS>BOND
     1     8     7    1
     2     6     5    1
     3     7     9    1
     4     7     5    2
     5    11     9   ar
     6     9    10   ar
     7     5     4    1
     8     4     3    2
     9     3     2    1
    10     2     1    2
    11     2    12    1
    12    12    13   ar
    13    12    17   ar
    14    13    14   ar
    15    17    16   ar
    16    14    15   ar
    17    16    15   ar
