@<TRIPOS>MOLECULE
2rhu_MLY_A_1.pdb
 12 11 0 0 0
SMALL
GASTEIGER

@<TRIPOS>ATOM
      1  N         26.1010   -4.1410    2.4440 N.3   530  MLY530     -0.1208
      2  CA        25.4180   -2.8280    2.5800 C.3   530  MLY530      0.1943
      3  CB        26.0580   -1.8090    1.6370 C.3   530  MLY530      0.0307
      4  CG        25.5780   -0.3860    1.8470 C.3   530  MLY530      0.0035
      5  CD        26.2640    0.5820    0.8970 C.3   530  MLY530      0.0174
      6  CE        25.8040    2.0090    1.1610 C.3   530  MLY530      0.0722
      7  NZ        26.4420    2.9920    0.2790 N.3   530  MLY530     -0.2703
      8  CH1       26.1080    2.7930   -1.1420 C.3   530  MLY530      0.0897
      9  CH2       25.9550    4.3170    0.6950 C.3   530  MLY530      0.0897
     10  C         23.9360   -2.9800    2.2530 C.2   530  MLY530      0.3819
     11  O         23.6320   -3.5120    1.1640 O.co2 530  MLY530     -0.2441
     12  OXT       23.1010   -2.5690    3.0890 O.co2 530  MLY530     -0.2441
@<TRIPOS>BOND
     1     8     7    1
     2     7     9    1
     3     7     6    1
     4     5     6    1
     5     5     4    1
     6    11    10   ar
     7     3     4    1
     8     3     2    1
     9    10     2    1
    10    10    12   ar
    11     1     2    1
