@<TRIPOS>MOLECULE
2rhw_C0E_A_1.pdb
 18 18 0 0 0
SMALL
GASTEIGER

@<TRIPOS>ATOM
      1  OA2       -4.2840   15.8620  -18.1090 O.co2 288  C0E288     -0.2424
      2  CA1       -3.8830   16.0500  -19.2810 C.2   288  C0E288      0.4012
      3  OA1       -4.1990   17.0700  -19.9220 O.co2 288  C0E288     -0.2424
      4  CA2       -3.0360   15.0590  -19.9490 C.3   288  C0E288      0.3027
      5  OA3       -3.2450   14.8200  -21.2410 O.3   288  C0E288     -0.2034
      6  CA3       -2.0740   14.3790  -19.3140 C.2   288  C0E288      0.1552
      7  FA3       -1.7210   13.1680  -19.7830 F     288  C0E288     -0.2060
      8  CA4       -1.3770   14.9010  -18.1210 C.2   288  C0E288      0.0103
      9  CA5       -0.3500   14.2340  -17.5830 C.3   288  C0E288      0.0972
     10  CA6        0.7270   14.9820  -16.9130 C.2   288  C0E288      0.1775
     11  OA4        0.7110   16.1920  -16.9280 O.2   288  C0E288     -0.2910
     12  CB1        1.8310   14.2860  -16.1820 C.ar  288  C0E288      0.0352
     13  CB6        2.9480   15.0320  -15.8180 C.ar  288  C0E288      0.0052
     14  CB2        1.6720   12.9770  -15.7270 C.ar  288  C0E288      0.0052
     15  CB3        2.6600   12.4230  -14.9180 C.ar  288  C0E288      0.0297
     16  CB4        3.7770   13.1700  -14.5540 C.ar  288  C0E288      0.1401
     17  FB4        4.7130   12.6100  -13.7630 F     288  C0E288     -0.2042
     18  CB5        3.9330   14.4800  -15.0040 C.ar  288  C0E288      0.0297
@<TRIPOS>BOND
     1     5     4    1
     2     4     6    1
     3     4     2    1
     4     3     2   ar
     5     7     6    1
     6     6     8    2
     7     2     1   ar
     8     8     9    1
     9     9    10    1
    10    11    10    2
    11    10    12    1
    12    12    13   ar
    13    12    14   ar
    14    13    18   ar
    15    14    15   ar
    16    18    16   ar
    17    15    16   ar
    18    16    17    1
