@<TRIPOS>MOLECULE
2rhx_MLY_A_1.pdb
 12 11 0 0 0
SMALL
GASTEIGER

@<TRIPOS>ATOM
      1  N        -14.8720   -3.5040  -30.3890 N.3   537  MLY537     -0.1208
      2  CA       -13.4850   -3.0990  -30.0120 C.3   537  MLY537      0.1943
      3  CB       -13.1720   -1.7030  -30.5670 C.3   537  MLY537      0.0307
      4  CG       -14.0040   -0.5910  -29.9360 C.3   537  MLY537      0.0035
      5  CD       -13.7980    0.7440  -30.6390 C.3   537  MLY537      0.0174
      6  CE       -14.5640    1.8520  -29.9300 C.3   537  MLY537      0.0722
      7  NZ       -14.3050    3.1740  -30.5140 N.3   537  MLY537     -0.2703
      8  CH1      -14.7610    3.3060  -31.9070 C.3   537  MLY537      0.0897
      9  CH2      -14.9200    4.2070  -29.6740 C.3   537  MLY537      0.0897
     10  C        -13.3450   -3.0870  -28.4920 C.2   537  MLY537      0.3819
     11  O        -14.3920   -3.0910  -27.8150 O.co2 537  MLY537     -0.2441
     12  OXT      -12.1960   -3.0700  -28.0020 O.co2 537  MLY537     -0.2441
@<TRIPOS>BOND
     1     8     7    1
     2     5     4    1
     3     5     6    1
     4     3     2    1
     5     3     4    1
     6     7     6    1
     7     7     9    1
     8     1     2    1
     9     2    10    1
    10    10    12   ar
    11    10    11   ar
