@<TRIPOS>MOLECULE
2rhy_MLZ_A_1.pdb
 11 10 0 0 0
SMALL
GASTEIGER

@<TRIPOS>ATOM
      1  N         57.2610   -4.2380   59.0370 N.3     1  MLZ1       -0.1208
      2  CA        58.0840   -3.1470   58.4380 C.3     1  MLZ1        0.1943
      3  CB        57.8350   -1.8400   59.1960 C.3     1  MLZ1        0.0307
      4  CG        58.5300   -0.6260   58.6130 C.3     1  MLZ1        0.0035
      5  CD        58.3070    0.5770   59.5100 C.3     1  MLZ1        0.0189
      6  CE        59.0420    1.8080   59.0120 C.3     1  MLZ1        0.0888
      7  NZ        58.8000    2.9350   59.9170 N.3     1  MLZ1       -0.2165
      8  CM        59.4760    4.1690   59.4820 C.3     1  MLZ1        0.1075
      9  C         59.5670   -3.5140   58.4960 C.2     1  MLZ1        0.3819
     10  O         60.2070   -3.5640   57.4240 O.co2   1  MLZ1       -0.2441
     11  OXT       60.0710   -3.7550   59.6130 O.co2   1  MLZ1       -0.2441
@<TRIPOS>BOND
     1    10     9   ar
     2     2     9    1
     3     2     1    1
     4     2     3    1
     5     9    11   ar
     6     4     3    1
     7     4     5    1
     8     6     5    1
     9     6     7    1
    10     8     7    1
