@<TRIPOS>MOLECULE
2ri1_GLP_A_1.pdb
 16 16 0 0 0
SMALL
GASTEIGER

@<TRIPOS>ATOM
      1  C1        42.4600   32.2230   14.1840 C.3   234  GLP234      0.2893
      2  C2        43.5790   31.8780   13.3000 C.3   234  GLP234      0.1836
      3  C3        44.3430   33.2010   13.1770 C.3   234  GLP234      0.2071
      4  C4        43.7370   33.5370   11.8290 C.3   234  GLP234      0.2132
      5  C5        42.2110   33.6190   12.0070 C.3   234  GLP234      0.1807
      6  C6        41.4140   33.0190   10.8670 C.3   234  GLP234      0.1859
      7  O1        42.8600   32.7610   15.4980 O.3   234  GLP234     -0.1882
      8  N2        44.1290   30.5990   13.5620 N.3   234  GLP234     -0.1247
      9  O3        45.7400   33.0470   13.1720 O.3   234  GLP234     -0.2186
     10  O4        44.2910   34.6600   11.1660 O.3   234  GLP234     -0.2176
     11  O5        41.7070   33.0550   13.2420 O.3   234  GLP234     -0.3245
     12  O6        41.7190   31.6370   10.5980 O.3   234  GLP234     -0.2675
     13  P         41.6330   30.9840    9.1500 P.3   234  GLP234      0.5327
     14  O1P       41.8770   29.5470    9.3980 O.3   234  GLP234     -0.1145
     15  O2P       40.2460   31.2810    8.7150 O.3   234  GLP234     -0.1145
     16  O3P       42.6700   31.6510    8.3050 O.2   234  GLP234     -0.2224
@<TRIPOS>BOND
     1    16    13    2
     2    15    13    1
     3    13    14    1
     4    13    12    1
     5    12     6    1
     6     6     5    1
     7    10     4    1
     8     4     5    1
     9     4     3    1
    10     5    11    1
    11     9     3    1
    12     3     2    1
    13    11     1    1
    14     2     8    1
    15     2     1    1
    16     1     7    1
