@<TRIPOS>MOLECULE
2ri4_HEM_A_1.pdb
 43 50 0 0 0
SMALL
GASTEIGER

@<TRIPOS>ATOM
      1  CHA       -4.1140    1.7770  -22.3590 C.2   142  HEM142      0.0000
      2  CHB        0.2550    0.2170  -21.1170 C.2   142  HEM142      0.0000
      3  CHC       -1.2680   -0.6430  -16.5700 C.2   142  HEM142      0.0000
      4  CHD       -5.8450    0.2150  -18.1140 C.2   142  HEM142      0.0000
      5  C1A       -2.8110    1.3990  -22.4430 C.ar  142  HEM142      0.0000
      6  C2A       -1.9790    1.4170  -23.6150 C.ar  142  HEM142      0.0000
      7  C3A       -0.7590    0.9760  -23.2980 C.ar  142  HEM142      0.0000
      8  C4A       -0.7820    0.6840  -21.8820 C.ar  142  HEM142      0.0000
      9  CMA        0.4350    0.8250  -24.2720 C.3   142  HEM142      0.0000
     10  CAA       -2.4830    1.8230  -25.0090 C.3   142  HEM142      0.0000
     11  CBA       -1.9920    3.1750  -25.4680 C.3   142  HEM142      0.0000
     12  CGA       -2.3090    3.1780  -26.9400 C.2   142  HEM142      0.0000
     13  O1A       -1.8070    4.1580  -27.5520 O.co2 142  HEM142      0.0000
     14  O2A       -3.0270    2.2500  -27.4840 O.co2 142  HEM142      0.0000
     15  C1B        0.2320   -0.0610  -19.7750 C.2   142  HEM142      0.0000
     16  C2B        1.4080   -0.2880  -18.9910 C.2   142  HEM142      0.0000
     17  C3B        1.0390   -0.5400  -17.7280 C.2   142  HEM142      0.0000
     18  C4B       -0.4270   -0.4750  -17.6750 C.2   142  HEM142      0.0000
     19  CMB        2.8320   -0.2280  -19.6060 C.3   142  HEM142      0.0000
     20  CAB        1.9810   -0.8150  -16.5190 C.2   142  HEM142      0.0000
     21  CBB        3.0280   -1.6550  -16.5130 C.2   142  HEM142      0.0000
     22  C1C       -2.6560   -0.5480  -16.6200 C.ar  142  HEM142      0.0000
     23  C2C       -3.6470   -0.9510  -15.6320 C.ar  142  HEM142      0.0000
     24  C3C       -4.8730   -0.6980  -16.0800 C.ar  142  HEM142      0.0000
     25  C4C       -4.7540   -0.1320  -17.3700 C.ar  142  HEM142      0.0000
     26  CMC       -3.3640   -1.5550  -14.2640 C.3   142  HEM142      0.0000
     27  CAC       -6.2380   -0.9290  -15.4090 C.2   142  HEM142      0.0000
     28  CBC       -6.3730   -1.8900  -14.5010 C.2   142  HEM142      0.0000
     29  C1D       -5.8480    0.6660  -19.3950 C.2   142  HEM142      0.0000
     30  C2D       -7.0130    0.9330  -20.1910 C.2   142  HEM142      0.0000
     31  C3D       -6.4480    1.4440  -21.5230 C.2   142  HEM142      0.0000
     32  C4D       -5.0120    1.4050  -21.3780 C.2   142  HEM142      0.0000
     33  CMD       -8.4850    0.7630  -19.7670 C.3   142  HEM142      0.0000
     34  CAD       -7.1410    1.9080  -22.8200 C.3   142  HEM142      0.0000
     35  CBD       -8.6480    2.0130  -22.7350 C.3   142  HEM142      0.0000
     36  CGD       -9.1300    1.1850  -23.8780 C.2   142  HEM142      0.0000
     37  O1D      -10.3730    0.9300  -23.9310 O.co2 142  HEM142      0.0000
     38  O2D       -8.2400    0.8060  -24.7090 O.co2 142  HEM142      0.0000
     39  NA        -2.0520    0.9550  -21.4050 N.ar  142  HEM142      0.0000
     40  NB        -0.8710   -0.1790  -18.9620 N.2   142  HEM142      0.0000
     41  NC        -3.4000   -0.0530  -17.6810 N.ar  142  HEM142      0.0000
     42  ND        -4.7070    0.9460  -20.1130 N.2   142  HEM142      0.0000
     43 FE         -2.8830    0.3800  -19.5900 Fe    142  HEM142      0.0000
@<TRIPOS>BOND
     1    13    12   ar
     2    14    12   ar
     3    12    11    1
     4    11    10    1
     5    10     6    1
     6    38    36   ar
     7     9     7    1
     8    37    36   ar
     9    36    35    1
    10     6     7   ar
    11     6     5   ar
    12     7     8   ar
    13    34    35    1
    14    34    31    1
    15     5     1    2
    16     5    39   ar
    17     1    32    1
    18     8    39   ar
    19     8     2    2
    20    31    32    1
    21    31    30    2
    22    39    43    1
    23    32    42    2
    24     2    15    1
    25    30    33    1
    26    30    29    1
    27    42    43    1
    28    42    29    1
    29    15    16    1
    30    15    40    2
    31    19    16    1
    32    43    40    1
    33    43    41    1
    34    29     4    2
    35    16    17    2
    36    40    18    1
    37     4    25    1
    38    17    18    1
    39    17    20    1
    40    41    25   ar
    41    41    22   ar
    42    18     3    2
    43    25    24   ar
    44    22     3    1
    45    22    23   ar
    46    20    21    2
    47    24    23   ar
    48    24    27    1
    49    23    26    1
    50    27    28    2
