@<TRIPOS>MOLECULE
2ri7_III_P_1.pdb
 50 49 0 0 0
SMALL
GASTEIGER

@<TRIPOS>ATOM
      1  N         11.4630   39.5420   -4.1010 N.3     1  ALA1       -0.1231
      2  CA        12.1090   38.8670   -2.9410 C.3     1  ALA1        0.1694
      3  C         13.5520   38.5080   -3.2640 C.2     1  ALA1        0.2592
      4  O         13.9280   38.3920   -4.4300 O.2     1  ALA1       -0.2718
      5  CB        11.3290   37.6070   -2.5750 C.3     1  ALA1        0.0304
      6  N         14.3640   38.3470   -2.2250 N.am    2  ARG2       -0.1966
      7  CA        15.7580   37.9720   -2.4010 C.3     2  ARG2        0.1729
      8  C         15.7970   36.4460   -2.3900 C.2     2  ARG2        0.2617
      9  O         15.2580   35.8100   -1.4870 O.2     2  ARG2       -0.2715
     10  CB        16.6090   38.5520   -1.2710 C.3     2  ARG2        0.0348
     11  CG        16.7330   40.0720   -1.3390 C.3     2  ARG2        0.0492
     12  CD        17.4640   40.6520   -0.1370 C.3     2  ARG2        0.2205
     13  NE        16.7930   40.3160    1.1150 N.pl3   2  ARG2       -0.0865
     14  CZ        17.2070   39.3760    1.9560 C.cat   2  ARG2        0.5346
     15  NH1       18.2990   38.6730    1.6960 N.pl3   2  ARG2        0.1354
     16  NH2       16.5110   39.1260    3.0600 N.pl3   2  ARG2        0.1354
     17  N         16.4260   35.8660   -3.4100 N.am    3  THR3       -0.1937
     18  CA        16.4960   34.4170   -3.5240 C.3     3  THR3        0.2028
     19  C         17.8410   33.9190   -4.0170 C.2     3  THR3        0.2642
     20  O         18.6850   34.6890   -4.4800 O.2     3  THR3       -0.2714
     21  CB        15.4440   33.8870   -4.5200 C.3     3  THR3        0.1808
     22  OG1       15.7140   34.4350   -5.8210 O.3     3  THR3       -0.2208
     23  CG2       14.0370   34.2780   -4.0950 C.3     3  THR3        0.0379
     24  N         18.0280   32.6070   -3.9010 N.am    4  LYS4       -0.1963
     25  CA        19.2150   31.9140   -4.3770 C.3     4  LYS4        0.1728
     26  CB        20.0640   31.3600   -3.2400 C.3     4  LYS4        0.0311
     27  CG        20.7150   32.3520   -2.3280 C.3     4  LYS4        0.0037
     28  CD        21.4380   31.5690   -1.2500 C.3     4  LYS4        0.0174
     29  CE        22.0570   32.4690   -0.2080 C.3     4  LYS4        0.0722
     30  NZ        22.8020   31.6870    0.7930 N.3     4  LYS4       -0.2703
     31  CH1       23.4250   32.6420    1.7180 C.3     4  LYS4        0.0897
     32  CH2       22.0120   30.6940    1.5440 C.3     4  LYS4        0.0897
     33  C         18.6370   30.7190   -5.0880 C.2     4  LYS4        0.2616
     34  O         17.8860   29.9430   -4.5310 O.2     4  LYS4       -0.2715
     35  N         18.9880   30.5710   -6.3840 N.am    5  GLN5       -0.1963
     36  CA        18.4940   29.4450   -7.1310 C.3     5  GLN5        0.1733
     37  C         19.6930   28.8200   -7.8040 C.2     5  GLN5        0.2617
     38  O         20.8200   29.2730   -7.6100 O.2     5  GLN5       -0.2715
     39  CB        17.4950   29.9410   -8.1780 C.3     5  GLN5        0.0408
     40  CG        18.0010   31.1170   -8.9750 C.3     5  GLN5        0.0908
     41  CD        16.8750   31.9170   -9.5810 C.2     5  GLN5        0.2608
     42  OE1       15.9710   32.3650   -8.8760 O.2     5  GLN5       -0.2717
     43  NE2       16.9220   32.1080  -10.8940 N.am    5  GLN5       -0.0878
     44  N         19.4660   27.7530   -8.5650 N.am    6  THR6       -0.1951
     45  CA        20.5650   27.1280   -9.2810 C.3     6  THR6        0.1897
     46  C         20.7760   28.0020  -10.4990 C.2     6  THR6        0.2313
     47  O         19.7530   28.3980  -11.0990 O.2     6  THR6       -0.2863
     48  CB        20.2140   25.7170   -9.7640 C.3     6  THR6        0.1794
     49  OG1       18.7890   25.5590   -9.7960 O.3     6  THR6       -0.2208
     50  CG2       20.8400   24.6680   -8.8670 C.3     6  THR6        0.0378
@<TRIPOS>BOND
     1    47    46    2
     2    43    41   am
     3    46    45    1
     4    49    48    1
     5    48    45    1
     6    48    50    1
     7    41    40    1
     8    41    42    2
     9    45    44    1
    10    40    39    1
    11    44    37   am
    12    39    36    1
    13    37    38    2
    14    37    36    1
    15    36    35    1
    16    35    33   am
    17    22    21    1
    18    33    34    2
    19    33    25    1
    20    21    23    1
    21    21    18    1
    22    20    19    2
    23     4     3    2
    24    25    24    1
    25    25    26    1
    26     1     2    1
    27    19    24   am
    28    19    18    1
    29    18    17    1
    30    17     8   am
    31     3     2    1
    32     3     6   am
    33    26    27    1
    34     2     5    1
    35     7     8    1
    36     7     6    1
    37     7    10    1
    38     8     9    2
    39    27    28    1
    40    11    10    1
    41    11    12    1
    42    28    29    1
    43    29    30    1
    44    12    13    1
    45    30    32    1
    46    30    31    1
    47    13    14    2
    48    15    14    1
    49    14    16    1
