@<TRIPOS>MOLECULE
2ri8_MAN_A_1.pdb
 11 11 0 0 0
SMALL
GASTEIGER

@<TRIPOS>ATOM
      1  C1        61.2120   39.8010  -51.1340 C.3   1704  MAN1704     0.1777
      2  C2        61.0420   40.7260  -52.3380 C.3   1704  MAN1704     0.2141
      3  C3        59.5490   40.8930  -52.6360 C.3   1704  MAN1704     0.2173
      4  C4        58.9130   39.5170  -52.8800 C.3   1704  MAN1704     0.2142
      5  C5        59.2260   38.5610  -51.7160 C.3   1704  MAN1704     0.1810
      6  C6        58.7990   37.1290  -51.9760 C.3   1704  MAN1704     0.2141
      7  O2        61.6780   40.1380  -53.4630 O.3   1704  MAN1704    -0.2176
      8  O3        59.3660   41.7170  -53.7850 O.3   1704  MAN1704    -0.2175
      9  O4        57.5070   39.6740  -53.0130 O.3   1704  MAN1704    -0.2176
     10  O5        60.6490   38.5360  -51.4480 O.3   1704  MAN1704    -0.3481
     11  O6        58.9130   36.3380  -50.7960 O.3   1704  MAN1704    -0.2176
@<TRIPOS>BOND
     1     8     3    1
     2     7     2    1
     3     9     4    1
     4     4     3    1
     5     4     5    1
     6     3     2    1
     7     2     1    1
     8     6     5    1
     9     6    11    1
    10     5    10    1
    11    10     1    1
