@<TRIPOS>MOLECULE
2ri9_MMA_A_1.pdb
 13 13 0 0 0
SMALL
GASTEIGER

@<TRIPOS>ATOM
      1  C1        31.9640   29.0260  -40.1340 C.3   1901  MMA1901     0.2695
      2  C2        33.1500   29.4980  -41.0080 C.3   1901  MMA1901     0.2406
      3  C3        33.1060   31.0150  -41.2910 C.3   1901  MMA1901     0.2198
      4  C4        31.6920   31.4800  -41.7020 C.3   1901  MMA1901     0.2144
      5  C5        30.6570   30.9670  -40.7020 C.3   1901  MMA1901     0.1835
      6  C6        29.2410   31.3510  -41.0850 C.3   1901  MMA1901     0.2142
      7  C7        31.0780   29.1140  -37.8810 C.3   1901  MMA1901     0.1769
      8  O1        32.1290   29.4520  -38.8110 O.3   1901  MMA1901    -0.3259
      9  O2        33.1740   28.7830  -42.2690 O.3   1901  MMA1901    -0.2149
     10  O3        34.0180   31.2950  -42.3500 O.3   1901  MMA1901    -0.2174
     11  O4        31.6250   32.9050  -41.7740 O.3   1901  MMA1901    -0.2176
     12  O5        30.7070   29.5230  -40.6420 O.3   1901  MMA1901    -0.3256
     13  O6        28.3520   31.0630  -40.0260 O.3   1901  MMA1901    -0.2176
@<TRIPOS>BOND
     1    10     3    1
     2     9     2    1
     3    11     4    1
     4     4     3    1
     5     4     5    1
     6     3     2    1
     7     6     5    1
     8     6    13    1
     9     2     1    1
    10     5    12    1
    11    12     1    1
    12     1     8    1
    13     8     7    1
