@<TRIPOS>MOLECULE
2ri9_MAN_A_1.pdb
 11 11 0 0 0
SMALL
GASTEIGER

@<TRIPOS>ATOM
      1  C1        60.9160   39.8950  -51.1780 C.3   1704  MAN1704     0.1777
      2  C2        60.7620   40.8570  -52.3580 C.3   1704  MAN1704     0.2141
      3  C3        59.2930   40.9750  -52.7770 C.3   1704  MAN1704     0.2173
      4  C4        58.6880   39.5830  -53.0150 C.3   1704  MAN1704     0.2142
      5  C5        58.9520   38.6740  -51.8010 C.3   1704  MAN1704     0.1810
      6  C6        58.5150   37.2380  -51.9740 C.3   1704  MAN1704     0.2141
      7  O2        61.5190   40.3640  -53.4550 O.3   1704  MAN1704    -0.2176
      8  O3        59.2000   41.7360  -53.9800 O.3   1704  MAN1704    -0.2175
      9  O4        57.2940   39.7140  -53.2500 O.3   1704  MAN1704    -0.2176
     10  O5        60.3640   38.6370  -51.5130 O.3   1704  MAN1704    -0.3481
     11  O6        58.8080   36.4870  -50.8020 O.3   1704  MAN1704    -0.2176
@<TRIPOS>BOND
     1     8     3    1
     2     7     2    1
     3     9     4    1
     4     4     3    1
     5     4     5    1
     6     3     2    1
     7     2     1    1
     8     6     5    1
     9     6    11    1
    10     5    10    1
    11    10     1    1
