@<TRIPOS>MOLECULE
2ria_289_A_1.pdb
 14 14 0 0 0
SMALL
GASTEIGER

@<TRIPOS>ATOM
      1  O7        32.9210  -12.6820   11.3820 O.3   356  289356     -0.2175
      2  C7        31.7340  -13.0710   10.6660 C.3   356  289356      0.2174
      3  C6        30.9270  -11.8220   10.2750 C.3   356  289356      0.2143
      4  O6        31.5040  -11.2820    9.0890 O.3   356  289356     -0.2176
      5  C5        29.4090  -12.1520   10.0290 C.3   356  289356      0.1836
      6  O5        29.2840  -12.9210    8.7490 O.3   356  289356     -0.3236
      7  C1        27.8620  -13.2600    8.4010 C.3   356  289356      0.3024
      8  O1        27.1280  -12.0150    8.2470 O.3   356  289356     -0.1869
      9  C2        27.2230  -14.1380    9.5420 C.3   356  289356      0.2434
     10  O2        27.9540  -15.3810    9.6630 O.3   356  289356     -0.2148
     11  C3        27.3050  -13.3510   10.8870 C.3   356  289356      0.2199
     12  O3        26.7290  -14.1400   11.9200 O.3   356  289356     -0.2174
     13  C4        28.7980  -13.0180   11.2060 C.3   356  289356      0.2144
     14  O4        28.8790  -12.2830   12.4490 O.3   356  289356     -0.2176
@<TRIPOS>BOND
     1     8     7    1
     2     7     6    1
     3     7     9    1
     4     6     5    1
     5     4     3    1
     6     9    10    1
     7     9    11    1
     8     5     3    1
     9     5    13    1
    10     3     2    1
    11     2     1    1
    12    11    13    1
    13    11    12    1
    14    13    14    1
