@<TRIPOS>MOLECULE
2rib_GMH_A_1.pdb
 14 14 0 0 0
SMALL
GASTEIGER

@<TRIPOS>ATOM
      1  C1        27.7570  -17.1490   10.5150 C.3   356  GMH356      0.3024
      2  C2        26.3760  -17.3870    9.8010 C.3   356  GMH356      0.2434
      3  C3        26.0510  -16.1850    8.8380 C.3   356  GMH356      0.2199
      4  C4        25.9990  -14.8700    9.6640 C.3   356  GMH356      0.2144
      5  C5        27.4110  -14.6680   10.3120 C.3   356  GMH356      0.1836
      6  C6        27.4180  -13.4150   11.1650 C.3   356  GMH356      0.2143
      7  C7        28.7930  -13.1780   11.7970 C.3   356  GMH356      0.2174
      8  O1        28.7320  -17.2780    9.7900 O.3   356  GMH356     -0.1869
      9  O2        25.3620  -17.5050   10.8080 O.3   356  GMH356     -0.2148
     10  O3        24.7530  -16.3970    8.1900 O.3   356  GMH356     -0.2174
     11  O4        25.7110  -13.7600    8.8250 O.3   356  GMH356     -0.2176
     12  O5        27.7210  -15.8300   11.1710 O.3   356  GMH356     -0.3236
     13  O6        26.4480  -13.6160   12.1780 O.3   356  GMH356     -0.2176
     14  O7        28.7550  -12.0020   12.5980 O.3   356  GMH356     -0.2175
@<TRIPOS>BOND
     1    10     3    1
     2    11     4    1
     3     3     4    1
     4     3     2    1
     5     4     5    1
     6     8     1    1
     7     2     1    1
     8     2     9    1
     9     5     6    1
    10     5    12    1
    11     1    12    1
    12     6     7    1
    13     6    13    1
    14     7    14    1
