@<TRIPOS>MOLECULE
2ric_GMH_A_1.pdb
 14 14 0 0 0
SMALL
GASTEIGER

@<TRIPOS>ATOM
      1  C1        28.0500  -17.1220   10.2810 C.3   356  GMH356      0.3024
      2  C2        26.6800  -17.2280    9.4830 C.3   356  GMH356      0.2434
      3  C3        26.4860  -15.9750    8.5210 C.3   356  GMH356      0.2199
      4  C4        26.4970  -14.6610    9.3730 C.3   356  GMH356      0.2144
      5  C5        27.9170  -14.5700   10.0880 C.3   356  GMH356      0.1836
      6  C6        28.0100  -13.3190   10.9690 C.3   356  GMH356      0.2143
      7  C7        29.3730  -13.1930   11.6600 C.3   356  GMH356      0.2174
      8  O1        29.0440  -17.3350    9.6110 O.3   356  GMH356     -0.1869
      9  O2        25.6120  -17.2880   10.4460 O.3   356  GMH356     -0.2148
     10  O3        25.1910  -16.1100    7.8190 O.3   356  GMH356     -0.2174
     11  O4        26.3280  -13.5090    8.5400 O.3   356  GMH356     -0.2176
     12  O5        28.1080  -15.7830   10.9460 O.3   356  GMH356     -0.3236
     13  O6        27.0000  -13.4330   11.9450 O.3   356  GMH356     -0.2176
     14  O7        29.3840  -12.0130   12.4660 O.3   356  GMH356     -0.2175
@<TRIPOS>BOND
     1    10     3    1
     2     3     4    1
     3     3     2    1
     4    11     4    1
     5     4     5    1
     6     2     1    1
     7     2     9    1
     8     8     1    1
     9     5    12    1
    10     5     6    1
    11     1    12    1
    12     6     7    1
    13     6    13    1
    14     7    14    1
