@<TRIPOS>MOLECULE
2rid_291_A_1.pdb
 20 20 0 0 0
SMALL
GASTEIGER

@<TRIPOS>ATOM
      1  C1        27.9680  -13.3860    8.4570 C.3   501  291501      0.2698
      2  C2        27.3190  -14.2220    9.6300 C.3   501  291501      0.2406
      3  C3        27.4810  -13.4040   10.9560 C.3   501  291501      0.2198
      4  C4        28.9950  -13.1520   11.2540 C.3   501  291501      0.2145
      5  C5        29.5810  -12.3050   10.0580 C.3   501  291501      0.1846
      6  C6        31.1000  -12.0310   10.2690 C.3   501  291501      0.2250
      7  C7        31.5740  -11.2160    9.0490 C.3   501  291501      0.2455
      8  O1        27.2780  -12.1360    8.2120 O.3   501  291501     -0.3237
      9  O2        28.0440  -15.4610    9.8000 O.3   501  291501     -0.2149
     10  O3        26.8920  -14.1750   11.9980 O.3   501  291501     -0.2174
     11  O4        29.1480  -12.3990   12.4950 O.3   501  291501     -0.2176
     12  O5        29.3990  -13.0630    8.7730 O.3   501  291501     -0.3256
     13  O6        31.7940  -13.1570   10.2910 O.3   501  291501     -0.2164
     14  O7        32.9740  -10.9040    9.1140 O.3   501  291501     -0.4296
     15  C8        33.9860  -11.3160    8.2430 C.2   501  291501      0.4412
     16  N1        35.2750  -10.9450    8.4200 N.am  501  291501     -0.0475
     17  O8        33.6900  -12.0370    7.2880 O.2   501  291501     -0.2228
     18  C9        27.2050  -11.7460    6.8480 C.3   501  291501      0.1711
     19  C10       26.4700  -10.4360    6.7410 C.2   501  291501      0.0057
     20  C11       26.9370   -9.4880    5.9580 C.2   501  291501     -0.0023
@<TRIPOS>BOND
     1    20    19    2
     2    19    18    1
     3    18     8    1
     4    17    15    2
     5     8     1    1
     6    15    16   am
     7    15    14    1
     8     1    12    1
     9     1     2    1
    10    12     5    1
    11     7    14    1
    12     7     6    1
    13     2     9    1
    14     2     3    1
    15     5     6    1
    16     5     4    1
    17     6    13    1
    18     3     4    1
    19     3    10    1
    20     4    11    1
