@<TRIPOS>MOLECULE
2rie_293_A_1.pdb
 13 13 0 0 0
SMALL
GASTEIGER

@<TRIPOS>ATOM
      1  C1        27.7220  -17.4990   10.4840 C.3   356  293356      0.2716
      2  C2        26.3410  -17.7620    9.7490 C.3   356  293356      0.0999
      3  C3        26.0230  -16.5500    8.7660 C.3   356  293356      0.1898
      4  C4        25.9150  -15.2270    9.6280 C.3   356  293356      0.2118
      5  C5        27.3590  -14.9760   10.3120 C.3   356  293356      0.1834
      6  C6        27.3440  -13.7240   11.1840 C.3   356  293356      0.2143
      7  C7        28.7330  -13.4660   11.8130 C.3   356  293356      0.2174
      8  O1        28.9610  -17.5360    9.8770 O.3   356  293356     -0.1898
      9  O3        24.7360  -16.8270    8.1120 O.3   356  293356     -0.2201
     10  O4        25.6330  -14.1100    8.7930 O.3   356  293356     -0.2177
     11  O5        27.6720  -16.1630   11.1860 O.3   356  293356     -0.3255
     12  O6        26.3970  -13.9960   12.2050 O.3   356  293356     -0.2176
     13  O7        28.6810  -12.2970   12.6220 O.3   356  293356     -0.2175
@<TRIPOS>BOND
     1     9     3    1
     2     3     4    1
     3     3     2    1
     4    10     4    1
     5     4     5    1
     6     2     1    1
     7     8     1    1
     8     5     6    1
     9     5    11    1
    10     1    11    1
    11     6     7    1
    12     6    12    1
    13     7    13    1
