@<TRIPOS>MOLECULE
2rif_AMP_A_1.pdb
 23 25 0 0 0
SMALL
GASTEIGER

@<TRIPOS>ATOM
      1  P         29.0060   -4.4030   12.7870 P.3   201  AMP201      0.5327
      2  O1P       29.7200   -5.7180   12.6590 O.3   201  AMP201     -0.1145
      3  O2P       28.0110   -4.1530   11.6810 O.2   201  AMP201     -0.2224
      4  O3P       28.5010   -4.0840   14.1700 O.3   201  AMP201     -0.1145
      5  O5'       30.2120   -3.3550   12.5950 O.3   201  AMP201     -0.2675
      6  C5'       30.4390   -2.6230   11.3950 C.3   201  AMP201      0.1860
      7  C4'       30.7240   -1.1650   11.7360 C.3   201  AMP201      0.1823
      8  O4'       30.3310   -0.3490   10.6300 O.3   201  AMP201     -0.3135
      9  C3'       29.9680   -0.6660   12.9640 C.3   201  AMP201      0.2184
     10  O3'       30.8840   -0.3090   14.0050 O.3   201  AMP201     -0.2174
     11  C2'       29.1500    0.5180   12.4850 C.3   201  AMP201      0.2570
     12  O2'       29.7160    1.7630   12.9000 O.3   201  AMP201     -0.2130
     13  C1'       29.1950    0.4440   10.9700 C.3   201  AMP201      0.3186
     14  N9        27.9830   -0.1880   10.3900 N.pl3 201  AMP201     -0.1439
     15  C8        27.2850   -1.2390   10.8650 C.3   201  AMP201      0.3377
     16  N7        26.2390   -1.5340   10.0450 N.2   201  AMP201     -0.2095
     17  C5        26.2700   -0.6600    9.0220 C.2   201  AMP201      0.2526
     18  C6        25.4750   -0.3900    7.8010 C.2   201  AMP201      0.4393
     19  N6        24.3930   -1.1420    7.5000 N.pl3 201  AMP201      0.2180
     20  N1        25.8650    0.6370    7.0080 N.2   201  AMP201      0.0021
     21  C2        26.9400    1.4010    7.2940 C.3   201  AMP201      0.5254
     22  N3        27.7000    1.2080    8.3810 N.2   201  AMP201     -0.0055
     23  C4        27.4230    0.2190    9.2600 C.2   201  AMP201      0.3518
@<TRIPOS>BOND
     1    20    21    1
     2    20    18    2
     3    21    22    1
     4    19    18    1
     5    18    17    1
     6    22    23    2
     7    17    23    1
     8    17    16    2
     9    23    14    1
    10    16    15    1
    11    14    15    1
    12    14    13    1
    13     8    13    1
    14     8     7    1
    15    13    11    1
    16     6     7    1
    17     6     5    1
    18     3     1    2
    19     7     9    1
    20    11    12    1
    21    11     9    1
    22     5     1    1
    23     2     1    1
    24     1     4    1
    25     9    10    1
