@<TRIPOS>MOLECULE
2rip_34Q_A_1.pdb
 25 28 0 0 0
SMALL
GASTEIGER

@<TRIPOS>ATOM
      1  N1        63.3610   52.9320   84.3060 N.am  800  34Q800     -0.2722
      2  N3        62.2430   54.5500   86.7820 N.3   800  34Q800     -0.1305
      3  C4        64.8080   53.2900   87.7100 C.2   800  34Q800      0.2283
      4  C5        65.2980   53.1670   90.0900 C.3   800  34Q800      0.0935
      5  C6        64.9820   52.1840   91.2450 C.3   800  34Q800      0.0233
      6  C7        63.9680   51.4280   89.1370 C.3   800  34Q800      0.0935
      7  C8        63.9520   51.2120   90.6520 C.3   800  34Q800      0.0233
      8  C10       63.5370   52.7540   82.9750 C.2   800  34Q800      0.2766
      9  C13       60.1050   52.0260   80.3990 C.ar  800  34Q800      0.1059
     10  C15       59.1210   54.1340   81.2730 C.ar  800  34Q800      0.0336
     11  C17       62.2850   52.4200   82.0030 C.2   800  34Q800      0.1866
     12  O2        64.6870   52.9160   82.4890 O.2   800  34Q800     -0.2674
     13  C18       62.1870   51.1990   81.1080 C.3   800  34Q800      0.1888
     14  N5        61.1390   51.0430   80.3510 N.2   800  34Q800     -0.2600
     15  C14       60.1900   53.1070   81.2080 C.ar  800  34Q800      0.1484
     16  N4        61.3140   53.2990   82.0180 N.2   800  34Q800     -0.3981
     17  C16       57.9770   54.0120   80.4890 C.ar  800  34Q800      0.0027
     18  C12       58.8950   51.8830   79.5580 C.ar  800  34Q800      0.0213
     19  C11       57.8570   52.8330   79.6130 C.ar  800  34Q800      0.0017
     20  C1        64.4090   53.4380   85.1660 C.3   800  34Q800      0.1044
     21  C2        64.0050   52.8100   86.4990 C.3   800  34Q800      0.1157
     22  C3        62.5060   53.1240   86.5200 C.3   800  34Q800      0.1218
     23  C9        62.1570   52.6870   85.0930 C.3   800  34Q800      0.1133
     24  O1        65.5450   54.2690   87.5540 O.2   800  34Q800     -0.2748
     25  N2        64.6930   52.6590   88.8790 N.am  800  34Q800     -0.2795
@<TRIPOS>BOND
     1    18    19   ar
     2    18     9   ar
     3    19    17   ar
     4    14     9    2
     5    14    13    1
     6     9    15   ar
     7    17    10   ar
     8    13    11    1
     9    15    10   ar
    10    15    16    2
    11    11    16    2
    12    11     8    1
    13    12     8    2
    14     8     1   am
    15     1    23    1
    16     1    20    1
    17    23    22    1
    18    20    21    1
    19    21    22    1
    20    21     3    1
    21    22     2    1
    22    24     3    2
    23     3    25   am
    24    25     6    1
    25    25     4    1
    26     6     7    1
    27     4     5    1
    28     7     5    1
