@<TRIPOS>MOLECULE
2rir_NAP_A_1.pdb
 48 52 0 0 0
SMALL
GASTEIGER

@<TRIPOS>ATOM
      1  PA       179.3360   22.5030   59.6760 P.3   401  NAP401      0.2189
      2  O1A      179.0050   23.9370   59.6200 O.3   401  NAP401     -0.4371
      3  O2A      179.1710   21.8030   58.3920 O.2   401  NAP401     -0.5170
      4  O5B      180.8380   22.2540   60.2110 O.3   401  NAP401     -0.3112
      5  C5B      181.9640   22.3800   59.3550 C.3   401  NAP401      0.1813
      6  C4B      182.9500   23.3950   59.9320 C.3   401  NAP401      0.1820
      7  O4B      184.2580   23.0720   59.5030 O.3   401  NAP401     -0.3136
      8  C3B      182.6910   24.8390   59.4960 C.3   401  NAP401      0.2157
      9  O3B      182.4390   25.6650   60.6060 O.3   401  NAP401     -0.2175
     10  C2B      183.9760   25.2970   58.8160 C.3   401  NAP401      0.2314
     11  O2B      184.4010   26.5870   59.2250 O.3   401  NAP401     -0.2630
     12  C1B      185.0020   24.2370   59.1700 C.3   401  NAP401      0.3158
     13  N9A      185.8770   23.8700   58.0490 N.pl3 401  NAP401     -0.1439
     14  C8A      185.4570   23.4120   56.8180 C.3   401  NAP401      0.3377
     15  N7A      186.5550   23.1390   56.0590 N.2   401  NAP401     -0.2095
     16  C5A      187.6640   23.4050   56.7970 C.2   401  NAP401      0.2526
     17  C6A      189.0250   23.2910   56.5020 C.2   401  NAP401      0.4393
     18  N6A      189.4040   22.8480   55.2890 N.pl3 401  NAP401      0.2180
     19  N1A      189.9600   23.6370   57.4800 N.2   401  NAP401      0.0021
     20  C2A      189.5320   24.0860   58.7210 C.3   401  NAP401      0.5254
     21  N3A      188.1780   24.1950   59.0030 N.2   401  NAP401     -0.0055
     22  C4A      187.2550   23.8590   58.0570 C.2   401  NAP401      0.3518
     23  O3       178.3770   21.8730   60.7430 O.3   401  NAP401     -0.2703
     24  PN       178.0980   20.3280   60.9410 P.3   401  NAP401      0.2189
     25  O1N      178.5630   20.0720   62.3130 O.3   401  NAP401     -0.4371
     26  O2N      176.6830   20.0800   60.5620 O.2   401  NAP401     -0.5170
     27  O5D      179.0970   19.5480   59.9530 O.3   401  NAP401     -0.3112
     28  C5D      180.1000   18.6930   60.4590 C.3   401  NAP401      0.1813
     29  C4D      180.2260   17.3630   59.7240 C.3   401  NAP401      0.1799
     30  O4D      179.7200   16.3360   60.5490 O.3   401  NAP401     -0.3327
     31  C3D      179.5030   17.2450   58.3870 C.3   401  NAP401      0.2158
     32  O3D      180.3750   16.6230   57.4560 O.3   401  NAP401     -0.2175
     33  C2D      178.3230   16.3290   58.6460 C.3   401  NAP401      0.2309
     34  O2D      178.0210   15.5430   57.5200 O.3   401  NAP401     -0.2158
     35  C1D      178.8350   15.4900   59.8160 C.3   401  NAP401      0.2263
     36  N1N      177.7850   14.9460   60.7180 N.pl3 401  NAP401     -0.2787
     37  C2N      177.8340   13.6100   61.0600 C.3   401  NAP401      0.1244
     38  C3N      176.8790   13.0530   61.9320 C.2   401  NAP401      0.0544
     39  C7N      177.1300   11.7180   62.6020 C.2   401  NAP401      0.2818
     40  O7N      176.6510   11.5060   63.9000 O.2   401  NAP401     -0.2670
     41  N7N      177.7930   10.7500   61.9830 N.am  401  NAP401     -0.0839
     42  C4N      175.8680   13.8910   62.4410 C.2   401  NAP401      0.0033
     43  C5N      175.8220   15.2490   62.0930 C.2   401  NAP401      0.0157
     44  C6N      176.7950   15.7620   61.2290 C.2   401  NAP401      0.0633
     45  P2B      184.3530   27.7700   58.1320 P.3   401  NAP401      0.5328
     46  O1X      185.4650   28.7550   58.4490 O.3   401  NAP401     -0.1145
     47  O2X      182.9770   28.4030   58.1200 O.3   401  NAP401     -0.1145
     48  O3X      184.5770   27.1470   56.7760 O.2   401  NAP401     -0.2224
@<TRIPOS>BOND
     1    18    17    1
     2    15    16    2
     3    15    14    1
     4    17    16    1
     5    17    19    2
     6    48    45    2
     7    16    22    1
     8    14    13    1
     9    32    31    1
    10    19    20    1
    11    34    33    1
    12    13    22    1
    13    13    12    1
    14    22    21    2
    15    47    45    1
    16    45    46    1
    17    45    11    1
    18    31    33    1
    19    31    29    1
    20     3     1    2
    21    33    35    1
    22    20    21    1
    23    10    12    1
    24    10    11    1
    25    10     8    1
    26    12     7    1
    27     5     6    1
    28     5     4    1
    29     8     6    1
    30     8     9    1
    31     7     6    1
    32     2     1    1
    33     1     4    1
    34     1    23    1
    35    29    28    1
    36    29    30    1
    37    35    30    1
    38    35    36    1
    39    27    28    1
    40    27    24    1
    41    26    24    2
    42    36    37    1
    43    36    44    1
    44    23    24    1
    45    24    25    1
    46    37    38    1
    47    44    43    2
    48    38    42    2
    49    38    39    1
    50    41    39   am
    51    43    42    1
    52    39    40    2
