@<TRIPOS>MOLECULE
2riu_5RP_A_1.pdb
 14 13 0 0 0
SMALL
GASTEIGER

@<TRIPOS>ATOM
      1  C2       -16.0970  -22.5480  -27.7880 C.3   701  5RP701      0.2486
      2  C3       -16.3930  -22.9750  -26.3690 C.2   701  5RP701      0.2165
      3  C5       -15.5890  -22.4570  -25.2050 C.3   701  5RP701      0.2439
      4  O13      -15.9830  -23.1720  -24.0260 O.3   701  5RP701     -0.2122
      5  C6       -15.7160  -20.9450  -24.9630 C.3   701  5RP701      0.2194
      6  O14      -15.0110  -20.6430  -23.7540 O.3   701  5RP701     -0.2172
      7  C7       -17.1420  -20.4110  -24.8160 C.3   701  5RP701      0.1896
      8  O8       -17.8750  -20.6750  -26.0070 O.3   701  5RP701     -0.2674
      9  P9       -18.6800  -19.5500  -26.8200 P.3   701  5RP701      0.5327
     10  O12      -17.6340  -18.6270  -27.4010 O.3   701  5RP701     -0.1145
     11  O11      -19.5990  -18.8710  -25.8300 O.3   701  5RP701     -0.1145
     12  O10      -19.4020  -20.4260  -27.8160 O.2   701  5RP701     -0.2224
     13  O4       -17.2960  -23.7670  -26.1670 O.2   701  5RP701     -0.2905
     14  O1       -16.2690  -23.6890  -28.6380 O.3   701  5RP701     -0.2118
@<TRIPOS>BOND
     1    14     1    1
     2    12     9    2
     3     1     2    1
     4    10     9    1
     5     9     8    1
     6     9    11    1
     7     2    13    2
     8     2     3    1
     9     8     7    1
    10     3     5    1
    11     3     4    1
    12     5     7    1
    13     5     6    1
