@<TRIPOS>MOLECULE
2riw_T44_A_1.pdb
 24 25 0 0 0
SMALL
GASTEIGER

@<TRIPOS>ATOM
      1  C1         6.5410    9.0580   25.2770 C.ar  1395  T441395    -0.0191
      2  C2         7.2590    9.5960   24.2020 C.ar  1395  T441395     0.0047
      3  C3         8.4040    8.9690   23.7210 C.ar  1395  T441395     0.0647
      4  C4         8.8680    7.7340   24.3520 C.ar  1395  T441395     0.1558
      5  C5         8.1060    7.2150   25.4990 C.ar  1395  T441395     0.0647
      6  C6         6.9620    7.8860   25.9240 C.ar  1395  T441395     0.0047
      7  C7         5.2910    9.7780   25.7500 C.3   1395  T441395     0.0570
      8  C8         4.0650    9.4670   24.8590 C.3   1395  T441395     0.1986
      9  C9         4.2150    9.8500   23.4040 C.2   1395  T441395     0.3822
     10  C1'        9.9720    6.1980   22.8730 C.ar  1395  T441395     0.1464
     11  C2'        8.7650    5.6180   22.4590 C.ar  1395  T441395     0.0465
     12  C3'        8.7530    4.6890   21.4220 C.ar  1395  T441395     0.0724
     13  C4'       10.0000    4.3000   20.7420 C.ar  1395  T441395     0.2064
     14  C5'       11.2340    4.9440   21.2120 C.ar  1395  T441395     0.0724
     15  C6'       11.1810    5.8670   22.2600 C.ar  1395  T441395     0.0465
     16  N8         3.7540    8.0570   24.8990 N.3   1395  T441395    -0.1205
     17  O4         9.9950    7.1210   23.8950 O.3   1395  T441395    -0.4526
     18  O4'       10.0120    3.3830   19.7260 O.3   1395  T441395    -0.2857
     19  O9         4.0720    8.9730   22.5190 O.co2 1395  T441395    -0.2440
     20  O10        4.4830   11.0260   23.1140 O.co2 1395  T441395    -0.2440
     21  I3         9.5310    9.6880   22.1250 I     1395  T441395    -0.0393
     22  I3'        7.0080    3.7970   20.7480 I     1395  T441395    -0.0391
     23  I5         8.7870    5.4410   26.3690 I     1395  T441395    -0.0393
     24  I5'       13.0010    4.3880   20.2490 I     1395  T441395    -0.0391
@<TRIPOS>BOND
     1    18    13    1
     2    24    14    1
     3    13    14   ar
     4    13    12   ar
     5    22    12    1
     6    14    15   ar
     7    12    11   ar
     8    21     3    1
     9    15    10   ar
    10    11    10   ar
    11    19     9   ar
    12    10    17    1
    13    20     9   ar
    14     9     8    1
    15     3     2   ar
    16     3     4   ar
    17    17     4    1
    18     2     1   ar
    19     4     5   ar
    20     8    16    1
    21     8     7    1
    22     1     7    1
    23     1     6   ar
    24     5     6   ar
    25     5    23    1
