@<TRIPOS>MOLECULE
2rix_UDP_A_1.pdb
 25 26 0 0 0
SMALL
GASTEIGER

@<TRIPOS>ATOM
      1  N1       -16.4830  -23.4010    7.6780 N.am  356  UDP356     -0.1766
      2  C2       -17.6100  -24.0820    7.9910 C.1   356  UDP356      0.2845
      3  N3       -18.1060  -24.0720    9.3180 N.2   356  UDP356     -0.2452
      4  C4       -17.4520  -23.3580   10.3280 C.1   356  UDP356      0.2182
      5  C5       -16.2890  -22.6480   10.0110 C.2   356  UDP356      0.1242
      6  C6       -15.8120  -22.6750    8.6950 C.2   356  UDP356      0.0929
      7  O2       -18.2200  -24.7160    7.1320 O.2   356  UDP356     -0.1918
      8  O4       -17.9140  -23.3630   11.4770 O.2   356  UDP356     -0.2085
      9  C1'      -15.9920  -23.4440    6.2610 C.3   356  UDP356      0.2401
     10  C2'      -16.8440  -22.5620    5.3510 C.3   356  UDP356      0.2319
     11  O2'      -16.7680  -23.0360    3.9990 O.3   356  UDP356     -0.2157
     12  C3'      -16.1400  -21.2350    5.4450 C.3   356  UDP356      0.2158
     13  C4'      -14.6610  -21.5770    5.5910 C.3   356  UDP356      0.1799
     14  O4'      -14.6360  -22.9580    6.0820 O.3   356  UDP356     -0.3320
     15  O3'      -16.3630  -20.5450    4.1940 O.3   356  UDP356     -0.2175
     16  C5'      -14.0000  -20.9900    6.8460 C.3   356  UDP356      0.1813
     17  O5'      -13.5810  -19.6740    6.7630 O.3   356  UDP356     -0.3111
     18  PA       -14.5060  -18.4870    7.2520 P.3   356  UDP356      0.2231
     19  O1A      -15.4070  -18.2080    5.9300 O.2   356  UDP356     -0.5169
     20  O2A      -15.3150  -18.7030    8.4720 O.3   356  UDP356     -0.4370
     21  O3A      -13.5180  -17.2430    7.5080 O.3   356  UDP356     -0.2261
     22  PB       -12.7810  -16.4960    6.3440 P.3   356  UDP356      0.5373
     23  O1B      -11.7190  -15.5020    7.0000 O.3   356  UDP356     -0.1143
     24  O2B      -13.8680  -15.6240    5.5740 O.3   356  UDP356     -0.1143
     25  O3B      -12.0940  -17.4320    5.3910 O.2   356  UDP356     -0.2221
@<TRIPOS>BOND
     1    11    10    1
     2    15    12    1
     3    10    12    1
     4    10     9    1
     5    25    22    2
     6    12    13    1
     7    24    22    1
     8    13    14    1
     9    13    16    1
    10    19    18    2
    11    14     9    1
    12     9     1    1
    13    22    23    1
    14    22    21    1
    15    17    16    1
    16    17    18    1
    17     7     2    2
    18    18    21    1
    19    18    20    1
    20     1     2   am
    21     1     6    1
    22     2     3    2
    23     6     5    2
    24     3     4    2
    25     5     4    1
    26     4     8    2
