@<TRIPOS>MOLECULE
2riy_BHE_A_1.pdb
 28 29 0 0 0
SMALL
GASTEIGER

@<TRIPOS>ATOM
      1  C1       -14.5560  -12.5010   -5.7360 C.3   452  BHE452      0.2695
      2  O1       -17.3320  -10.0060   -5.6650 O.3   452  BHE452     -0.3286
      3  C2       -13.1810  -12.2500   -6.3780 C.3   452  BHE452      0.2406
      4  O2       -13.1640  -12.7900   -7.7290 O.3   452  BHE452     -0.2149
      5  C3       -12.9560  -10.7270   -6.4420 C.3   452  BHE452      0.2197
      6  O3       -11.6660  -10.4250   -7.0180 O.3   452  BHE452     -0.2174
      7  C4       -13.0390  -10.1090   -5.0300 C.3   452  BHE452      0.2118
      8  O4       -11.9950  -10.6210   -4.2190 O.3   452  BHE452     -0.2177
      9  C5       -14.4020  -10.4280   -4.4020 C.3   452  BHE452      0.1508
     10  O5       -14.6180  -11.8790   -4.4350 O.3   452  BHE452     -0.3284
     11  C6       -14.4850   -9.9440   -2.9630 C.3   452  BHE452      0.0350
     12  O6       -21.8490  -11.4150   -6.9690 O.3   452  BHE452     -0.2176
     13  C6B      -13.0360   -6.6570   -9.1780 C.3   452  BHE452      0.0000
     14  C5B      -14.1190   -7.7460   -9.2260 C.3   452  BHE452      0.0000
     15  C4B      -15.3930   -7.2400   -8.5390 C.3   452  BHE452      0.0001
     16  C3B      -16.0450   -8.3720   -7.7260 C.3   452  BHE452      0.0026
     17  C2B      -16.9100   -7.7920   -6.5930 C.3   452  BHE452      0.0322
     18  C1B      -17.9770   -8.7970   -6.1360 C.3   452  BHE452      0.1449
     19  C1A      -17.8100  -11.1140   -6.4020 C.3   452  BHE452      0.2662
     20  O5A      -19.1770  -11.3770   -6.0380 O.3   452  BHE452     -0.3257
     21  C5A      -19.7140  -12.4750   -6.7560 C.3   452  BHE452      0.1835
     22  C6A      -21.2000  -12.5780   -6.4330 C.3   452  BHE452      0.2142
     23  C4A      -18.9690  -13.7760   -6.3890 C.3   452  BHE452      0.2143
     24  O4A      -19.0480  -14.0700   -4.9570 O.3   452  BHE452     -0.2176
     25  C3A      -17.4870  -13.5870   -6.7780 C.3   452  BHE452      0.2166
     26  O3A      -16.7290  -14.7290   -6.3710 O.3   452  BHE452     -0.2175
     27  C2A      -16.9170  -12.3200   -6.1180 C.3   452  BHE452      0.2066
     28  O2A      -15.5970  -12.0200   -6.6190 O.3   452  BHE452     -0.3231
@<TRIPOS>BOND
     1    14    13    1
     2    14    15    1
     3    15    16    1
     4     4     3    1
     5    16    17    1
     6     6     5    1
     7    12    22    1
     8    25    23    1
     9    25    26    1
    10    25    27    1
    11    21    22    1
    12    21    23    1
    13    21    20    1
    14    28    27    1
    15    28     1    1
    16    17    18    1
    17     5     3    1
    18     5     7    1
    19    19    27    1
    20    19    20    1
    21    19     2    1
    22    23    24    1
    23     3     1    1
    24    18     2    1
    25     1    10    1
    26     7     9    1
    27     7     8    1
    28    10     9    1
    29     9    11    1
