@<TRIPOS>MOLECULE
2rj0_UDP_A_1.pdb
 25 26 0 0 0
SMALL
GASTEIGER

@<TRIPOS>ATOM
      1  N1       -16.4060  -23.2870    7.6000 N.am    1  UDP1       -0.1766
      2  C2       -17.6360  -23.9060    7.8720 C.1     1  UDP1        0.2845
      3  N3       -18.1540  -23.9010    9.1630 N.2     1  UDP1       -0.2452
      4  C4       -17.4620  -23.2820   10.1960 C.1     1  UDP1        0.2182
      5  C5       -16.2360  -22.6620    9.9460 C.2     1  UDP1        0.1242
      6  C6       -15.7000  -22.6630    8.6540 C.2     1  UDP1        0.0929
      7  O2       -18.2690  -24.4470    6.9770 O.2     1  UDP1       -0.1918
      8  O4       -17.9590  -23.3010   11.3250 O.2     1  UDP1       -0.2085
      9  C1'      -15.8870  -23.3320    6.2060 C.3     1  UDP1        0.2401
     10  C2'      -16.7920  -22.5330    5.2520 C.3     1  UDP1        0.2319
     11  O2'      -16.7200  -23.0640    3.9170 O.3     1  UDP1       -0.2157
     12  C3'      -16.1190  -21.1930    5.2740 C.3     1  UDP1        0.2158
     13  C4'      -14.6420  -21.6000    5.2650 C.3     1  UDP1        0.1799
     14  O4'      -14.5680  -22.7340    6.1560 O.3     1  UDP1       -0.3320
     15  O3'      -16.4260  -20.5170    4.0470 O.3     1  UDP1       -0.2175
     16  C5'      -13.6150  -20.5720    5.7480 C.3     1  UDP1        0.1813
     17  O5'      -13.9950  -20.0330    6.9470 O.3     1  UDP1       -0.3111
     18  PA       -14.5810  -18.5310    6.9940 P.3     1  UDP1        0.2231
     19  O1A      -15.3920  -18.2790    5.7560 O.2     1  UDP1       -0.5169
     20  O2A      -15.1760  -18.3310    8.3270 O.3     1  UDP1       -0.4370
     21  O3A      -13.2250  -17.6890    6.9240 O.3     1  UDP1       -0.2261
     22  PB       -13.1570  -16.0990    6.7060 P.3     1  UDP1        0.5373
     23  O1B      -14.1190  -15.3410    7.7640 O.3     1  UDP1       -0.1143
     24  O2B      -11.7470  -15.6430    6.7140 O.3     1  UDP1       -0.1143
     25  O3B      -13.8050  -15.8290    5.3090 O.2     1  UDP1       -0.2221
@<TRIPOS>BOND
     1    11    10    1
     2    15    12    1
     3    10    12    1
     4    10     9    1
     5    13    12    1
     6    13    16    1
     7    13    14    1
     8    25    22    2
     9    16    17    1
    10    19    18    2
    11    14     9    1
    12     9     1    1
    13    22    24    1
    14    22    21    1
    15    22    23    1
    16    21    18    1
    17    17    18    1
    18     7     2    2
    19    18    20    1
    20     1     2   am
    21     1     6    1
    22     2     3    2
    23     6     5    2
    24     3     4    2
    25     5     4    1
    26     4     8    2
