@<TRIPOS>MOLECULE
2rj1_UDP_A_1.pdb
 25 26 0 0 0
SMALL
GASTEIGER

@<TRIPOS>ATOM
      1  N1        16.4400   23.2360    7.6190 N.am  453  UDP453     -0.1766
      2  C2        17.6270   23.9390    7.8860 C.1   453  UDP453      0.2845
      3  N3        18.1530   23.9030    9.1810 N.2   453  UDP453     -0.2452
      4  C4        17.5320   23.1910   10.1940 C.1   453  UDP453      0.2182
      5  C5        16.3420   22.4890    9.9250 C.2   453  UDP453      0.1242
      6  C6        15.7940   22.5210    8.6380 C.2   453  UDP453      0.0929
      7  O2        18.1840   24.5690    6.9880 O.2   453  UDP453     -0.1918
      8  O4        18.0540   23.2050   11.3130 O.2   453  UDP453     -0.2085
      9  C1'       15.9080   23.3250    6.2430 C.3   453  UDP453      0.2401
     10  C2'       16.7900   22.5550    5.2590 C.3   453  UDP453      0.2319
     11  O2'       16.6650   23.1430    3.9580 O.3   453  UDP453     -0.2157
     12  C3'       16.0940   21.2090    5.2530 C.3   453  UDP453      0.2158
     13  C4'       14.5990   21.6080    5.3010 C.3   453  UDP453      0.1799
     14  O4'       14.5750   22.7460    6.2000 O.3   453  UDP453     -0.3320
     15  O3'       16.3910   20.4500    4.0670 O.3   453  UDP453     -0.2175
     16  C5'       13.6550   20.5020    5.8110 C.3   453  UDP453      0.1813
     17  O5'       14.1420   19.9690    7.0190 O.3   453  UDP453     -0.3111
     18  PA        14.6680   18.4610    7.0250 P.3   453  UDP453      0.2231
     19  O1A       15.4490   18.2300    5.7900 O.2   453  UDP453     -0.5169
     20  O2A       15.3010   18.2330    8.3420 O.3   453  UDP453     -0.4370
     21  O3A       13.2760   17.6310    6.9930 O.3   453  UDP453     -0.2261
     22  PB        13.0820   16.0870    6.5870 P.3   453  UDP453      0.5373
     23  O1B       14.0200   15.1910    7.5450 O.3   453  UDP453     -0.1143
     24  O2B       11.6210   15.8170    6.8080 O.3   453  UDP453     -0.1143
     25  O3B       13.4350   15.8990    5.0540 O.2   453  UDP453     -0.2221
@<TRIPOS>BOND
     1    11    10    1
     2    15    12    1
     3    25    22    2
     4    12    10    1
     5    12    13    1
     6    10     9    1
     7    13    16    1
     8    13    14    1
     9    19    18    2
    10    16    17    1
    11    14     9    1
    12     9     1    1
    13    22    24    1
    14    22    21    1
    15    22    23    1
    16     7     2    2
    17    21    18    1
    18    17    18    1
    19    18    20    1
    20     1     2   am
    21     1     6    1
    22     2     3    2
    23     6     5    2
    24     3     4    2
    25     5     4    1
    26     4     8    2
