@<TRIPOS>MOLECULE
2rj1_BHE_A_1.pdb
 28 29 0 0 0
SMALL
GASTEIGER

@<TRIPOS>ATOM
      1  C1        11.7810   12.5130    5.5630 C.3   452  BHE452      0.2695
      2  O1         9.0540    9.8660    5.6650 O.3   452  BHE452     -0.3286
      3  C2        13.1230   12.2350    6.2840 C.3   452  BHE452      0.2406
      4  O2        13.0650   12.6830    7.6400 O.3   452  BHE452     -0.2149
      5  C3        13.4010   10.7130    6.2840 C.3   452  BHE452      0.2197
      6  O3        14.7000   10.4320    6.8510 O.3   452  BHE452     -0.2174
      7  C4        13.3080   10.1460    4.8520 C.3   452  BHE452      0.2118
      8  O4        14.3670   10.6960    4.0580 O.3   452  BHE452     -0.2177
      9  C5        11.9360   10.4550    4.2300 C.3   452  BHE452      0.1508
     10  O5        11.7200   11.9060    4.2380 O.3   452  BHE452     -0.3284
     11  C6        11.8110    9.9370    2.7990 C.3   452  BHE452      0.0350
     12  O6         4.4350   11.1280    6.8350 O.3   452  BHE452     -0.2176
     13  C6B       13.3210    6.6900    9.3270 C.3   452  BHE452      0.0000
     14  C5B       12.3940    7.9030    9.2180 C.3   452  BHE452      0.0000
     15  C4B       11.0170    7.4680    8.7200 C.3   452  BHE452      0.0001
     16  C3B       10.5100    8.3590    7.5850 C.3   452  BHE452      0.0026
     17  C2B        9.3700    7.6870    6.8230 C.3   452  BHE452      0.0322
     18  C1B        8.4070    8.6830    6.1730 C.3   452  BHE452      0.1449
     19  C1A        8.5730   11.0170    6.3240 C.3   452  BHE452      0.2662
     20  O5A        7.1710   11.2030    5.9690 O.3   452  BHE452     -0.3257
     21  C5A        6.6000   12.3060    6.6780 C.3   452  BHE452      0.1835
     22  C6A        5.0650   12.3570    6.4020 C.3   452  BHE452      0.2142
     23  C4A        7.3170   13.6060    6.2760 C.3   452  BHE452      0.2143
     24  O4A        7.2170   13.7960    4.8560 O.3   452  BHE452     -0.2176
     25  C3A        8.8060   13.4790    6.6210 C.3   452  BHE452      0.2166
     26  O3A        9.4880   14.6460    6.1740 O.3   452  BHE452     -0.2175
     27  C2A        9.4120   12.2320    5.9510 C.3   452  BHE452      0.2066
     28  O2A       10.7670   11.9880    6.4210 O.3   452  BHE452     -0.3231
@<TRIPOS>BOND
     1    11     9    1
     2     8     7    1
     3     9    10    1
     4     9     7    1
     5    10     1    1
     6     7     5    1
     7    24    23    1
     8     1     3    1
     9     1    28    1
    10     2    18    1
    11     2    19    1
    12    27    19    1
    13    27    28    1
    14    27    25    1
    15    20    19    1
    16    20    21    1
    17    18    17    1
    18    26    25    1
    19    23    25    1
    20    23    21    1
    21     5     3    1
    22     5     6    1
    23     3     4    1
    24    22    21    1
    25    22    12    1
    26    17    16    1
    27    16    15    1
    28    15    14    1
    29    14    13    1
