@<TRIPOS>MOLECULE
2rj4_AD7_A_1.pdb
 27 28 0 0 0
SMALL
GASTEIGER

@<TRIPOS>ATOM
      1  CBA       13.1100   -6.6020   -9.2950 C.3   356  AD7356      0.0000
      2  CAZ       12.2540   -7.8660   -9.2110 C.3   356  AD7356      0.0000
      3  CAY       10.8740   -7.5610   -8.6210 C.3   356  AD7356      0.0001
      4  CAX       10.6260   -8.3730   -7.3440 C.3   356  AD7356      0.0026
      5  CAW        9.4530   -7.8020   -6.5340 C.3   356  AD7356      0.0322
      6  CAV        8.5240   -8.8870   -5.9690 C.3   356  AD7356      0.1449
      7  OAK        9.1900  -10.1100   -5.5530 O.3   356  AD7356     -0.3287
      8  CAJ        8.6560  -11.2160   -6.2950 C.3   356  AD7356      0.2651
      9  OAS        7.2630  -11.3330   -5.9580 O.3   356  AD7356     -0.3258
     10  CAR        6.6120  -12.4340   -6.6240 C.3   356  AD7356      0.1824
     11  CAT        5.1430  -12.4320   -6.2180 C.3   356  AD7356      0.2142
     12  OAU        4.5330  -11.2170   -6.6600 O.3   356  AD7356     -0.2176
     13  CAP        7.2900  -13.7540   -6.2400 C.3   356  AD7356      0.2016
     14  OAQ        7.2730  -13.9260   -4.8180 O.3   356  AD7356     -0.2188
     15  CAN        8.7540  -13.7040   -6.6300 C.3   356  AD7356      0.1567
     16  NAO        9.3850  -14.9500   -6.1680 N.3   356  AD7356     -0.1274
     17  CAL        9.4360  -12.4920   -5.9650 C.3   356  AD7356      0.1938
     18  OAM       10.7830  -12.3200   -6.4440 O.3   356  AD7356     -0.3261
     19  CAA       11.7590  -12.6290   -5.4150 C.3   356  AD7356      0.2379
     20  CAB       13.1540  -12.4090   -6.0520 C.3   356  AD7356      0.0969
     21  OAI       11.5610  -11.8810   -4.1540 O.3   356  AD7356     -0.3302
     22  CAE       11.8610  -10.4490   -4.2010 C.3   356  AD7356      0.1506
     23  CAF       11.6430   -9.8250   -2.8190 C.3   356  AD7356      0.0350
     24  CAD       13.2820  -10.2400   -4.7440 C.3   356  AD7356      0.2092
     25  OAH       14.2520  -10.7900   -3.8370 O.3   356  AD7356     -0.2178
     26  CAC       13.4240  -10.8980   -6.1290 C.3   356  AD7356      0.1896
     27  OAG       14.7310  -10.6560   -6.6550 O.3   356  AD7356     -0.2202
@<TRIPOS>BOND
     1     1     2    1
     2     2     3    1
     3     3     4    1
     4     4     5    1
     5    12    11    1
     6    27    26    1
     7    15    13    1
     8    15    16    1
     9    15    17    1
    10    10    13    1
    11    10    11    1
    12    10     9    1
    13     5     6    1
    14    18    17    1
    15    18    19    1
    16     8    17    1
    17     8     9    1
    18     8     7    1
    19    13    14    1
    20    26    20    1
    21    26    24    1
    22    20    19    1
    23     6     7    1
    24    19    21    1
    25    24    22    1
    26    24    25    1
    27    22    21    1
    28    22    23    1
