@<TRIPOS>MOLECULE
2rj4_UDP_A_1.pdb
 25 26 0 0 0
SMALL
GASTEIGER

@<TRIPOS>ATOM
      1  N1        16.4030  -23.3810   -7.4980 N.am    1  UDP1       -0.1766
      2  C2        17.6090  -24.0510   -7.7890 C.1     1  UDP1        0.2845
      3  N3        18.1080  -24.0250   -9.0920 N.2     1  UDP1       -0.2452
      4  C4        17.4440  -23.3390  -10.1220 C.1     1  UDP1        0.2182
      5  C5        16.2460  -22.6790   -9.8390 C.2     1  UDP1        0.1242
      6  C6        15.7280  -22.7010   -8.5380 C.2     1  UDP1        0.0929
      7  O2        18.2200  -24.6540   -6.9050 O.2     1  UDP1       -0.1918
      8  O4        17.9290  -23.3430  -11.2590 O.2     1  UDP1       -0.2085
      9  C1'       15.8740  -23.4480   -6.1050 C.3     1  UDP1        0.2401
     10  C2'       16.7440  -22.6450   -5.1410 C.3     1  UDP1        0.2319
     11  O2'       16.6230  -23.2250   -3.8350 O.3     1  UDP1       -0.2157
     12  C3'       16.0520  -21.3010   -5.1690 C.3     1  UDP1        0.2158
     13  C4'       14.5800  -21.7320   -5.1390 C.3     1  UDP1        0.1799
     14  O4'       14.5360  -22.8800   -6.0260 O.3     1  UDP1       -0.3320
     15  O3'       16.3820  -20.5600   -3.9770 O.3     1  UDP1       -0.2175
     16  C5'       13.5870  -20.6850   -5.6670 C.3     1  UDP1        0.1813
     17  O5'       13.9930  -20.1440   -6.8940 O.3     1  UDP1       -0.3111
     18  PA        14.5770  -18.6070   -6.9480 P.3     1  UDP1        0.2231
     19  O1A       15.3750  -18.3670   -5.7000 O.3     1  UDP1       -0.4370
     20  O2A       15.2270  -18.4340   -8.2700 O.2     1  UDP1       -0.5169
     21  O3A       13.2010  -17.7540   -6.8900 O.3     1  UDP1       -0.2261
     22  PB        13.2210  -16.1730   -6.6600 P.3     1  UDP1        0.5373
     23  O1B       14.1260  -15.4780   -7.6280 O.2     1  UDP1       -0.2221
     24  O2B       11.6930  -15.6840   -6.7320 O.3     1  UDP1       -0.1143
     25  O3B       13.6800  -15.9500   -5.1770 O.3     1  UDP1       -0.1143
@<TRIPOS>BOND
     1     8     4    2
     2     4     5    1
     3     4     3    2
     4     5     6    2
     5     3     2    2
     6     6     1    1
     7    20    18    2
     8     2     1   am
     9     2     7    2
    10    23    22    2
    11     1     9    1
    12    18    17    1
    13    18    21    1
    14    18    19    1
    15    17    16    1
    16    21    22    1
    17    24    22    1
    18    22    25    1
    19     9    14    1
    20     9    10    1
    21    14    13    1
    22    16    13    1
    23    12    10    1
    24    12    13    1
    25    12    15    1
    26    10    11    1
