@<TRIPOS>MOLECULE
2rj5_UDP_A_1.pdb
 25 26 0 0 0
SMALL
GASTEIGER

@<TRIPOS>ATOM
      1  N1       -16.4090  -23.2800    7.4770 N.am    1  UDP1       -0.1766
      2  C2       -17.6190  -23.9180    7.7680 C.1     1  UDP1        0.2845
      3  N3       -18.1430  -23.9190    9.0650 N.2     1  UDP1       -0.2452
      4  C4       -17.4640  -23.2770   10.1000 C.1     1  UDP1        0.2182
      5  C5       -16.2560  -22.6310    9.8340 C.2     1  UDP1        0.1242
      6  C6       -15.7280  -22.6300    8.5350 C.2     1  UDP1        0.0929
      7  O2       -18.2250  -24.4830    6.8720 O.2     1  UDP1       -0.1918
      8  O4       -17.9640  -23.2990   11.2340 O.2     1  UDP1       -0.2085
      9  C1'      -15.8850  -23.3140    6.0620 C.3     1  UDP1        0.2401
     10  C2'      -16.7250  -22.4460    5.0980 C.3     1  UDP1        0.2319
     11  O2'      -16.6760  -22.8540    3.6930 O.3     1  UDP1       -0.2157
     12  C3'      -16.0140  -21.1360    5.2250 C.3     1  UDP1        0.2158
     13  C4'      -14.5560  -21.6040    5.1760 C.3     1  UDP1        0.1799
     14  O4'      -14.5350  -22.7760    6.0280 O.3     1  UDP1       -0.3320
     15  O3'      -16.3470  -20.3540    4.0830 O.3     1  UDP1       -0.2175
     16  C5'      -13.5590  -20.5550    5.7070 C.3     1  UDP1        0.1813
     17  O5'      -14.0030  -19.9830    6.9250 O.3     1  UDP1       -0.3111
     18  PA       -14.5490  -18.4710    6.9350 P.3     1  UDP1        0.2231
     19  O1A      -15.3950  -18.2410    5.7390 O.2     1  UDP1       -0.5169
     20  O2A      -15.1390  -18.2670    8.2650 O.3     1  UDP1       -0.4370
     21  O3A      -13.1800  -17.6400    6.8550 O.3     1  UDP1       -0.2261
     22  PB       -13.1000  -16.0600    6.6010 P.3     1  UDP1        0.5373
     23  O1B      -14.1270  -15.3270    7.6180 O.3     1  UDP1       -0.1143
     24  O2B      -11.7050  -15.5840    6.7450 O.3     1  UDP1       -0.1143
     25  O3B      -13.6720  -15.7610    5.1300 O.2     1  UDP1       -0.2221
@<TRIPOS>BOND
     1    11    10    1
     2    15    12    1
     3    10    12    1
     4    10     9    1
     5    25    22    2
     6    13    12    1
     7    13    16    1
     8    13    14    1
     9    16    17    1
    10    19    18    2
    11    14     9    1
    12     9     1    1
    13    22    24    1
    14    22    21    1
    15    22    23    1
    16    21    18    1
    17     7     2    2
    18    17    18    1
    19    18    20    1
    20     1     2   am
    21     1     6    1
    22     2     3    2
    23     6     5    2
    24     3     4    2
    25     5     4    1
    26     4     8    2
