@<TRIPOS>MOLECULE
2rj6_BHE_A_1.pdb
 28 29 0 0 0
SMALL
GASTEIGER

@<TRIPOS>ATOM
      1  C1       -11.7630   12.3080   -5.6260 C.3   452  BHE452      0.2695
      2  O1        -8.9410    9.7830   -5.4550 O.3   452  BHE452     -0.3286
      3  C2       -13.0980   12.0070   -6.3150 C.3   452  BHE452      0.2406
      4  O2       -13.0570   12.5090   -7.6550 O.3   452  BHE452     -0.2149
      5  C3       -13.3320   10.5050   -6.3400 C.3   452  BHE452      0.2197
      6  O3       -14.6100   10.2360   -6.9510 O.3   452  BHE452     -0.2174
      7  C4       -13.3180    9.9530   -4.9290 C.3   452  BHE452      0.2118
      8  O4       -14.3590   10.5620   -4.1570 O.3   452  BHE452     -0.2177
      9  C5       -11.9720   10.2460   -4.2850 C.3   452  BHE452      0.1508
     10  O5       -11.7340   11.6850   -4.3070 O.3   452  BHE452     -0.3284
     11  C6       -11.9370    9.7720   -2.8460 C.3   452  BHE452      0.0350
     12  O6        -4.4270   11.2270   -6.7420 O.3   452  BHE452     -0.2176
     13  C6B       -5.0480    4.3150   -5.9940 C.3   452  BHE452      0.0000
     14  C5B       -6.5210    4.3360   -5.5810 C.3   452  BHE452      0.0000
     15  C4B       -6.8490    5.7220   -4.9990 C.3   452  BHE452      0.0001
     16  C3B       -8.3170    6.0860   -5.2610 C.3   452  BHE452      0.0026
     17  C2B       -8.6170    7.5070   -4.7560 C.3   452  BHE452      0.0322
     18  C1B       -8.2690    8.5600   -5.8200 C.3   452  BHE452      0.1449
     19  C1A       -8.4650   10.8940   -6.2100 C.3   452  BHE452      0.2662
     20  O5A       -7.0910   11.1930   -5.8200 O.3   452  BHE452     -0.3257
     21  C5A       -6.5830   12.2460   -6.6160 C.3   452  BHE452      0.1835
     22  C6A       -5.1180   12.3750   -6.2470 C.3   452  BHE452      0.2142
     23  C4A       -7.3490   13.5260   -6.3100 C.3   452  BHE452      0.2143
     24  O4A       -7.2460   13.9000   -4.9130 O.3   452  BHE452     -0.2176
     25  C3A       -8.8240   13.3230   -6.6680 C.3   452  BHE452      0.2166
     26  O3A       -9.5920   14.4640   -6.2970 O.3   452  BHE452     -0.2175
     27  C2A       -9.3720   12.0970   -5.9400 C.3   452  BHE452      0.2066
     28  O2A      -10.7060   11.7830   -6.4290 O.3   452  BHE452     -0.3231
@<TRIPOS>BOND
     1     4     3    1
     2     6     5    1
     3    12    22    1
     4    25    23    1
     5    25    26    1
     6    25    27    1
     7    21    23    1
     8    21    22    1
     9    21    20    1
    10    28    27    1
    11    28     1    1
    12     5     3    1
    13     5     7    1
    14     3     1    1
    15    23    24    1
    16    19    27    1
    17    19    20    1
    18    19     2    1
    19    13    14    1
    20    18     2    1
    21    18    17    1
    22     1    10    1
    23    14    15    1
    24    16    15    1
    25    16    17    1
    26     7     9    1
    27     7     8    1
    28    10     9    1
    29     9    11    1
