@<TRIPOS>MOLECULE
2rj7_GDU_A_1.pdb
 36 38 0 0 0
SMALL
GASTEIGER

@<TRIPOS>ATOM
      1  N1       -16.2170  -23.1780    7.6150 N.am  475  GDU475     -0.1766
      2  C2       -17.4200  -23.8710    7.9020 C.1   475  GDU475      0.2845
      3  N3       -17.9420  -23.8550    9.1870 N.2   475  GDU475     -0.2452
      4  C4       -17.3060  -23.2040   10.2680 C.1   475  GDU475      0.2182
      5  C5       -16.0080  -22.4220   10.0760 C.2   475  GDU475      0.1242
      6  C6       -15.4280  -22.4370    8.6520 C.2   475  GDU475      0.0929
      7  O2       -18.0170  -24.4560    6.9940 O.2   475  GDU475     -0.1918
      8  O4       -17.8220  -23.2330   11.3950 O.2   475  GDU475     -0.2085
      9  C1D      -15.7250  -23.2430    6.2270 C.3   475  GDU475      0.2401
     10  C2D      -16.6060  -22.3800    5.3060 C.3   475  GDU475      0.2319
     11  O2D      -16.6040  -22.9570    3.9850 O.3   475  GDU475     -0.2157
     12  C3D      -15.8260  -21.0750    5.3070 C.3   475  GDU475      0.2158
     13  C4D      -14.3790  -21.6160    5.2600 C.3   475  GDU475      0.1799
     14  O4D      -14.3640  -22.6910    6.2230 O.3   475  GDU475     -0.3320
     15  O3D      -16.1090  -20.3350    4.1250 O.3   475  GDU475     -0.2175
     16  C5D      -13.3650  -20.5560    5.6880 C.3   475  GDU475      0.1813
     17  O5D      -13.7290  -19.9650    6.9540 O.3   475  GDU475     -0.3112
     18  PA       -14.1960  -18.3890    6.9990 P.3   475  GDU475      0.2189
     19  O1A      -14.9960  -18.1230    5.7810 O.2   475  GDU475     -0.5170
     20  O2A      -14.7780  -18.0770    8.3110 O.3   475  GDU475     -0.4371
     21  O3A      -12.7520  -17.6810    6.8720 O.3   475  GDU475     -0.2703
     22  PB       -12.6060  -16.1280    6.3290 P.3   475  GDU475      0.2208
     23  O1B      -13.1260  -15.2790    7.4280 O.3   475  GDU475     -0.4371
     24  O2B      -13.1770  -15.9270    4.9700 O.2   475  GDU475     -0.5170
     25  O3B      -11.0330  -15.9330    6.2890 O.3   475  GDU475     -0.2857
     26  C1'       -9.9350  -16.4510    5.3710 C.3   475  GDU475      0.2742
     27  C2'      -10.0260  -17.2940    4.0530 C.3   475  GDU475      0.2409
     28  C3'      -10.3790  -18.7650    4.3170 C.3   475  GDU475      0.2198
     29  C4'       -9.4250  -19.4160    5.3430 C.3   475  GDU475      0.2144
     30  C5'       -9.3300  -18.5580    6.6280 C.3   475  GDU475      0.1835
     31  C6'       -8.2180  -18.9210    7.6540 C.3   475  GDU475      0.2142
     32  O2'      -10.9140  -16.6900    3.0990 O.3   475  GDU475     -0.2149
     33  O3'      -10.3290  -19.4750    3.0830 O.3   475  GDU475     -0.2174
     34  O4'       -8.1320  -19.5760    4.7540 O.3   475  GDU475     -0.2176
     35  O5'       -9.0160  -17.1880    6.2510 O.3   475  GDU475     -0.3254
     36  O6'       -8.4880  -18.1820    8.8640 O.3   475  GDU475     -0.2176
@<TRIPOS>BOND
     1    33    28    1
     2    32    27    1
     3    11    10    1
     4    27    28    1
     5    27    26    1
     6    15    12    1
     7    28    29    1
     8    34    29    1
     9    24    22    2
    10    13    12    1
    11    13    16    1
    12    13    14    1
    13    10    12    1
    14    10     9    1
    15    29    30    1
    16    26    35    1
    17    26    25    1
    18    16    17    1
    19    19    18    2
    20    14     9    1
    21     9     1    1
    22    35    30    1
    23    25    22    1
    24    22    21    1
    25    22    23    1
    26    30    31    1
    27    21    18    1
    28    17    18    1
    29     7     2    2
    30    18    20    1
    31     1     2   am
    32     1     6    1
    33    31    36    1
    34     2     3    2
    35     6     5    2
    36     3     4    2
    37     5     4    1
    38     4     8    2
