@<TRIPOS>MOLECULE
2rj7_DA8_A_1.pdb
 27 28 0 0 0
SMALL
GASTEIGER

@<TRIPOS>ATOM
      1  C16       -4.6730   -4.3320    5.8580 C.3   452  DA8452      0.0004
      2  C15       -6.2020   -4.2890    5.7990 C.3   452  DA8452      0.0047
      3  C14       -6.7580   -5.7450    5.8500 C.3   452  DA8452      0.0258
      4  C13       -7.9790   -5.9610    4.9630 C.2   452  DA8452     -0.0282
      5  C12       -8.6540   -7.3530    4.8900 C.2   452  DA8452      0.0012
      6  C11       -8.1220   -8.5070    5.7440 C.3   452  DA8452      0.1707
      7  O1        -8.8470   -9.6610    5.5470 O.3   452  DA8452     -0.3238
      8  C1        -8.3850  -10.7370    6.3650 C.3   452  DA8452      0.2639
      9  O5        -7.0300  -11.0680    5.9840 O.3   452  DA8452     -0.3259
     10  C5        -6.5240  -12.1890    6.7220 C.3   452  DA8452      0.1809
     11  C6        -5.0050  -12.3820    6.4460 C.3   452  DA8452      0.2141
     12  O6        -4.3170  -11.1660    6.8470 O.3   452  DA8452     -0.2176
     13  C4        -7.3550  -13.4610    6.4360 C.3   452  DA8452      0.1842
     14  O4        -7.3330  -13.7900    5.0320 O.3   452  DA8452     -0.2204
     15  C3        -8.7890  -13.1990    6.8620 C.3   452  DA8452      0.0704
     16  C2        -9.3020  -11.9450    6.1150 C.3   452  DA8452      0.1765
     17  O2       -10.6090  -11.6370    6.5590 O.3   452  DA8452     -0.3258
     18  C1F      -11.6210  -12.2450    5.7320 C.3   452  DA8452      0.2695
     19  O5F      -11.6790  -11.7220    4.3930 O.3   452  DA8452     -0.3284
     20  C5F      -11.9970  -10.2810    4.3380 C.3   452  DA8452      0.1508
     21  C6F      -11.9550   -9.7950    2.8980 C.3   452  DA8452      0.0350
     22  C4F      -13.3680  -10.0060    5.0050 C.3   452  DA8452      0.2118
     23  O4F      -14.4340  -10.5510    4.2230 O.3   452  DA8452     -0.2177
     24  C3F      -13.3720  -10.5690    6.4630 C.3   452  DA8452      0.2197
     25  O3F      -14.6550  -10.3640    7.1220 O.3   452  DA8452     -0.2174
     26  C2F      -13.0150  -12.0660    6.4370 C.3   452  DA8452      0.2406
     27  O2F      -12.9470  -12.5160    7.7700 O.3   452  DA8452     -0.2149
@<TRIPOS>BOND
     1    21    20    1
     2    23    22    1
     3    20    19    1
     4    20    22    1
     5    19    18    1
     6     5     4    2
     7     5     6    1
     8     4     3    1
     9    22    24    1
    10    14    13    1
    11     7     6    1
    12     7     8    1
    13    18    26    1
    14    18    17    1
    15     2     3    1
    16     2     1    1
    17     9     8    1
    18     9    10    1
    19    16     8    1
    20    16    17    1
    21    16    15    1
    22    13    10    1
    23    13    15    1
    24    26    24    1
    25    26    27    1
    26    11    10    1
    27    11    12    1
    28    24    25    1
