@<TRIPOS>MOLECULE
2rj8_BHE_A_1.pdb
 28 29 0 0 0
SMALL
GASTEIGER

@<TRIPOS>ATOM
      1  C1       -11.7940  -12.4360    5.7640 C.3   452  BHE452      0.2695
      2  O1        -9.0150   -9.8430    5.7930 O.3   452  BHE452     -0.3286
      3  C2       -13.1630  -12.1780    6.4680 C.3   452  BHE452      0.2406
      4  O2       -13.1270  -12.6460    7.8400 O.3   452  BHE452     -0.2149
      5  C3       -13.4520  -10.6680    6.4460 C.3   452  BHE452      0.2197
      6  O3       -14.7480  -10.3590    6.9620 O.3   452  BHE452     -0.2174
      7  C4       -13.3510  -10.1130    4.9970 C.3   452  BHE452      0.2118
      8  O4       -14.4310  -10.5810    4.1690 O.3   452  BHE452     -0.2177
      9  C5       -11.9560  -10.4260    4.3890 C.3   452  BHE452      0.1508
     10  O5       -11.7550  -11.8640    4.4200 O.3   452  BHE452     -0.3284
     11  C6       -11.7720   -9.8300    3.0010 C.3   452  BHE452      0.0350
     12  O6        -4.4480  -11.2020    7.0250 O.3   452  BHE452     -0.2176
     13  C6B      -13.4000   -6.8320    9.7300 C.3   452  BHE452      0.0000
     14  C5B      -12.2890   -7.8250    9.3760 C.3   452  BHE452      0.0000
     15  C4B      -11.2900   -7.2020    8.4290 C.3   452  BHE452      0.0001
     16  C3B      -10.3630   -8.2680    7.8270 C.3   452  BHE452      0.0026
     17  C2B       -9.5510   -7.6990    6.6610 C.3   452  BHE452      0.0322
     18  C1B       -8.3940   -8.6230    6.3040 C.3   452  BHE452      0.1449
     19  C1A       -8.5600  -10.9740    6.5250 C.3   452  BHE452      0.2662
     20  O5A       -7.1400  -11.2540    6.2610 O.3   452  BHE452     -0.3257
     21  C5A       -6.6100  -12.3960    6.9490 C.3   452  BHE452      0.1835
     22  C6A       -5.0750  -12.4470    6.6210 C.3   452  BHE452      0.2142
     23  C4A       -7.3700  -13.6490    6.5100 C.3   452  BHE452      0.2143
     24  O4A       -7.1880  -13.8480    5.1060 O.3   452  BHE452     -0.2176
     25  C3A       -8.8750  -13.4710    6.7920 C.3   452  BHE452      0.2166
     26  O3A       -9.6010  -14.6160    6.3560 O.3   452  BHE452     -0.2175
     27  C2A       -9.4330  -12.1930    6.1480 C.3   452  BHE452      0.2066
     28  O2A      -10.7490  -11.9550    6.6380 O.3   452  BHE452     -0.3231
@<TRIPOS>BOND
     1    11     9    1
     2     8     7    1
     3     9    10    1
     4     9     7    1
     5    10     1    1
     6     7     5    1
     7    24    23    1
     8     1     3    1
     9     1    28    1
    10     2    18    1
    11     2    19    1
    12    27    19    1
    13    27    28    1
    14    27    25    1
    15    20    19    1
    16    20    21    1
    17    18    17    1
    18    26    25    1
    19     5     3    1
    20     5     6    1
    21     3     4    1
    22    23    25    1
    23    23    21    1
    24    22    21    1
    25    22    12    1
    26    17    16    1
    27    16    15    1
    28    15    14    1
    29    14    13    1
