@<TRIPOS>MOLECULE
2rj8_UDP_A_1.pdb
 25 26 0 0 0
SMALL
GASTEIGER

@<TRIPOS>ATOM
      1  N1       -16.4580  -23.2050    7.8730 N.am    1  UDP1       -0.1766
      2  C2       -17.6440  -23.9310    8.1330 C.1     1  UDP1        0.2845
      3  N3       -18.2130  -23.8750    9.4150 N.2     1  UDP1       -0.2452
      4  C4       -17.6070  -23.1130   10.4390 C.1     1  UDP1        0.2182
      5  C5       -16.4360  -22.3850   10.1760 C.2     1  UDP1        0.1242
      6  C6       -15.8580  -22.4290    8.9010 C.2     1  UDP1        0.0929
      7  O2       -18.1750  -24.6010    7.2400 O.2     1  UDP1       -0.1918
      8  O4       -18.1300  -23.0950   11.5580 O.2     1  UDP1       -0.2085
      9  C1'      -15.9000  -23.2910    6.5010 C.3     1  UDP1        0.2401
     10  C2'      -16.8010  -22.5070    5.5270 C.3     1  UDP1        0.2319
     11  O2'      -16.6750  -23.0770    4.2130 O.3     1  UDP1       -0.2157
     12  C3'      -16.1020  -21.1640    5.5520 C.3     1  UDP1        0.2158
     13  C4'      -14.6270  -21.6050    5.5350 C.3     1  UDP1        0.1799
     14  O4'      -14.5620  -22.7390    6.4430 O.3     1  UDP1       -0.3320
     15  O3'      -16.3800  -20.4600    4.3360 O.3     1  UDP1       -0.2175
     16  C5'      -13.6750  -20.5260    6.0060 C.3     1  UDP1        0.1813
     17  O5'      -14.1160  -19.9660    7.2540 O.3     1  UDP1       -0.3111
     18  PA       -14.7020  -18.4310    7.3150 P.3     1  UDP1        0.2231
     19  O1A      -15.4290  -18.1630    6.0420 O.2     1  UDP1       -0.5169
     20  O2A      -15.4260  -18.2340    8.5920 O.3     1  UDP1       -0.4370
     21  O3A      -13.3120  -17.6280    7.3590 O.3     1  UDP1       -0.2261
     22  PB       -13.1480  -16.0950    6.8200 P.3     1  UDP1        0.5373
     23  O1B      -14.0740  -15.2130    7.7630 O.3     1  UDP1       -0.1143
     24  O2B      -11.6220  -15.7840    7.1330 O.3     1  UDP1       -0.1143
     25  O3B      -13.4920  -15.9070    5.3750 O.2     1  UDP1       -0.2221
@<TRIPOS>BOND
     1    11    10    1
     2    15    12    1
     3    25    22    2
     4    10    12    1
     5    10     9    1
     6    13    12    1
     7    13    16    1
     8    13    14    1
     9    16    17    1
    10    19    18    2
    11    14     9    1
    12     9     1    1
    13    22    24    1
    14    22    21    1
    15    22    23    1
    16     7     2    2
    17    17    18    1
    18    18    21    1
    19    18    20    1
    20     1     2   am
    21     1     6    1
    22     2     3    2
    23     6     5    2
    24     3     4    2
    25     5     4    1
    26     4     8    2
