@<TRIPOS>MOLECULE
2rj9_UDP_A_1.pdb
 25 26 0 0 0
SMALL
GASTEIGER

@<TRIPOS>ATOM
      1  N1       -16.4650  -23.2610    7.8240 N.am  357  UDP357     -0.1766
      2  C2       -17.5920  -23.9770    8.1020 C.1   357  UDP357      0.2845
      3  N3       -18.1640  -23.9240    9.4030 N.2   357  UDP357     -0.2452
      4  C4       -17.5560  -23.1270   10.4030 C.1   357  UDP357      0.2182
      5  C5       -16.4060  -22.3870   10.1020 C.2   357  UDP357      0.1242
      6  C6       -15.8590  -22.4410    8.8250 C.2   357  UDP357      0.0929
      7  O2       -18.1240  -24.6790    7.2360 O.2   357  UDP357     -0.1918
      8  O4       -18.0310  -23.0690   11.5340 O.2   357  UDP357     -0.2085
      9  C1'      -15.8900  -23.3310    6.4630 C.3   357  UDP357      0.2401
     10  C2'      -16.7590  -22.5350    5.4900 C.3   357  UDP357      0.2319
     11  O2'      -16.6850  -23.1210    4.1600 O.3   357  UDP357     -0.2157
     12  C3'      -16.0790  -21.2130    5.5090 C.3   357  UDP357      0.2158
     13  C4'      -14.5850  -21.6370    5.4990 C.3   357  UDP357      0.1801
     14  O4'      -14.5380  -22.7830    6.4010 O.3   357  UDP357     -0.3320
     15  O3'      -16.4080  -20.5200    4.2890 O.3   357  UDP357     -0.2175
     16  C5'      -13.6690  -20.5350    6.0130 C.3   357  UDP357      0.1859
     17  O5'      -14.1580  -19.9890    7.2530 O.3   357  UDP357     -0.2675
     18  PA       -14.7110  -18.5000    7.3890 P.3   357  UDP357      0.5327
     19  O1A      -15.0920  -18.1340    6.0690 O.3   357  UDP357     -0.1145
     20  O2A      -15.2850  -18.4440    8.6800 O.2   357  UDP357     -0.2224
     21  O3A      -13.6470  -17.7120    6.7410 O.3   357  UDP357     -0.1145
     22  PB       -13.2780  -16.0940    6.7850 P.3   357  UDP357      0.4227
     23  O1B      -13.9540  -15.3220    7.8580 O.3   357  UDP357     -0.1409
     24  O2B      -13.5910  -15.6720    5.3200 O.3   357  UDP357     -0.1409
     25  O3B      -11.7340  -15.8860    6.9600 O.3   357  UDP357     -0.1409
@<TRIPOS>BOND
     1    11    10    1
     2    15    12    1
     3    24    22    1
     4    10    12    1
     5    10     9    1
     6    13    12    1
     7    13    16    1
     8    13    14    1
     9    16    17    1
    10    19    21    1
    11    19    18    1
    12    14     9    1
    13     9     1    1
    14    21    18    1
    15    22    25    1
    16    22    23    1
    17     7     2    2
    18    17    18    1
    19    18    20    2
    20     1     2   am
    21     1     6    1
    22     2     3    2
    23     6     5    2
    24     3     4    2
    25     5     4    1
    26     4     8    2
