@<TRIPOS>MOLECULE
2rj9_AD7_A_1.pdb
 27 28 0 0 0
SMALL
GASTEIGER

@<TRIPOS>ATOM
      1  CBA      -13.3700   -6.7110    9.6350 C.3   356  AD7356      0.0000
      2  CAZ      -12.4910   -7.8390    9.0790 C.3   356  AD7356      0.0000
      3  CAY      -11.0980   -7.3510    8.6720 C.3   356  AD7356      0.0001
      4  CAX      -10.3600   -8.4250    7.8550 C.3   356  AD7356      0.0026
      5  CAW       -9.6060   -7.8470    6.6570 C.3   356  AD7356      0.0322
      6  CAV       -8.4240   -8.7390    6.2470 C.3   356  AD7356      0.1449
      7  OAK       -9.0250   -9.9810    5.7160 O.3   356  AD7356     -0.3287
      8  CAJ       -8.5540  -11.0870    6.4860 C.3   356  AD7356      0.2651
      9  OAS       -7.1150  -11.2990    6.2020 O.3   356  AD7356     -0.3258
     10  CAR       -6.5130  -12.4280    6.8760 C.3   356  AD7356      0.1824
     11  CAT       -4.9650  -12.4140    6.5460 C.3   356  AD7356      0.2142
     12  OAU       -4.3740  -11.1760    7.0070 O.3   356  AD7356     -0.2176
     13  CAP       -7.2670  -13.7130    6.5180 C.3   356  AD7356      0.2016
     14  OAQ       -7.1440  -13.9410    5.1420 O.3   356  AD7356     -0.2188
     15  CAN       -8.7690  -13.5830    6.8320 C.3   356  AD7356      0.1567
     16  NAO       -9.4860  -14.8010    6.3940 N.3   356  AD7356     -0.1274
     17  CAL       -9.3790  -12.3410    6.1730 C.3   356  AD7356      0.1938
     18  OAM      -10.7130  -12.1260    6.6700 O.3   356  AD7356     -0.3261
     19  CAA      -11.7290  -12.5220    5.7040 C.3   356  AD7356      0.2379
     20  CAB      -13.1380  -12.3130    6.3900 C.3   356  AD7356      0.0969
     21  OAI      -11.6660  -11.8410    4.4250 O.3   356  AD7356     -0.3302
     22  CAE      -11.8690  -10.3890    4.5140 C.3   356  AD7356      0.1506
     23  CAF      -11.5840   -9.7810    3.1460 C.3   356  AD7356      0.0350
     24  CAD      -13.2830  -10.1330    5.0810 C.3   356  AD7356      0.2092
     25  OAH      -14.2910  -10.6350    4.1960 O.3   356  AD7356     -0.2178
     26  CAC      -13.4190  -10.7900    6.4760 C.3   356  AD7356      0.1896
     27  OAG      -14.7420  -10.5130    7.0020 O.3   356  AD7356     -0.2202
@<TRIPOS>BOND
     1    23    22    1
     2    25    24    1
     3    21    22    1
     4    21    19    1
     5    22    24    1
     6    24    26    1
     7    14    13    1
     8    19    20    1
     9    19    18    1
    10     7     6    1
    11     7     8    1
    12    17     8    1
    13    17    18    1
    14    17    15    1
    15     9     8    1
    16     9    10    1
    17     6     5    1
    18    20    26    1
    19    16    15    1
    20    26    27    1
    21    13    15    1
    22    13    10    1
    23    11    10    1
    24    11    12    1
    25     5     4    1
    26     4     3    1
    27     3     2    1
    28     2     1    1
