@<TRIPOS>MOLECULE
2rjc_MES_A_1.pdb
 12 12 0 0 0
SMALL
GASTEIGER

@<TRIPOS>ATOM
      1  O1        39.0340   23.5450   16.5390 O.3   601  MES601     -0.3508
      2  C2        38.6010   24.3580   17.6060 C.3   601  MES601      0.1595
      3  C3        37.0700   24.3250   17.7880 C.3   601  MES601      0.1047
      4  N4        36.4870   23.0350   17.3620 N.3   601  MES601     -0.2670
      5  C5        37.1530   22.0500   16.5010 C.3   601  MES601      0.1047
      6  C6        38.6790   22.1650   16.6450 C.3   601  MES601      0.1595
      7  C7        35.0430   22.7440   17.6400 C.3   601  MES601      0.0940
      8  C8        34.3080   23.7290   18.5300 C.3   601  MES601      0.1225
      9  S         32.6580   23.2980   18.6030 S.3   601  MES601     -0.1946
     10  O1S       32.1430   23.1760   17.2310 O.3   601  MES601     -0.3074
     11  O2S       32.5590   21.9430   19.1610 O.3   601  MES601     -0.3074
     12  O3S       32.0240   24.2410   19.5340 O.3   601  MES601     -0.3074
@<TRIPOS>BOND
     1     5     6    1
     2     5     4    1
     3     1     6    1
     4     1     2    1
     5    10     9    1
     6     4     7    1
     7     4     3    1
     8     2     3    1
     9     7     8    1
    10     8     9    1
    11     9    11    1
    12     9    12    1
