@<TRIPOS>MOLECULE
2rjh_DCS_A_1.pdb
 22 23 0 0 0
SMALL
GASTEIGER

@<TRIPOS>ATOM
      1  N1        50.7570    1.7810    7.4840 N.ar  362  DCS362     -0.2452
      2  C2        50.3550    0.6260    6.9910 C.ar  362  DCS362      0.0978
      3  C2A       50.4800   -0.6840    7.7160 C.3   362  DCS362      0.0555
      4  C3        49.7640    0.5240    5.7810 C.ar  362  DCS362      0.2062
      5  O3        49.4140   -0.6830    5.4300 O.3   362  DCS362     -0.2856
      6  C4        49.5780    1.6310    5.0100 C.ar  362  DCS362      0.0353
      7  C4A       48.9240    1.6670    3.6690 C.3   362  DCS362      0.1193
      8  C5        49.9920    2.8290    5.5590 C.ar  362  DCS362      0.0275
      9  C6        50.6010    2.8500    6.8010 C.ar  362  DCS362      0.0965
     10  C5A       49.8360    4.1270    4.8240 C.3   362  DCS362      0.1816
     11  O4P       48.4470    4.5180    4.5610 O.3   362  DCS362     -0.2653
     12  P         48.0830    5.6380    3.9140 P.3   362  DCS362      0.5329
     13  O1P       48.4680    6.7300    4.5870 O.3   362  DCS362     -0.1145
     14  O2P       48.4850    5.3790    2.7360 O.2   362  DCS362     -0.2224
     15  O3P       46.7660    5.4520    3.8390 O.3   362  DCS362     -0.1145
     16  N         49.0360    0.4830    2.8440 N.3   362  DCS362     -0.1949
     17  CA        47.8530    0.5730    2.0270 C.3   362  DCS362      0.2287
     18  C         47.3830   -0.6890    1.4000 C.1   362  DCS362      0.1846
     19  O         47.2710   -1.7710    1.8730 O.2   362  DCS362     -0.2223
     20  ND        46.9800   -0.4240    0.2300 N.2   362  DCS362     -0.0082
     21  OG        47.1780    0.8010   -0.0670 O.2   362  DCS362     -0.3665
     22  CB        48.0050    1.4120    0.8260 C.3   362  DCS362      0.2734
@<TRIPOS>BOND
     1    21    20    1
     2    21    22    1
     3    20    18    2
     4    22    17    1
     5    18    19    2
     6    18    17    1
     7    17    16    1
     8    14    12    2
     9    16     7    1
    10     7     6    1
    11    15    12    1
    12    12    11    1
    13    12    13    1
    14    11    10    1
    15    10     8    1
    16     6     8   ar
    17     6     4   ar
    18     5     4    1
    19     8     9   ar
    20     4     2   ar
    21     9     1   ar
    22     2     1   ar
    23     2     3    1
