@<TRIPOS>MOLECULE
2rjo_GAL_A_1.pdb
 12 12 0 0 0
SMALL
GASTEIGER

@<TRIPOS>ATOM
      1  C1        17.9500    5.6890   18.8120 C.3   368  GAL368      0.3024
      2  C2        19.2450    6.5290   18.7200 C.3   368  GAL368      0.2434
      3  C3        19.9230    6.2450   17.3610 C.3   368  GAL368      0.2199
      4  C4        20.2410    4.7420   17.2740 C.3   368  GAL368      0.2144
      5  C5        18.8900    3.9850   17.4100 C.3   368  GAL368      0.1836
      6  C6        19.1630    2.4970   17.3370 C.3   368  GAL368      0.2142
      7  O1        17.3230    5.9360   20.0840 O.3   368  GAL368     -0.1869
      8  O2        18.9230    7.9160   18.8050 O.3   368  GAL368     -0.2148
      9  O3        21.1380    6.9840   17.2550 O.3   368  GAL368     -0.2174
     10  O4        21.0980    4.3880   18.3590 O.3   368  GAL368     -0.2176
     11  O5        18.2640    4.2720   18.7040 O.3   368  GAL368     -0.3236
     12  O6        17.9230    1.8260   17.4550 O.3   368  GAL368     -0.2176
@<TRIPOS>BOND
     1     9     3    1
     2     4     3    1
     3     4     5    1
     4     4    10    1
     5     6     5    1
     6     6    12    1
     7     3     2    1
     8     5    11    1
     9    11     1    1
    10     2     8    1
    11     2     1    1
    12     1     7    1
