@<TRIPOS>MOLECULE
2rjp_886_A_1.pdb
 36 38 0 0 0
SMALL
GASTEIGER

@<TRIPOS>ATOM
      1  C1        66.4200  -11.2980   14.6310 C.3   510  886510      0.0021
      2  C2        66.1680  -10.3930   13.4140 C.3   510  886510      0.0290
      3  C3        65.1200  -11.0660   12.5200 C.3   510  886510      0.0021
      4  C4        65.7550   -8.9780   13.8790 C.3   510  886510      0.2001
      5  C5        65.5120   -7.9580   12.7100 C.2   510  886510      0.3822
      6  O1        66.5440   -7.7160   12.0220 O.co2 510  886510     -0.2440
      7  O2        64.3590   -7.4870   12.5810 O.co2 510  886510     -0.2440
      8  N1        66.9480   -8.4060   14.6220 N.3   510  886510     -0.0677
      9  S1        66.7020   -7.7840   16.1600 S.O2  510  886510      0.0773
     10  O3        67.9460   -7.9800   16.8880 O.2   510  886510     -0.1516
     11  O4        65.4600   -8.3000   16.6980 O.2   510  886510     -0.1516
     12  C6        66.4610   -6.0420   15.9050 C.ar  510  886510      0.1236
     13  C7        67.5710   -5.2310   15.6630 C.ar  510  886510      0.0200
     14  C8        67.3800   -3.8590   15.4610 C.ar  510  886510      0.0014
     15  C9        66.0930   -3.2720   15.4950 C.ar  510  886510      0.0001
     16  C10       64.9930   -4.1200   15.7450 C.ar  510  886510      0.0014
     17  C11       65.1700   -5.4940   15.9480 C.ar  510  886510      0.0200
     18  C12       65.9170   -1.8140   15.3010 C.ar  510  886510     -0.0000
     19  C13       64.8100   -1.1300   15.8510 C.ar  510  886510     -0.0002
     20  C14       64.6430    0.2560   15.6840 C.ar  510  886510     -0.0007
     21  C15       65.5930    1.0090   14.9690 C.ar  510  886510      0.0212
     22  C16       66.7080    0.3410   14.4300 C.ar  510  886510     -0.0007
     23  C17       66.8680   -1.0440   14.5970 C.ar  510  886510     -0.0002
     24  C18       65.4430    2.5000   14.7540 C.3   510  886510      0.2320
     25  O5        64.5020    3.0750   15.6590 O.3   510  886510     -0.4706
     26  C19       63.6020    4.0610   15.3180 C.ar  510  886510      0.1391
     27  C20       62.5340    4.0030   14.4100 C.ar  510  886510      0.0370
     28  C21       61.6890    5.1220   14.2230 C.ar  510  886510      0.0060
     29  C22       61.8820    6.3240   14.9330 C.ar  510  886510      0.0349
     30  C23       62.9420    6.3630   15.8540 C.ar  510  886510      0.0060
     31  C24       63.7790    5.2500   16.0380 C.ar  510  886510      0.0370
     32  C25       60.9820    7.5290   14.7710 C.2   510  886510      0.1726
     33  O6        59.7900    7.3310   15.0140 O.2   510  886510     -0.2914
     34  C26       61.4580    8.9910   14.7180 C.3   510  886510      0.0620
     35  C27       62.6290    9.2100   13.7680 C.3   510  886510      0.0081
     36  C28       61.7090    9.5830   16.1090 C.3   510  886510      0.0081
@<TRIPOS>BOND
     1     6     5   ar
     2     3     2    1
     3     7     5   ar
     4     5     4    1
     5     2     4    1
     6     2     1    1
     7    35    34    1
     8     4     8    1
     9    28    27   ar
    10    28    29   ar
    11    27    26   ar
    12    22    23   ar
    13    22    21   ar
    14    23    18   ar
    15     8     9    1
    16    34    32    1
    17    34    36    1
    18    24    21    1
    19    24    25    1
    20    32    29    1
    21    32    33    2
    22    29    30   ar
    23    21    20   ar
    24    18    15    1
    25    18    19   ar
    26    26    25    1
    27    26    31   ar
    28    14    15   ar
    29    14    13   ar
    30    15    16   ar
    31    13    12   ar
    32    20    19   ar
    33    16    17   ar
    34    30    31   ar
    35    12    17   ar
    36    12     9    1
    37     9    11    2
    38     9    10    2
