@<TRIPOS>MOLECULE
2rjr_295_A_1.pdb
 14 14 0 0 0
SMALL
GASTEIGER

@<TRIPOS>ATOM
      1  C1       -25.0540    9.4500   30.5580 C.ar  1001  2951001     0.0006
      2  C        -25.4470    8.1520   30.8890 C.ar  1001  2951001     0.0294
      3  C5       -25.5370    7.7590   32.2240 C.ar  1001  2951001     0.1401
      4  C4       -25.2290    8.6790   33.2270 C.ar  1001  2951001     0.0294
      5  C3       -24.8360    9.9740   32.8860 C.ar  1001  2951001     0.0006
      6  C2       -24.7370   10.3850   31.5500 C.ar  1001  2951001     0.0110
      7  C6       -24.3040   11.8010   31.2220 C.3   1001  2951001     0.2156
      8  O4       -25.1350   12.7740   32.0580 O.3   1001  2951001    -0.2149
      9  C7       -24.5370   12.0740   29.7460 C.3   1001  2951001     0.2881
     10  C8       -25.1920   13.4270   29.5790 C.2   1001  2951001     0.3976
     11  O1       -25.8310   13.6660   28.2550 O.co2 1001  2951001    -0.2427
     12  O        -25.2130   14.3130   30.4520 O.co2 1001  2951001    -0.2427
     13  O3       -23.2880   12.1010   29.0680 O.3   1001  2951001    -0.2077
     14  F1       -25.9040    6.5500   32.5300 F     1001  2951001    -0.2042
@<TRIPOS>BOND
     1    11    10   ar
     2    13     9    1
     3    10     9    1
     4    10    12   ar
     5     9     7    1
     6     1     2   ar
     7     1     6   ar
     8     2     3   ar
     9     7     6    1
    10     7     8    1
    11     6     5   ar
    12     3    14    1
    13     3     4   ar
    14     5     4   ar
