@<TRIPOS>MOLECULE
2rjs_296_A_1.pdb
 16 16 0 0 0
SMALL
GASTEIGER

@<TRIPOS>ATOM
      1  C1       -26.9890    6.1000   32.7020 C.3   1001  2961001     0.2525
      2  O2       -25.5900    6.3710   32.5920 O.3   1001  2961001    -0.4714
      3  C3       -25.3860    7.6590   32.2070 C.ar  1001  2961001     0.1387
      4  C4       -25.3380    7.9810   30.8550 C.ar  1001  2961001     0.0366
      5  C5       -25.1360    9.2980   30.4600 C.ar  1001  2961001     0.0004
      6  C6       -25.2290    8.6570   33.1600 C.ar  1001  2961001     0.0366
      7  C7       -25.0280    9.9760   32.7660 C.ar  1001  2961001     0.0004
      8  C8       -24.9820   10.2980   31.4140 C.ar  1001  2961001     0.0012
      9  C9       -24.7890   11.7560   30.9880 C.3   1001  2961001     0.1859
     10  N10      -23.3610   12.0980   31.0390 N.3   1001  2961001    -0.1216
     11  C11      -25.3090   11.9440   29.5600 C.3   1001  2961001     0.3740
     12  C12      -25.5160   13.4360   29.2840 C.2   1001  2961001     0.4264
     13  O13      -25.4840   14.3060   30.1790 O.co2 1001  2961001    -0.2395
     14  O14      -25.7320   13.7640   28.0960 O.co2 1001  2961001    -0.2395
     15  F1       -26.4840   11.2940   29.4210 F     1001  2961001    -0.1903
     16  F2       -24.4110   11.4450   28.6850 F     1001  2961001    -0.1903
@<TRIPOS>BOND
     1    14    12   ar
     2    16    11    1
     3    12    11    1
     4    12    13   ar
     5    15    11    1
     6    11     9    1
     7     5     4   ar
     8     5     8   ar
     9     4     3   ar
    10     9    10    1
    11     9     8    1
    12     8     7   ar
    13     3     2    1
    14     3     6   ar
    15     2     1    1
    16     7     6   ar
