@<TRIPOS>MOLECULE
2rk1_NAP_A_1.pdb
 48 52 0 0 0
SMALL
GASTEIGER

@<TRIPOS>ATOM
      1  PA         8.7340   -6.1500   -4.1190 P.3     1  NAP1        0.2189
      2  O1A        7.8060   -5.1050   -4.7290 O.3     1  NAP1       -0.4371
      3  O2A       10.0230   -6.5020   -4.7890 O.2     1  NAP1       -0.5170
      4  O5B        8.0180   -7.5140   -3.7390 O.3     1  NAP1       -0.3112
      5  C5B        6.7230   -7.3540   -3.1980 C.3     1  NAP1        0.1813
      6  C4B        6.2980   -8.6340   -2.5170 C.3     1  NAP1        0.1820
      7  O4B        6.0700   -9.6130   -3.5370 O.3     1  NAP1       -0.3136
      8  C3B        7.3160   -9.2680   -1.5910 C.3     1  NAP1        0.2157
      9  O3B        7.2680   -8.6930   -0.2600 O.3     1  NAP1       -0.2175
     10  C2B        6.8790  -10.7210   -1.6360 C.3     1  NAP1        0.2314
     11  O2B        5.6490  -10.9740   -0.9680 O.3     1  NAP1       -0.2630
     12  C1B        6.4690  -10.9170   -3.0780 C.3     1  NAP1        0.3158
     13  N9A        7.5670  -11.4680   -3.9140 N.pl3   1  NAP1       -0.1439
     14  C8A        8.5600  -10.7560   -4.4700 C.3     1  NAP1        0.3377
     15  N7A        9.3690  -11.6010   -5.1550 N.2     1  NAP1       -0.2095
     16  C5A        8.8680  -12.8470   -5.0390 C.2     1  NAP1        0.2526
     17  C6A        9.2770  -14.0550   -5.5370 C.2     1  NAP1        0.4393
     18  N6A       10.3900  -14.1180   -6.2980 N.pl3   1  NAP1        0.2180
     19  N1A        8.5520  -15.1520   -5.2240 N.2     1  NAP1        0.0021
     20  C2A        7.4470  -15.0610   -4.4550 C.3     1  NAP1        0.5254
     21  N3A        7.0220  -13.8770   -3.9780 N.2     1  NAP1       -0.0055
     22  C4A        7.7410  -12.7650   -4.2460 C.2     1  NAP1        0.3518
     23  O3         9.1320   -5.6640   -2.6750 O.3     1  NAP1       -0.2703
     24  PN         9.7570   -4.2230   -2.3110 P.3     1  NAP1        0.2189
     25  O1N       11.1560   -3.9530   -2.8840 O.2     1  NAP1       -0.5170
     26  O2N        9.5950   -4.4310   -0.8570 O.3     1  NAP1       -0.4371
     27  O5D        8.6490   -3.1310   -2.6610 O.3     1  NAP1       -0.3112
     28  C5D        7.4060   -3.0120   -1.9750 C.3     1  NAP1        0.1813
     29  C4D        6.5070   -2.1890   -2.8880 C.3     1  NAP1        0.1799
     30  O4D        5.1510   -2.1590   -2.4010 O.3     1  NAP1       -0.3327
     31  C3D        6.9920   -0.7500   -2.9900 C.3     1  NAP1        0.2158
     32  O3D        6.9060   -0.3350   -4.3610 O.3     1  NAP1       -0.2175
     33  C2D        6.0850   -0.0350   -2.0250 C.3     1  NAP1        0.2309
     34  O2D        5.8420    1.3400   -2.2500 O.3     1  NAP1       -0.2158
     35  C1D        4.7900   -0.7900   -2.2750 C.3     1  NAP1        0.2263
     36  N1N        3.8020   -0.4560   -1.2620 N.pl3   1  NAP1       -0.2787
     37  C2N        3.9870   -0.8090    0.0120 C.3     1  NAP1        0.1244
     38  C3N        3.0610   -0.4070    0.9610 C.2     1  NAP1        0.0544
     39  C7N        3.2330   -0.7550    2.4110 C.2     1  NAP1        0.2818
     40  O7N        2.4070   -0.3490    3.2020 O.2     1  NAP1       -0.2670
     41  N7N        4.2620   -1.4660    2.8700 N.am    1  NAP1       -0.0839
     42  C4N        1.9400    0.3390    0.5320 C.2     1  NAP1        0.0033
     43  C5N        1.7840    0.6690   -0.8180 C.2     1  NAP1        0.0157
     44  C6N        2.7680    0.2820   -1.6920 C.2     1  NAP1        0.0633
     45  P2B        5.3510  -11.2570    0.6080 P.3     1  NAP1        0.5328
     46  O1X        6.2570  -12.4300    0.8700 O.3     1  NAP1       -0.1145
     47  O2X        5.8270  -10.0700    1.4110 O.3     1  NAP1       -0.1145
     48  O3X        3.8950  -11.6120    0.7320 O.2     1  NAP1       -0.2224
@<TRIPOS>BOND
     1    18    17    1
     2    17    19    2
     3    17    16    1
     4    19    20    1
     5    15    16    2
     6    15    14    1
     7    16    22    1
     8     3     1    2
     9     2     1    1
    10    14    13    1
    11    20    21    1
    12    32    31    1
    13    22    21    2
    14    22    13    1
    15     1     4    1
    16     1    23    1
    17    13    12    1
    18     4     5    1
    19     7    12    1
    20     7     6    1
    21     5     6    1
    22    12    10    1
    23    31    29    1
    24    31    33    1
    25    29    30    1
    26    29    28    1
    27    25    24    2
    28    23    24    1
    29    27    24    1
    30    27    28    1
    31     6     8    1
    32    30    35    1
    33    24    26    1
    34    35    33    1
    35    35    36    1
    36    34    33    1
    37    44    36    1
    38    44    43    2
    39    10     8    1
    40    10    11    1
    41     8     9    1
    42    36    37    1
    43    11    45    1
    44    43    42    1
    45    37    38    1
    46    42    38    2
    47    45    48    2
    48    45    46    1
    49    45    47    1
    50    38    39    1
    51    39    41   am
    52    39    40    2
