@<TRIPOS>MOLECULE
2rk2_NAP_A_1.pdb
 48 52 0 0 0
SMALL
GASTEIGER

@<TRIPOS>ATOM
      1  PA         8.4310   -5.9030   -4.0140 P.3     1  NAP1        0.2189
      2  O1A        7.2920   -4.9990   -4.4830 O.3     1  NAP1       -0.4371
      3  O2A        9.6830   -6.1490   -4.8290 O.2     1  NAP1       -0.5170
      4  O5B        7.7910   -7.3550   -3.6860 O.3     1  NAP1       -0.3112
      5  C5B        6.4400   -7.3560   -3.2440 C.3     1  NAP1        0.1813
      6  C4B        6.0990   -8.5810   -2.4300 C.3     1  NAP1        0.1820
      7  O4B        5.8000   -9.6620   -3.3240 O.3     1  NAP1       -0.3136
      8  C3B        7.2330   -9.0460   -1.5330 C.3     1  NAP1        0.2157
      9  O3B        7.1640   -8.4540   -0.2200 O.3     1  NAP1       -0.2175
     10  C2B        6.9280  -10.5140   -1.5180 C.3     1  NAP1        0.2314
     11  O2B        5.5990  -10.5970   -1.1130 O.3     1  NAP1       -0.2630
     12  C1B        6.5290  -10.8220   -2.9170 C.3     1  NAP1        0.3158
     13  N9A        7.6850  -11.0800   -3.7900 N.pl3   1  NAP1       -0.1439
     14  C8A        8.5280  -10.2110   -4.3720 C.3     1  NAP1        0.3377
     15  N7A        9.4060  -10.9370   -5.1110 N.2     1  NAP1       -0.2095
     16  C5A        9.0860  -12.2520   -4.9820 C.2     1  NAP1        0.2526
     17  C6A        9.5700  -13.4440   -5.4870 C.2     1  NAP1        0.4393
     18  N6A       10.6420  -13.4870   -6.3010 N.pl3   1  NAP1        0.2180
     19  N1A        8.9860  -14.6020   -5.1340 N.2     1  NAP1        0.0021
     20  C2A        7.9320  -14.6250   -4.3260 C.3     1  NAP1        0.5254
     21  N3A        7.4250  -13.5020   -3.8380 N.2     1  NAP1       -0.0055
     22  C4A        7.9980  -12.3160   -4.1470 C.2     1  NAP1        0.3518
     23  O3         8.8620   -5.5930   -2.4920 O.3     1  NAP1       -0.2703
     24  PN         9.6320   -4.2470   -2.0710 P.3     1  NAP1        0.2189
     25  O1N       10.9500   -4.2540   -2.8410 O.2     1  NAP1       -0.5170
     26  O2N        9.5640   -4.1420   -0.5540 O.3     1  NAP1       -0.4371
     27  O5D        8.6160   -3.1730   -2.6090 O.3     1  NAP1       -0.3112
     28  C5D        7.6030   -2.6490   -1.7460 C.3     1  NAP1        0.1813
     29  C4D        6.6150   -2.0160   -2.7090 C.3     1  NAP1        0.1799
     30  O4D        5.2690   -2.1180   -2.2430 O.3     1  NAP1       -0.3327
     31  C3D        6.9630   -0.5680   -2.9540 C.3     1  NAP1        0.2158
     32  O3D        6.8660   -0.3660   -4.3790 O.3     1  NAP1       -0.2175
     33  C2D        5.9020    0.0590   -2.0490 C.3     1  NAP1        0.2309
     34  O2D        5.6890    1.5040   -2.1120 O.3     1  NAP1       -0.2158
     35  C1D        4.6600   -0.8400   -2.2430 C.3     1  NAP1        0.2263
     36  N1N        3.7640   -0.5500   -1.1290 N.pl3   1  NAP1       -0.2787
     37  C2N        4.0780   -0.9300    0.1030 C.3     1  NAP1        0.1244
     38  C3N        3.2580   -0.5460    1.1410 C.2     1  NAP1        0.0544
     39  C7N        3.6170   -0.9500    2.5380 C.2     1  NAP1        0.2818
     40  O7N        2.9350   -0.5340    3.4270 O.2     1  NAP1       -0.2670
     41  N7N        4.7280   -1.6770    2.7420 N.am    1  NAP1       -0.0839
     42  C4N        2.1160    0.2010    0.9060 C.2     1  NAP1        0.0033
     43  C5N        1.7800    0.5550   -0.3900 C.2     1  NAP1        0.0157
     44  C6N        2.6710    0.1840   -1.3830 C.2     1  NAP1        0.0633
     45  P2B        5.2400  -11.3210    0.2520 P.3     1  NAP1        0.5328
     46  O1X        6.2980  -12.4100    0.3780 O.3     1  NAP1       -0.1145
     47  O2X        5.4060  -10.1510    1.1940 O.3     1  NAP1       -0.1145
     48  O3X        3.8210  -11.8040    0.0820 O.2     1  NAP1       -0.2224
@<TRIPOS>BOND
     1    18    17    1
     2    17    19    2
     3    17    16    1
     4    19    20    1
     5    15    16    2
     6    15    14    1
     7    16    22    1
     8     3     1    2
     9     2     1    1
    10    32    31    1
    11    14    13    1
    12    20    21    1
    13    22    21    2
    14    22    13    1
    15     1     4    1
    16     1    23    1
    17    13    12    1
    18     4     5    1
    19     7    12    1
    20     7     6    1
    21     5     6    1
    22    31    29    1
    23    31    33    1
    24    12    10    1
    25    25    24    2
    26    29    30    1
    27    29    28    1
    28    27    24    1
    29    27    28    1
    30    23    24    1
    31     6     8    1
    32    35    30    1
    33    35    33    1
    34    35    36    1
    35    34    33    1
    36    24    26    1
    37     8    10    1
    38     8     9    1
    39    10    11    1
    40    44    36    1
    41    44    43    2
    42    36    37    1
    43    11    45    1
    44    43    42    1
    45    48    45    2
    46    37    38    1
    47    45    46    1
    48    45    47    1
    49    42    38    2
    50    38    39    1
    51    39    41   am
    52    39    40    2
