@<TRIPOS>MOLECULE
2rkf_AB1_A_1.pdb
 46 49 0 0 0
SMALL
GASTEIGER

@<TRIPOS>ATOM
      1  C1       -17.1830    4.8640   -7.3260 C.3   501  AB1501      0.1409
      2  C2       -16.5540    2.6760   -6.1360 C.3   501  AB1501      0.1053
      3  N1       -17.9450    2.7180   -5.6600 N.am  501  AB1501     -0.2295
      4  C3       -18.8120    3.6970   -5.9170 C.1   501  AB1501      0.2113
      5  N2       -18.3440    4.8060   -6.4570 N.2   501  AB1501     -0.1900
      6  C4       -18.5930   -3.3210   -0.0580 C.ar  501  AB1501     -0.0204
      7  C5       -19.2050   -4.4150    0.5570 C.ar  501  AB1501     -0.0042
      8  C6       -18.4470   -5.4820    1.0440 C.ar  501  AB1501     -0.0003
      9  C7       -17.0560   -5.4630    0.9210 C.ar  501  AB1501     -0.0000
     10  C8       -16.4400   -4.3710    0.2990 C.ar  501  AB1501     -0.0003
     11  C9       -17.2030   -3.3080   -0.1870 C.ar  501  AB1501     -0.0042
     12  O1       -19.9970    3.5830   -5.7040 O.2   501  AB1501     -0.2063
     13  C10      -18.3980    1.5650   -4.8670 C.3   501  AB1501      0.1614
     14  C11      -17.9180    1.6610   -3.4350 C.2   501  AB1501      0.2600
     15  N3       -18.8130    2.1500   -2.5770 N.am  501  AB1501     -0.2054
     16  C12      -18.5100    2.3450   -1.1570 C.3   501  AB1501      0.1023
     17  C13      -18.0390    0.2530   -5.5990 C.3   501  AB1501      0.0278
     18  C14      -18.4320   -0.9790   -4.7940 C.3   501  AB1501      0.0022
     19  C15      -18.6980    0.1640   -6.9740 C.3   501  AB1501      0.0022
     20  O2       -16.7890    1.3300   -3.0980 O.2   501  AB1501     -0.2715
     21  C16      -15.5250    5.5050   -2.4300 C.ar  501  AB1501     -0.0003
     22  C17      -16.0990    6.3700   -3.3590 C.ar  501  AB1501     -0.0000
     23  C18      -17.4830    6.4180   -3.4780 C.ar  501  AB1501     -0.0003
     24  C19      -18.2820    5.6040   -2.6710 C.ar  501  AB1501     -0.0042
     25  C20      -17.7020    4.7240   -1.7480 C.ar  501  AB1501     -0.0205
     26  C21      -16.3150    4.6840   -1.6270 C.ar  501  AB1501     -0.0042
     27  C22      -18.5840    3.8520   -0.8770 C.3   501  AB1501      0.0481
     28  C23      -19.6500    1.7170   -0.3580 C.3   501  AB1501      0.0567
     29  C24      -19.9500    0.2660   -0.7280 C.3   501  AB1501      0.1738
     30  C25      -18.9120   -0.7750   -0.2910 C.3   501  AB1501      0.1300
     31  N4       -18.8090   -0.6950    1.1650 N.am  501  AB1501     -0.2011
     32  C26      -17.6820   -0.2900    1.7620 C.2   501  AB1501      0.2859
     33  C27      -17.6530   -0.2420    3.2640 C.3   501  AB1501      0.2911
     34  O3       -18.7670   -0.9080    3.8690 O.3   501  AB1501     -0.4662
     35  C28      -18.5830   -1.5070    5.0930 C.ar  501  AB1501      0.1312
     36  O4       -21.1780   -0.0690   -0.0950 O.3   501  AB1501     -0.2212
     37  C29      -19.4580   -2.1780   -0.5800 C.3   501  AB1501      0.0506
     38  O5       -16.6800    0.0410    1.1530 O.2   501  AB1501     -0.2693
     39  C30      -18.4590   -0.7380    6.2550 C.ar  501  AB1501      0.0118
     40  C31      -18.2590   -1.3580    7.4900 C.ar  501  AB1501     -0.0013
     41  C32      -18.1820   -2.7440    7.5680 C.ar  501  AB1501     -0.0004
     42  C33      -18.2980   -3.5140    6.4140 C.ar  501  AB1501     -0.0013
     43  C34      -18.4940   -2.8980    5.1810 C.ar  501  AB1501      0.0118
     44  C35      -18.6140   -3.7620    3.9600 C.3   501  AB1501      0.0342
     45  C36      -18.5460    0.7650    6.2180 C.3   501  AB1501      0.0342
     46  C37      -16.1210    4.0900   -6.5550 C.3   501  AB1501      0.0495
@<TRIPOS>BOND
     1     1    46    1
     2     1     5    1
     3    19    17    1
     4    46     2    1
     5     5     4    2
     6     2     3    1
     7     4    12    2
     8     4     3   am
     9     3    13    1
    10    17    13    1
    11    17    18    1
    12    13    14    1
    13    23    22   ar
    14    23    24   ar
    15    14    20    2
    16    14    15   am
    17    22    21   ar
    18    24    25   ar
    19    15    16    1
    20    21    26   ar
    21    25    26   ar
    22    25    27    1
    23    16    27    1
    24    16    28    1
    25    29    28    1
    26    29    30    1
    27    29    36    1
    28    37    30    1
    29    37     6    1
    30    30    31    1
    31    11     6   ar
    32    11    10   ar
    33     6     7   ar
    34    10     9   ar
    35     7     8   ar
    36     9     8   ar
    37    38    32    2
    38    31    32   am
    39    32    33    1
    40    33    34    1
    41    34    35    1
    42    44    43    1
    43    35    43   ar
    44    35    39   ar
    45    43    42   ar
    46    45    39    1
    47    39    40   ar
    48    42    41   ar
    49    40    41   ar
