@<TRIPOS>MOLECULE
2rkg_AB1_B_1.pdb
 47 49 0 0 0
SMALL
GASTEIGER

@<TRIPOS>ATOM
      1  C1       -12.5830   12.3050    6.9680 C.3   501  AB1501      0.1409
      2  C1        -4.3320   17.0610   -6.9330 C.3   501  AB1501      0.0000
      3  C2       -10.4740   13.0480    5.7760 C.3   501  AB1501      0.1053
      4  N1       -11.2370   14.2330    5.3870 N.am  501  AB1501     -0.2295
      5  C3       -12.5030   14.4660    5.7490 C.1   501  AB1501      0.2113
      6  N2       -13.1700   13.4740    6.3330 N.2   501  AB1501     -0.1900
      7  C4        -6.4060   17.5750   -0.2120 C.ar  501  AB1501     -0.0204
      8  C5        -5.7590   18.6000   -0.9040 C.ar  501  AB1501     -0.0042
      9  C6        -4.4720   18.4050   -1.4090 C.ar  501  AB1501     -0.0003
     10  C7        -3.8230   17.1840   -1.2160 C.ar  501  AB1501     -0.0000
     11  C8        -4.4690   16.1610   -0.5140 C.ar  501  AB1501     -0.0003
     12  C9        -5.7590   16.3530   -0.0170 C.ar  501  AB1501     -0.0042
     13  O1       -13.0410   15.5350    5.5690 O.2   501  AB1501     -0.2063
     14  C10      -10.4930   15.1880    4.5370 C.3   501  AB1501      0.1614
     15  C11      -10.3650   14.6780    3.1150 C.2   501  AB1501      0.2600
     16  N3       -11.2610   15.2040    2.2700 N.am  501  AB1501     -0.2054
     17  C12      -11.3180   14.8460    0.8530 C.3   501  AB1501      0.1023
     18  C13       -9.1480   15.5640    5.1980 C.3   501  AB1501      0.0278
     19  C14       -8.3050   16.4700    4.3100 C.3   501  AB1501      0.0022
     20  C15       -9.3270   16.2580    6.5470 C.3   501  AB1501      0.0022
     21  O2        -9.5120   13.8520    2.7810 O.2   501  AB1501     -0.2715
     22  C16      -12.4550   10.6580    1.9210 C.ar  501  AB1501     -0.0003
     23  C17      -13.4870   10.6420    2.8580 C.ar  501  AB1501     -0.0000
     24  C18      -14.2560   11.7860    3.0630 C.ar  501  AB1501     -0.0003
     25  C19      -13.9910   12.9400    2.3270 C.ar  501  AB1501     -0.0042
     26  C20      -12.9520   12.9620    1.3980 C.ar  501  AB1501     -0.0205
     27  C21      -12.1910   11.8140    1.1890 C.ar  501  AB1501     -0.0042
     28  C22      -12.6950   14.2280    0.6130 C.3   501  AB1501      0.0481
     29  C23      -11.3160   16.1540    0.0660 C.3   501  AB1501      0.0567
     30  C24      -10.2000   17.1290    0.4250 C.3   501  AB1501      0.1738
     31  C25       -8.7910   16.6940    0.0160 C.3   501  AB1501      0.1300
     32  N4        -8.7390   16.5540   -1.4340 N.am  501  AB1501     -0.2011
     33  C26       -8.5640   15.3460   -1.9710 C.2   501  AB1501      0.2859
     34  C27       -8.4930   15.2230   -3.4750 C.3   501  AB1501      0.2911
     35  O3        -8.6070   16.4800   -4.1480 O.3   501  AB1501     -0.4662
     36  C28       -8.0950   16.6300   -5.4150 C.ar  501  AB1501      0.1312
     37  O4       -10.4980   18.3790   -0.1920 O.3   501  AB1501     -0.2212
     38  C29       -7.8040   17.8190    0.3280 C.3   501  AB1501      0.0506
     39  O5        -8.4640   14.3320   -1.2980 O.2   501  AB1501     -0.2693
     40  C30       -8.7070   16.0230   -6.5230 C.ar  501  AB1501      0.0118
     41  C31       -8.1660   16.1920   -7.7940 C.ar  501  AB1501     -0.0013
     42  C32       -7.0230   16.9640   -7.9790 C.ar  501  AB1501     -0.0004
     43  C33       -6.4120   17.5670   -6.8840 C.ar  501  AB1501     -0.0013
     44  C34       -6.9410   17.4030   -5.6060 C.ar  501  AB1501      0.0118
     45  C35       -6.2400   18.0820   -4.4580 C.3   501  AB1501      0.0342
     46  C36       -9.9530   15.1820   -6.4010 C.3   501  AB1501      0.0342
     47  C37      -11.4580   11.9060    6.0230 C.3   501  AB1501      0.0495
@<TRIPOS>BOND
     1    42    41   ar
     2    42    43   ar
     3    41    40   ar
     4    43    44   ar
     5    40    46    1
     6    40    36   ar
     7    44    36   ar
     8    44    45    1
     9    36    35    1
    10    35    34    1
    11    34    33    1
    12    33    32   am
    13    33    39    2
    14    32    31    1
    15     9    10   ar
    16     9     8   ar
    17    10    11   ar
    18     8     7   ar
    19    11    12   ar
    20     7    12   ar
    21     7    38    1
    22    37    30    1
    23    31    38    1
    24    31    30    1
    25    29    30    1
    26    29    17    1
    27    28    17    1
    28    28    26    1
    29    17    16    1
    30    27    26   ar
    31    27    22   ar
    32    26    25   ar
    33    22    23   ar
    34    16    15   am
    35    25    24   ar
    36    21    15    2
    37    23    24   ar
    38    15    14    1
    39    19    18    1
    40    14    18    1
    41    14     4    1
    42    18    20    1
    43     4     5   am
    44     4     3    1
    45    13     5    2
    46     5     6    2
    47     3    47    1
    48    47     1    1
    49     6     1    1
