@<TRIPOS>MOLECULE
2rki_TT1_A_1.pdb
 26 29 0 0 0
SMALL
GASTEIGER

@<TRIPOS>ATOM
      1  C26        6.0080    9.1620   16.8060 C.ar  568  TT1568     -0.0026
      2  C25        6.1690    7.6750   16.4200 C.ar  568  TT1568     -0.0002
      3  C24        6.5060    7.3350   15.0910 C.ar  568  TT1568      0.0008
      4  C23        6.6910    8.3590   14.1220 C.ar  568  TT1568      0.0111
      5  C21        6.5450    9.7460   14.4600 C.ar  568  TT1568      0.0545
      6 CL22        6.7930   10.9080   13.1850 Cl    568  TT1568     -0.0825
      7  C20        6.2020   10.1700   15.8160 C.ar  568  TT1568     -0.0003
      8  C8         6.0430   11.6970   16.1900 C.3   568  TT1568      0.0922
      9  S9         7.2760   12.2580   17.4120 S.3   568  TT1568     -0.0708
     10  C10        8.4960   12.9260   16.2740 C.ar  568  TT1568      0.1938
     11  N19        8.2510   13.2920   15.0770 N.ar  568  TT1568     -0.1221
     12  N18        9.4250   13.7290   14.5640 N.ar  568  TT1568     -0.1277
     13  C12       10.2680   13.5830   15.5050 C.ar  568  TT1568      0.1731
     14  C13       11.6830   13.9620   15.3080 C.ar  568  TT1568      0.0654
     15  C17       12.0860   15.1730   14.9220 C.ar  568  TT1568      0.0101
     16  C16       13.5490   15.2750   14.8180 C.ar  568  TT1568      0.0076
     17  C15       14.1670   14.1330   15.1310 C.ar  568  TT1568      0.0355
     18  S14       13.0350   12.8280   15.5810 S.2   568  TT1568     -0.0833
     19  N11        9.7470   13.0840   16.6020 N.ar  568  TT1568     -0.2858
     20  C1        10.3890   12.7680   17.8950 C.3   568  TT1568      0.1362
     21  C2        10.3440   13.9170   18.9050 C.ar  568  TT1568      0.0005
     22  C7        10.6330   15.2780   18.5230 C.ar  568  TT1568     -0.0024
     23  C6        10.5890   16.3380   19.5030 C.ar  568  TT1568     -0.0003
     24  C5        10.2520   16.0210   20.8820 C.ar  568  TT1568     -0.0000
     25  C4         9.9620   14.6600   21.2710 C.ar  568  TT1568     -0.0003
     26  C3        10.0060   13.6110   20.2900 C.ar  568  TT1568     -0.0024
@<TRIPOS>BOND
     1     6     5    1
     2     4     5   ar
     3     4     3   ar
     4     5     7   ar
     5    12    11   ar
     6    12    13   ar
     7    16    15   ar
     8    16    17   ar
     9    15    14   ar
    10    11    10   ar
    11     3     2   ar
    12    17    18   ar
    13    14    13    1
    14    14    18   ar
    15    13    19   ar
    16     7     8    1
    17     7     1   ar
    18     8     9    1
    19    10    19   ar
    20    10     9    1
    21     2     1   ar
    22    19    20    1
    23    20    21    1
    24    22    21   ar
    25    22    23   ar
    26    21    26   ar
    27    23    24   ar
    28    26    25   ar
    29    24    25   ar
