@<TRIPOS>MOLECULE
2rkm_LYS_A_2.pdb
 10 9 0 0 0
SMALL
GASTEIGER

@<TRIPOS>ATOM
      1  N          5.2010   20.1990   15.8510 N.3   2002  LYS2002    -0.1208
      2  CA         4.2160   20.8820   16.6810 C.3   2002  LYS2002     0.1943
      3  C          2.8770   21.1230   16.0030 C.2   2002  LYS2002     0.3819
      4  O          2.8140   21.0780   14.7630 O.co2 2002  LYS2002    -0.2441
      5  CB         4.7530   22.2500   17.1500 C.3   2002  LYS2002     0.0307
      6  CG         5.9940   22.1200   18.0240 C.3   2002  LYS2002     0.0036
      7  CD         5.8980   22.9130   19.3070 C.3   2002  LYS2002     0.0206
      8  CE         7.1950   22.8600   20.1030 C.3   2002  LYS2002     0.1093
      9  NZ         7.0610   22.0360   21.3460 N.3   2002  LYS2002    -0.1314
     10  OXT        1.8840   21.3300   16.7560 O.co2 2002  LYS2002    -0.2441
@<TRIPOS>BOND
     1     4     3   ar
     2     1     2    1
     3     3     2    1
     4     3    10   ar
     5     2     5    1
     6     5     6    1
     7     6     7    1
     8     7     8    1
     9     8     9    1
