@<TRIPOS>MOLECULE
2rkn_LP3_A_1.pdb
 30 29 0 0 0
SMALL
GASTEIGER

@<TRIPOS>ATOM
      1  C1         4.4350   11.2060   17.0110 C.3   101  LP3101      0.1857
      2  C2         5.3560   12.2890   17.4290 C.3   101  LP3101      0.2252
      3  C3         6.4920   12.3940   16.4780 C.3   101  LP3101      0.2437
      4  C4         1.2670    8.9310   19.6400 C.3   101  LP3101      0.1815
      5  C11        8.6180   11.7880   16.5330 C.2   101  LP3101      0.3171
      6  C12        9.4330   11.6930   15.2550 C.3   101  LP3101      0.1096
      7  C13        9.8000   10.2540   14.8960 C.3   101  LP3101      0.0116
      8  C14       11.3120   10.0390   14.8860 C.3   101  LP3101      0.0006
      9  C15       11.4850    8.5370   14.8480 C.3   101  LP3101      0.0000
     10  C16       12.8510    8.0690   14.4140 C.3   101  LP3101      0.0000
     11  C17       12.6420    6.9250   13.4330 C.3   101  LP3101      0.0000
     12  C18       13.8270    6.7740   12.5100 C.3   101  LP3101      0.0000
     13  C19       13.3750    6.0330   11.2610 C.3   101  LP3101      0.0000
     14  C20       14.4780    5.8980   10.2590 C.3   101  LP3101      0.0000
     15  C21       13.6770    5.6930    9.0000 C.3   101  LP3101      0.0000
     16  C22       14.4250    4.9040    7.9570 C.3   101  LP3101      0.0000
     17  C23       15.9230    5.0430    7.9470 C.3   101  LP3101      0.0000
     18  C24       16.3660    4.4290    6.6420 C.3   101  LP3101      0.0000
     19  C25       17.8530    4.5180    6.5370 C.3   101  LP3101      0.0000
     20  C26       18.1560    4.6660    5.0680 C.3   101  LP3101      0.0000
     21  C27       19.5820    4.3070    4.7770 C.3   101  LP3101      0.0000
     22  C28       20.5250    5.4080    5.2200 C.3   101  LP3101      0.0000
     23  O2         4.6910   13.4420   17.4380 O.3   101  LP3101     -0.2164
     24  O3         7.3550   11.4080   16.5960 O.3   101  LP3101     -0.4456
     25  O11        9.1570   12.2200   17.5350 O.2   101  LP3101     -0.2501
     26  O1P        2.6290    8.5960   17.1450 O.3   101  LP3101     -0.4373
     27  O2P        1.7960   10.8730   16.5650 O.2   101  LP3101     -0.5172
     28  O3P        3.8260   10.5910   18.0390 O.3   101  LP3101     -0.3112
     29  O4P        1.5620   10.1360   18.9370 O.3   101  LP3101     -0.3114
     30  P          2.4430   10.0300   17.6710 P.3   101  LP3101      0.2141
@<TRIPOS>BOND
     1    21    20    1
     2    21    22    1
     3    20    19    1
     4    19    18    1
     5    18    17    1
     6    17    16    1
     7    16    15    1
     8    15    14    1
     9    14    13    1
    10    13    12    1
    11    12    11    1
    12    11    10    1
    13    10     9    1
    14     9     8    1
    15     8     7    1
    16     7     6    1
    17     6     5    1
    18     3    24    1
    19     3     2    1
    20     5    24    1
    21     5    25    2
    22    27    30    2
    23     1     2    1
    24     1    28    1
    25    26    30    1
    26     2    23    1
    27    30    28    1
    28    30    29    1
    29    29     4    1
