@<TRIPOS>MOLECULE
2rku_R78_A_1.pdb
 38 42 0 0 0
SMALL
GASTEIGER

@<TRIPOS>ATOM
      1  N1       -42.7990   11.9460   18.0890 N.2   500  R78500     -0.1669
      2  N3       -44.0660   13.8570   14.7150 N.pl3 500  R78500     -0.2770
      3  C4       -41.8640   12.4240   17.2470 C.2   500  R78500      0.1306
      4  C5       -43.0960   14.3700   13.7230 C.3   500  R78500      0.1521
      5  C6       -41.6760   14.2910   14.1160 C.2   500  R78500      0.2476
      6  C7       -46.3230   11.5110   18.7200 C.ar  500  R78500      0.1164
      7  C8       -45.5350   13.9590   14.5600 C.3   500  R78500      0.0755
      8  C10      -42.8550   11.8550   12.8690 C.3   500  R78500      0.0023
      9  C13      -47.3450   14.9390   13.3030 C.3   500  R78500      0.0018
     10  C15      -46.3390   12.7770   14.0340 C.3   500  R78500      0.0198
     11  C17      -48.2690   10.5240   19.7090 C.ar  500  R78500      0.0428
     12  C20      -47.1180   12.2960   17.8890 C.ar  500  R78500      0.0206
     13  C21      -50.5580   11.0550   19.0150 C.2   500  R78500      0.2648
     14  C22      -52.7790   10.9790   18.1120 C.3   500  R78500      0.0984
     15  C24      -54.9580   12.0160   17.5680 C.3   500  R78500      0.0739
     16  C28      -54.5930    9.7410   16.8070 C.3   500  R78500      0.0739
     17  O2       -50.9800   10.6510   20.0970 O.2   500  R78500     -0.2684
     18  N6       -51.3460   11.2340   17.9720 N.am  500  R78500     -0.2033
     19  C29      -53.0940    9.8630   17.1200 C.3   500  R78500      0.0390
     20  N7       -55.2150   11.0440   16.4880 N.3   500  R78500     -0.2714
     21  C30      -56.6790   10.8900   16.4050 C.3   500  R78500      0.0896
     22  C23      -53.4540   12.2600   17.6620 C.3   500  R78500      0.0390
     23  C18      -49.0750   11.2810   18.8710 C.ar  500  R78500      0.0581
     24  C16      -46.8900   10.6250   19.6330 C.ar  500  R78500      0.1548
     25  O3       -46.0520    9.8690   20.4330 O.3   500  R78500     -0.4701
     26  C31      -46.4850    8.7790   21.2670 C.3   500  R78500      0.2525
     27  C19      -48.5230   12.1720   17.9390 C.ar  500  R78500      0.0061
     28  N5       -44.9550   11.5360   18.7390 N.pl3 500  R78500     -0.1326
     29  C1       -44.1150   12.0470   17.8240 C.1   500  R78500      0.1710
     30  N2       -44.5370   12.6780   16.7250 N.2   500  R78500     -0.3194
     31  C2       -43.6260   13.2120   15.8720 C.2   500  R78500      0.2117
     32  C14      -47.5600   13.4390   13.4150 C.3   500  R78500      0.0018
     33  C12      -45.9180   15.1950   13.7660 C.3   500  R78500      0.0198
     34  C9       -43.1500   13.3440   12.5470 C.3   500  R78500      0.0292
     35  O1       -40.8350   14.8060   13.3360 O.2   500  R78500     -0.2727
     36  N4       -41.2990   13.6610   15.2350 N.am  500  R78500     -0.2510
     37  C11      -39.8810   13.5230   15.6240 C.3   500  R78500      0.1202
     38  C3       -42.2670   13.0880   16.1130 C.2   500  R78500      0.1194
@<TRIPOS>BOND
     1    34     8    1
     2    34     4    1
     3     9    32    1
     4     9    33    1
     5    35     5    2
     6    32    10    1
     7     4     5    1
     8     4     2    1
     9    33     7    1
    10    10     7    1
    11     5    36   am
    12     7     2    1
    13     2    31    1
    14    36    37    1
    15    36    38    1
    16    31    38    1
    17    31    30    2
    18    38     3    2
    19    21    20    1
    20    20    16    1
    21    20    15    1
    22    30    29    2
    23    16    19    1
    24    19    14    1
    25     3     1    1
    26    15    22    1
    27    22    14    1
    28    29     1    2
    29    29    28    1
    30    12    27   ar
    31    12     6   ar
    32    27    23   ar
    33    18    14    1
    34    18    13   am
    35     6    28    1
    36     6    24   ar
    37    23    13    1
    38    23    11   ar
    39    13    17    2
    40    24    11   ar
    41    24    25    1
    42    25    26    1
