@<TRIPOS>MOLECULE
2rkv_COA_A_1.pdb
 45 47 0 0 0
SMALL
GASTEIGER

@<TRIPOS>ATOM
      1  N1A       42.8400   23.1790   40.7490 N.2   452  COA452      0.0021
      2  C2A       41.8980   22.4070   40.1010 C.3   452  COA452      0.5254
      3  N3A       40.9960   22.9900   39.2330 N.2   452  COA452     -0.0055
      4  C4A       41.0500   24.3320   39.0240 C.2   452  COA452      0.3518
      5  C5A       42.0000   25.1280   39.6670 C.2   452  COA452      0.2526
      6  C6A       42.9090   24.5440   40.5460 C.2   452  COA452      0.4393
      7  N6A       43.6360   25.3140   41.3610 N.pl3 452  COA452      0.2180
      8  N7A       41.8180   26.4120   39.2660 N.2   452  COA452     -0.2095
      9  C8A       40.7830   26.4450   38.3920 C.3   452  COA452      0.3377
     10  N9A       40.3020   25.1660   38.2350 N.pl3 452  COA452     -0.1439
     11  C1B       39.1550   24.7440   37.4190 C.3   452  COA452      0.3185
     12  C2B       37.8710   25.1970   38.0820 C.3   452  COA452      0.2543
     13  O2B       37.5050   24.3380   39.1230 O.3   452  COA452     -0.2131
     14  C3B       36.9190   25.1490   36.9110 C.3   452  COA452      0.1928
     15  O3B       36.6310   23.8170   36.6120 O.3   452  COA452     -0.2673
     16  P3B       35.1760   23.2180   36.8450 P.3   452  COA452      0.5327
     17  O7A       34.1930   24.0630   36.0630 O.2   452  COA452     -0.2224
     18  O8A       34.9250   23.2910   38.3290 O.3   452  COA452     -0.1145
     19  O9A       35.1880   21.7890   36.3780 O.3   452  COA452     -0.1145
     20  C4B       37.7860   25.5700   35.7570 C.3   452  COA452      0.1795
     21  O4B       39.1380   25.3610   36.1430 O.3   452  COA452     -0.3136
     22  C5B       37.5310   27.0110   35.3920 C.3   452  COA452      0.1812
     23  O5B       38.2250   27.1050   34.1900 O.3   452  COA452     -0.3112
     24  P1A       37.9160   28.2720   33.1550 P.3   452  COA452      0.2189
     25  O1A       37.7310   29.6000   33.8860 O.3   452  COA452     -0.4371
     26  O2A       39.0090   28.2950   32.1120 O.2   452  COA452     -0.5170
     27  O3A       36.4560   27.9740   32.5770 O.3   452  COA452     -0.2703
     28  P2A       35.9430   26.6460   31.8610 P.3   452  COA452      0.2188
     29  O4A       34.6380   26.2490   32.5110 O.3   452  COA452     -0.4371
     30  O5A       36.9840   25.5660   31.7790 O.2   452  COA452     -0.5170
     31  O6A       35.6510   27.1590   30.3810 O.3   452  COA452     -0.3138
     32  CBP       36.1100   28.3500   28.3780 C.3   452  COA452      0.0645
     33  CCP       36.6970   27.4690   29.4790 C.3   452  COA452      0.1519
     34  CDP       34.9930   27.5870   27.6620 C.3   452  COA452      0.0056
     35  CEP       37.1950   28.6560   27.3480 C.3   452  COA452      0.0056
     36  CAP       35.5800   29.6250   29.0510 C.3   452  COA452      0.2312
     37  OAP       36.6200   30.3260   29.7040 O.3   452  COA452     -0.2131
     38  C9P       34.9530   30.5590   28.0690 C.2   452  COA452      0.2719
     39  O9P       35.7570   31.5110   27.4340 O.2   452  COA452     -0.2706
     40  N8P       33.6500   30.4040   27.8780 N.am  452  COA452     -0.2028
     41  C7P       32.9000   31.1920   26.9320 C.3   452  COA452      0.1249
     42  C6P       33.1390   30.6920   25.5150 C.3   452  COA452      0.1119
     43  C5P       32.2910   31.5460   24.6210 C.2   452  COA452      0.2625
     44  O5P       32.3220   32.7890   24.7400 O.2   452  COA452     -0.2716
     45  N4P       31.5350   30.9010   23.7420 N.am  452  COA452     -0.0877
@<TRIPOS>BOND
     1    45    43   am
     2    43    44    2
     3    43    42    1
     4    42    41    1
     5    41    40    1
     6    35    32    1
     7    39    38    2
     8    34    32    1
     9    40    38   am
    10    38    36    1
    11    32    36    1
    12    32    33    1
    13    36    37    1
    14    33    31    1
    15    31    28    1
    16    30    28    2
    17    28    29    1
    18    28    27    1
    19    26    24    2
    20    27    24    1
    21    24    25    1
    22    24    23    1
    23    23    22    1
    24    22    20    1
    25    20    21    1
    26    20    14    1
    27    17    16    2
    28    21    11    1
    29    19    16    1
    30    15    16    1
    31    15    14    1
    32    16    18    1
    33    14    12    1
    34    11    12    1
    35    11    10    1
    36    12    13    1
    37    10     9    1
    38    10     4    1
    39     9     8    1
    40     4     3    2
    41     4     5    1
    42     3     2    1
    43     8     5    2
    44     5     6    1
    45     2     1    1
    46     6     1    2
    47     6     7    1
