@<TRIPOS>MOLECULE
2rkv_ZBA_A_1.pdb
 33 36 0 0 0
SMALL
GASTEIGER

@<TRIPOS>ATOM
      1  O18       30.2890   29.1090   11.0080 O.2   454  ZBA454     -0.2501
      2  C44       29.8620   30.1840   10.8860 C.2   454  ZBA454      0.3172
      3  C45       29.8010   30.9670    9.6250 C.3   454  ZBA454      0.1096
      4  C46       28.4490   31.0090    9.0810 C.3   454  ZBA454      0.0111
      5  C48       27.9700   29.6770    8.8130 C.3   454  ZBA454      0.0006
      6  C47       28.2590   31.6770    7.7540 C.3   454  ZBA454      0.0006
      7  O17       29.3240   30.8360   11.9220 O.3   454  ZBA454     -0.4480
      8  C31       29.0810   30.1780   13.1750 C.3   454  ZBA454      0.1872
      9  C30       30.2880   30.1800   14.0520 C.3   454  ZBA454      0.0545
     10  C32       27.8900   30.8490   13.7490 C.2   454  ZBA454     -0.0065
     11  C39       26.6370   30.7080   12.9150 C.3   454  ZBA454      0.0297
     12  C33       27.9530   31.5250   14.8540 C.2   454  ZBA454     -0.0021
     13  C34       29.1750   31.6830   15.6750 C.3   454  ZBA454      0.1404
     14  O10       29.0420   30.6950   16.7160 O.3   454  ZBA454     -0.3490
     15  C29       30.4900   31.4260   14.9140 C.3   454  ZBA454      0.0787
     16  C38       30.7640   32.6280   14.0170 C.3   454  ZBA454      0.2112
     17  O12       31.5360   32.2410   12.8910 O.3   454  ZBA454     -0.4484
     18  C40       32.4800   33.0250   12.3970 C.2   454  ZBA454      0.3176
     19  C41       33.1190   32.3760   11.1920 C.3   454  ZBA454      0.1212
     20  O13       32.8130   34.0340   12.8000 O.2   454  ZBA454     -0.2501
     21  C28       31.6700   31.2490   15.9600 C.3   454  ZBA454      0.0730
     22  C37       33.0670   31.1460   15.3170 C.3   454  ZBA454      0.0064
     23  C35       31.3130   30.0450   16.8220 C.3   454  ZBA454      0.1507
     24  C25       30.1330   30.5390   17.5750 C.3   454  ZBA454      0.1765
     25  C36       31.8010   28.6970   16.7480 C.3   454  ZBA454      0.1717
     26  O11       32.3900   29.5960   17.6570 O.3   454  ZBA454     -0.3509
     27  C27       31.5840   32.3690   17.0500 C.3   454  ZBA454      0.2038
     28  C26       30.6390   31.8400   18.1130 C.3   454  ZBA454      0.2210
     29  O16       29.6070   32.7330   18.4250 O.3   454  ZBA454     -0.2165
     30  O14       32.8910   32.4460   17.6280 O.3   454  ZBA454     -0.4494
     31  C42       33.4360   33.5110   18.2030 C.2   454  ZBA454      0.3175
     32  O15       34.5310   33.4990   18.6640 O.2   454  ZBA454     -0.2501
     33  C43       32.5190   34.6200   18.2350 C.3   454  ZBA454      0.1212
@<TRIPOS>BOND
     1     6     4    1
     2     5     4    1
     3     4     3    1
     4     3     2    1
     5     2     1    2
     6     2     7    1
     7    19    18    1
     8     7     8    1
     9    18    20    2
    10    18    17    1
    11    17    16    1
    12    11    10    1
    13     8    10    1
    14     8     9    1
    15    10    12    2
    16    16    15    1
    17     9    15    1
    18    12    13    1
    19    15    13    1
    20    15    21    1
    21    22    21    1
    22    13    14    1
    23    21    23    1
    24    21    27    1
    25    14    24    1
    26    25    23    1
    27    25    26    1
    28    23    24    1
    29    23    26    1
    30    27    30    1
    31    27    28    1
    32    24    28    1
    33    30    31    1
    34    28    29    1
    35    31    33    1
    36    31    32    2
