@<TRIPOS>MOLECULE
2rl1_UD1_A_1.pdb
 39 41 0 0 0
SMALL
GASTEIGER

@<TRIPOS>ATOM
      1  C1'       -1.4080   16.6400  -14.4220 C.3   712  UD1712      0.2633
      2  C2'       -0.4150   16.6250  -15.6020 C.3   712  UD1712      0.1845
      3  C3'        0.4530   15.3440  -15.4940 C.3   712  UD1712      0.2094
      4  C4'        1.2240   15.3360  -14.1550 C.3   712  UD1712      0.2136
      5  C5'        0.1960   15.4030  -12.9990 C.3   712  UD1712      0.1834
      6  C6'        0.8330   15.5620  -11.6170 C.3   712  UD1712      0.2142
      7  C7'       -1.5350   17.7910  -17.4810 C.2   712  UD1712      0.2420
      8  C8'       -2.2410   17.7630  -18.8130 C.3   712  UD1712      0.0964
      9  N2'       -1.1280   16.6100  -16.9160 N.am  712  UD1712     -0.1992
     10  O1'       -2.2310   15.4740  -14.5330 O.3   712  UD1712     -0.2864
     11  O3'        1.4040   15.2760  -16.5750 O.3   712  UD1712     -0.2183
     12  O4'        2.0420   14.1720  -13.9910 O.3   712  UD1712     -0.2176
     13  O5'       -0.6770   16.5690  -13.1630 O.3   712  UD1712     -0.3260
     14  O6'        1.5080   16.8210  -11.5830 O.3   712  UD1712     -0.2176
     15  O7'       -1.3410   18.8770  -16.9410 O.2   712  UD1712     -0.2733
     16  N1        -7.4030   12.3990   -9.1230 N.am  712  UD1712     -0.1766
     17  C2        -8.6000   11.8130   -8.6180 C.1   712  UD1712      0.2845
     18  N3        -9.7520   12.4650   -9.0290 N.2   712  UD1712     -0.2452
     19  C4        -9.8220   13.6110   -9.8690 C.1   712  UD1712      0.2182
     20  C5        -8.5450   14.1290  -10.3240 C.2   712  UD1712      0.1242
     21  C6        -7.4240   13.5330   -9.9560 C.2   712  UD1712      0.0929
     22  O2        -8.6250   10.8150   -7.8870 O.2   712  UD1712     -0.1918
     23  O4       -10.9180   14.0700  -10.1440 O.2   712  UD1712     -0.2085
     24  C1B       -6.0870   11.7550   -8.7550 C.3   712  UD1712      0.2401
     25  C2B       -5.4330   11.0010   -9.8860 C.3   712  UD1712      0.2319
     26  O2'       -5.9710    9.6900  -10.0070 O.3   712  UD1712     -0.2157
     27  C3B       -3.9500   10.9720   -9.4810 C.3   712  UD1712      0.2158
     28  C4B       -3.7610   12.3100   -8.7870 C.3   712  UD1712      0.1799
     29  O4B       -5.1240   12.7280   -8.3700 O.3   712  UD1712     -0.3320
     30  O3B       -3.6470    9.9180   -8.5530 O.3   712  UD1712     -0.2175
     31  C5B       -3.1150   13.4600   -9.6130 C.3   712  UD1712      0.1813
     32  O5B       -4.1840   14.2880  -10.0220 O.3   712  UD1712     -0.3112
     33  PA        -4.1030   15.6640  -10.7690 P.3   712  UD1712      0.2189
     34  O1A       -5.4820   16.2100  -10.9470 O.2   712  UD1712     -0.5170
     35  O2A       -3.2090   16.4690   -9.9010 O.3   712  UD1712     -0.4371
     36  O3A       -3.3210   15.7660  -12.1920 O.3   712  UD1712     -0.2703
     37  PB        -3.5770   15.3900  -13.6980 P.3   712  UD1712      0.2208
     38  O1B       -4.1920   14.0480  -13.7460 O.3   712  UD1712     -0.4371
     39  O2B       -4.5570   16.3870  -14.2320 O.2   712  UD1712     -0.5170
@<TRIPOS>BOND
     1     8     7    1
     2     7    15    2
     3     7     9   am
     4     9     2    1
     5    11     3    1
     6     2     3    1
     7     2     1    1
     8     3     4    1
     9    10     1    1
    10    10    37    1
    11     1    13    1
    12    39    37    2
    13     4    12    1
    14     4     5    1
    15    38    37    1
    16    37    36    1
    17    13     5    1
    18     5     6    1
    19    36    33    1
    20     6    14    1
    21    34    33    2
    22    33    32    1
    23    33    35    1
    24    20    21    2
    25    20    19    1
    26    23    19    2
    27    32    31    1
    28    26    25    1
    29    21    16    1
    30    25    27    1
    31    25    24    1
    32    19    18    2
    33    31    28    1
    34    27    28    1
    35    27    30    1
    36    16    24    1
    37    16    17   am
    38    18    17    2
    39    28    29    1
    40    24    29    1
    41    17    22    2
