@<TRIPOS>MOLECULE
2rl2_UD1_A_1.pdb
 39 41 0 0 0
SMALL
GASTEIGER

@<TRIPOS>ATOM
      1  C1'       30.6280  -45.8730   48.7170 C.3   712  UD1712      0.2633
      2  C2'       31.6680  -45.8390   47.5920 C.3   712  UD1712      0.1845
      3  C3'       32.5740  -47.0850   47.7130 C.3   712  UD1712      0.2094
      4  C4'       33.2810  -47.1420   49.0790 C.3   712  UD1712      0.2136
      5  C5'       32.1780  -47.1630   50.1660 C.3   712  UD1712      0.1834
      6  C6'       32.7320  -47.0350   51.5870 C.3   712  UD1712      0.2142
      7  C7'       30.5390  -44.7490   45.6820 C.2   712  UD1712      0.2420
      8  C8'       29.8810  -44.8270   44.3310 C.3   712  UD1712      0.0964
      9  N2'       31.0120  -45.8870   46.2480 N.am  712  UD1712     -0.1992
     10  O1'       29.7830  -46.9970   48.5070 O.3   712  UD1712     -0.2864
     11  O3'       33.5670  -47.0580   46.6920 O.3   712  UD1712     -0.2183
     12  O4'       34.1200  -48.3070   49.2250 O.3   712  UD1712     -0.2176
     13  O5'       31.2990  -46.0120   50.0050 O.3   712  UD1712     -0.3260
     14  O6'       33.4530  -45.7970   51.6650 O.3   712  UD1712     -0.2176
     15  O7'       30.6300  -43.6680   46.2360 O.2   712  UD1712     -0.2733
     16  N1        24.4620  -50.2820   53.6130 N.am  712  UD1712     -0.1766
     17  C2        23.2630  -50.8460   54.1200 C.1   712  UD1712      0.2845
     18  N3        22.1330  -50.1900   53.6950 N.2   712  UD1712     -0.2452
     19  C4        22.0810  -49.0560   52.8370 C.1   712  UD1712      0.2182
     20  C5        23.3630  -48.5610   52.3850 C.2   712  UD1712      0.1242
     21  C6        24.4660  -49.1640   52.7700 C.2   712  UD1712      0.0929
     22  O2        23.2190  -51.8340   54.8650 O.2   712  UD1712     -0.1918
     23  O4        20.9960  -48.5940   52.5500 O.2   712  UD1712     -0.2085
     24  C1B       25.7540  -50.9300   53.9950 C.3   712  UD1712      0.2401
     25  C2B       26.4290  -51.6760   52.8810 C.3   712  UD1712      0.2319
     26  O2'       25.8640  -52.9680   52.7460 O.3   712  UD1712     -0.2157
     27  C3B       27.8970  -51.7280   53.3440 C.3   712  UD1712      0.2158
     28  C4B       28.0690  -50.4030   54.0430 C.3   712  UD1712      0.1799
     29  O4B       26.7100  -49.9660   54.4160 O.3   712  UD1712     -0.3320
     30  O3B       28.1390  -52.7740   54.3020 O.3   712  UD1712     -0.2175
     31  C5B       28.7710  -49.2560   53.2810 C.3   712  UD1712      0.1813
     32  O5B       27.7690  -48.3100   52.9490 O.3   712  UD1712     -0.3112
     33  PA        28.0140  -46.9020   52.3200 P.3   712  UD1712      0.2189
     34  O1A       26.7310  -46.1730   52.1420 O.2   712  UD1712     -0.5170
     35  O2A       28.9530  -46.2720   53.2550 O.3   712  UD1712     -0.4371
     36  O3A       28.8260  -46.8430   50.9070 O.3   712  UD1712     -0.2703
     37  PB        28.4880  -47.1610   49.4090 P.3   712  UD1712      0.2208
     38  O1B       27.9320  -48.5300   49.3670 O.3   712  UD1712     -0.4371
     39  O2B       27.4400  -46.1970   48.9650 O.2   712  UD1712     -0.5170
@<TRIPOS>BOND
     1     8     7    1
     2     7    15    2
     3     7     9   am
     4     9     2    1
     5    11     3    1
     6     2     3    1
     7     2     1    1
     8     3     4    1
     9    10     1    1
    10    10    37    1
    11     1    13    1
    12    39    37    2
    13     4    12    1
    14     4     5    1
    15    38    37    1
    16    37    36    1
    17    13     5    1
    18     5     6    1
    19    36    33    1
    20     6    14    1
    21    34    33    2
    22    33    32    1
    23    33    35    1
    24    20    21    2
    25    20    19    1
    26    23    19    2
    27    26    25    1
    28    21    16    1
    29    19    18    2
    30    25    27    1
    31    25    24    1
    32    32    31    1
    33    31    28    1
    34    27    28    1
    35    27    30    1
    36    16    24    1
    37    16    17   am
    38    18    17    2
    39    24    29    1
    40    28    29    1
    41    17    22    2
