@<TRIPOS>MOLECULE
2rl5_2RL_A_1.pdb
 35 39 0 0 0
SMALL
GASTEIGER

@<TRIPOS>ATOM
      1  C1        57.7490   52.3500   12.5160 C.2   501  2RL501      0.1519
      2  C2        59.1670   52.5810   12.4520 C.3   501  2RL501      0.1122
      3  C3        60.0300   52.1640   13.4980 C.ar  501  2RL501      0.0661
      4  C4        59.4740   51.4910   14.6530 C.ar  501  2RL501      0.0340
      5  C5        58.0630   51.2560   14.7260 C.3   501  2RL501      0.0973
      6  C6        57.1940   51.6760   13.6700 C.2   501  2RL501      0.1505
      7  N7        61.4000   52.3800   13.4540 N.ar  501  2RL501     -0.2478
      8  C8        62.2280   51.9810   14.4600 C.ar  501  2RL501      0.1016
      9  C9        61.7420   51.3240   15.6100 C.ar  501  2RL501      0.0578
     10  C10       60.3300   51.0670   15.7210 C.ar  501  2RL501      0.1444
     11  O11       59.7340   50.4220   16.8350 O.3   501  2RL501     -0.4536
     12  C12       60.4870   49.5010   17.5690 C.ar  501  2RL501      0.1484
     13  C13       61.1170   49.8870   18.7800 C.ar  501  2RL501      0.0756
     14  C14       61.8700   48.9670   19.5270 C.ar  501  2RL501      0.1552
     15  C15       62.0170   47.6010   19.0700 C.ar  501  2RL501      0.0896
     16  C16       61.3630   47.2380   17.8420 C.ar  501  2RL501      0.0212
     17  C17       60.6120   48.1720   17.1060 C.ar  501  2RL501      0.0390
     18  O25       62.4570   49.4490   20.7280 O.3   501  2RL501     -0.4722
     19  C26       63.5190   48.6280   21.2510 C.3   501  2RL501      0.2273
     20  C27       63.1140   47.1510   21.2480 C.3   501  2RL501      0.1471
     21  N28       62.7920   46.7140   19.8650 N.am  501  2RL501     -0.2350
     22  O33       55.8180   51.3850   13.8690 O.2   501  2RL501     -0.4726
     23  O34       56.8940   52.7640   11.4740 O.2   501  2RL501     -0.4726
     24  C35       63.5620   45.6700   19.3080 C.2   501  2RL501      0.3314
     25  O36       63.5880   45.4420   18.0970 O.2   501  2RL501     -0.2501
     26  N37       64.3040   44.9100   20.1860 N.am  501  2RL501     -0.1619
     27  C38       65.0930   43.8050   19.8780 C.ar  501  2RL501      0.0750
     28  C39       65.9500   43.8160   18.7300 C.ar  501  2RL501      0.0175
     29  C40       66.7540   42.6890   18.4160 C.ar  501  2RL501      0.0127
     30  C41       66.7020   41.5500   19.2530 C.ar  501  2RL501      0.0578
     31  C42       65.8690   41.5120   20.3940 C.ar  501  2RL501      0.0127
     32  C43       65.0630   42.6440   20.7050 C.ar  501  2RL501      0.0175
     33 CL48       67.6740   40.1750   18.8710 Cl    501  2RL501     -0.0822
     34  C49       55.3930   50.0490   14.1360 C.3   501  2RL501      0.2521
     35  C53       57.1690   54.0300   10.8750 C.3   501  2RL501      0.2521
@<TRIPOS>BOND
     1    35    23    1
     2    23     1    1
     3     2     1    1
     4     2     3    1
     5     1     6    2
     6     7     3   ar
     7     7     8   ar
     8     3     4   ar
     9     6    22    1
    10     6     5    1
    11    22    34    1
    12     8     9   ar
    13     4     5    1
    14     4    10   ar
    15     9    10   ar
    16    10    11    1
    17    11    12    1
    18    17    12   ar
    19    17    16   ar
    20    12    13   ar
    21    16    15   ar
    22    25    24    2
    23    29    28   ar
    24    29    30   ar
    25    28    27   ar
    26    13    14   ar
    27    33    30    1
    28    15    14   ar
    29    15    21    1
    30    30    31   ar
    31    24    21   am
    32    24    26   am
    33    14    18    1
    34    21    20    1
    35    27    26    1
    36    27    32   ar
    37    31    32   ar
    38    18    19    1
    39    20    19    1
