@<TRIPOS>MOLECULE
2rl8_M6D_A_1.pdb
 16 16 0 0 0
SMALL
GASTEIGER

@<TRIPOS>ATOM
      1  C1        42.7560   40.1900   18.1890 C.3   500  M6D500      0.3024
      2  C2        42.3760   38.7030   17.9690 C.3   500  M6D500      0.2434
      3  C3        40.9550   38.6380   17.3330 C.3   500  M6D500      0.2199
      4  C4        39.9320   39.3450   18.2560 C.3   500  M6D500      0.2143
      5  C5        40.3760   40.8230   18.4330 C.3   500  M6D500      0.1808
      6  C6        39.4510   41.5820   19.3710 C.3   500  M6D500      0.1859
      7  O1        43.9910   40.2920   18.8620 O.3   500  M6D500     -0.1869
      8  O2        42.3670   38.0170   19.2270 O.3   500  M6D500     -0.2148
      9  O3        40.5690   37.2850   17.1370 O.3   500  M6D500     -0.2174
     10  O4        38.6260   39.2780   17.6610 O.3   500  M6D500     -0.2176
     11  O5        41.7340   40.8590   19.0050 O.3   500  M6D500     -0.3237
     12  O6        39.8030   42.9570   19.5350 O.3   500  M6D500     -0.2675
     13  P         39.4490   43.8030   20.8260 P.3   500  M6D500      0.5327
     14  O1P       37.9640   43.8300   21.0590 O.3   500  M6D500     -0.1145
     15  O2P       39.9260   45.2380   20.6750 O.2   500  M6D500     -0.2224
     16  O3P       40.1190   43.1860   22.0250 O.3   500  M6D500     -0.1145
@<TRIPOS>BOND
     1     9     3    1
     2     3     2    1
     3     3     4    1
     4    10     4    1
     5     2     1    1
     6     2     8    1
     7     1     7    1
     8     1    11    1
     9     4     5    1
    10     5    11    1
    11     5     6    1
    12     6    12    1
    13    12    13    1
    14    15    13    2
    15    13    14    1
    16    13    16    1
