@<TRIPOS>MOLECULE
2rl9_M6P_A_1.pdb
 16 16 0 0 0
SMALL
GASTEIGER

@<TRIPOS>ATOM
      1  C1        43.6550   40.1860   17.6990 C.3   3001  M6P3001     0.3024
      2  C2        42.8180   38.8480   17.5070 C.3   3001  M6P3001     0.2434
      3  C3        41.3250   39.1640   17.1840 C.3   3001  M6P3001     0.2199
      4  C4        40.7450   39.9930   18.3900 C.3   3001  M6P3001     0.2143
      5  C5        41.5600   41.3290   18.4010 C.3   3001  M6P3001     0.1808
      6  C6        41.3070   42.3160   19.4580 C.3   3001  M6P3001     0.1859
      7  O1        43.6570   40.9930   16.4420 O.3   3001  M6P3001    -0.1869
      8  O2        42.8630   38.1290   18.7520 O.3   3001  M6P3001    -0.2148
      9  O3        40.6970   37.9120   17.0170 O.3   3001  M6P3001    -0.2174
     10  O4        39.3900   40.2960   18.1490 O.3   3001  M6P3001    -0.2176
     11  O5        42.9930   41.0790   18.6360 O.3   3001  M6P3001    -0.3237
     12  O6        40.0680   42.8600   19.5670 O.3   3001  M6P3001    -0.2675
     13  P         40.0420   43.9250   20.7670 P.3   3001  M6P3001     0.5327
     14  O1P       38.5800   44.5550   20.8230 O.3   3001  M6P3001    -0.1145
     15  O2P       40.3910   43.2050   22.1490 O.3   3001  M6P3001    -0.1145
     16  O3P       41.1520   45.0660   20.4940 O.2   3001  M6P3001    -0.2224
@<TRIPOS>BOND
     1     7     1    1
     2     9     3    1
     3     3     2    1
     4     3     4    1
     5     2     1    1
     6     2     8    1
     7     1    11    1
     8    10     4    1
     9     4     5    1
    10     5    11    1
    11     5     6    1
    12     6    12    1
    13    12    13    1
    14    16    13    2
    15    13    14    1
    16    13    15    1
