@<TRIPOS>MOLECULE
2rl9_MAN_A_1.pdb
 11 11 0 0 0
SMALL
GASTEIGER

@<TRIPOS>ATOM
      1  C1        43.3910   43.6110   16.6010 C.3   3002  MAN3002     0.2716
      2  C2        44.3520   42.3370   16.2460 C.3   3002  MAN3002     0.0999
      3  C3        44.7610   42.3430   14.7520 C.3   3002  MAN3002     0.1898
      4  C4        43.4950   42.3020   13.8820 C.3   3002  MAN3002     0.2118
      5  C5        42.6570   43.5810   14.1840 C.3   3002  MAN3002     0.1834
      6  C6        41.3330   43.6550   13.3710 C.3   3002  MAN3002     0.2142
      7  O1        44.1060   44.8700   16.6350 O.3   3002  MAN3002    -0.1898
      8  O3        45.5690   41.2080   14.5170 O.3   3002  MAN3002    -0.2201
      9  O4        43.8500   42.2940   12.4960 O.3   3002  MAN3002    -0.2177
     10  O5        42.2830   43.6610   15.6090 O.3   3002  MAN3002    -0.3255
     11  O6        41.5850   43.5830   11.9470 O.3   3002  MAN3002    -0.2176
@<TRIPOS>BOND
     1    11     6    1
     2     9     4    1
     3     6     5    1
     4     4     5    1
     5     4     3    1
     6     5    10    1
     7     8     3    1
     8     3     2    1
     9    10     1    1
    10     2     1    1
    11     1     7    1
