@<TRIPOS>MOLECULE
2rlb_M6D_A_1.pdb
 16 16 0 0 0
SMALL
GASTEIGER

@<TRIPOS>ATOM
      1  C1        42.8710   40.1260   18.1970 C.3   500  M6D500      0.3024
      2  C2        42.5080   38.6280   17.9650 C.3   500  M6D500      0.2434
      3  C3        41.0730   38.5410   17.3450 C.3   500  M6D500      0.2199
      4  C4        40.0450   39.2390   18.2660 C.3   500  M6D500      0.2143
      5  C5        40.4720   40.7290   18.4510 C.3   500  M6D500      0.1808
      6  C6        39.5250   41.4780   19.3940 C.3   500  M6D500      0.1859
      7  O1        44.1080   40.2420   18.8750 O.3   500  M6D500     -0.1869
      8  O2        42.5400   37.9110   19.2040 O.3   500  M6D500     -0.2148
      9  O3        40.6910   37.1870   17.1500 O.3   500  M6D500     -0.2174
     10  O4        38.7380   39.1460   17.6760 O.3   500  M6D500     -0.2176
     11  O5        41.8350   40.7820   19.0200 O.3   500  M6D500     -0.3237
     12  O6        39.8500   42.8560   19.6030 O.3   500  M6D500     -0.2675
     13  P         39.4930   43.6440   20.9430 P.3   500  M6D500      0.5327
     14  O1P       38.0070   43.6490   21.1900 O.3   500  M6D500     -0.1145
     15  O2P       39.9470   45.0910   20.8580 O.2   500  M6D500     -0.2224
     16  O3P       40.1850   42.9750   22.1140 O.3   500  M6D500     -0.1145
@<TRIPOS>BOND
     1     9     3    1
     2     3     2    1
     3     3     4    1
     4    10     4    1
     5     2     1    1
     6     2     8    1
     7     1     7    1
     8     1    11    1
     9     4     5    1
    10     5    11    1
    11     5     6    1
    12     6    12    1
    13    12    13    1
    14    15    13    2
    15    13    14    1
    16    13    16    1
