@<TRIPOS>MOLECULE
2rlf_RIM_A_1.pdb
 34 36 0 0 0
SMALL
GASTEIGER

@<TRIPOS>ATOM
      1  CA       -23.7770    4.5610   -4.3490 C.3   199  RIM199     -0.0494
      2  CB       -23.3310    5.5510   -5.4350 C.3   199  RIM199      0.0077
      3  NC       -21.8620    5.4190   -5.6390 N.3   199  RIM199     -0.3270
      4  CD       -24.0600    5.3020   -6.7820 C.3   199  RIM199     -0.0136
      5  CE1      -23.3800    4.1630   -7.5610 C.3   199  RIM199     -0.0431
      6  CE2      -25.5430    4.9490   -6.5560 C.3   199  RIM199     -0.0431
      7  CE3      -23.9700    6.5910   -7.6100 C.3   199  RIM199     -0.0431
      8  CF1      -24.0920    3.9710   -8.9050 C.3   199  RIM199     -0.0400
      9  CF2      -26.2370    4.7720   -7.9080 C.3   199  RIM199     -0.0400
     10  CF3      -24.6660    6.3970   -8.9570 C.3   199  RIM199     -0.0400
     11  CG1      -25.5600    3.6370   -8.6650 C.3   199  RIM199     -0.0473
     12  CG2      -26.1290    6.0570   -8.7150 C.3   199  RIM199     -0.0473
     13  CG3      -23.9960    5.2580   -9.7130 C.3   199  RIM199     -0.0473
     14  HA1      -23.1030    4.6310   -3.5090 H     199  RIM199      0.0245
     15  HA2      -23.7580    3.5550   -4.7350 H     199  RIM199      0.0245
     16  HA3      -24.7760    4.8080   -4.0220 H     199  RIM199      0.0245
     17  HB       -23.5460    6.5540   -5.0970 H     199  RIM199      0.0461
     18 HNC1      -21.3860    6.0690   -6.1970 H     199  RIM199      0.1185
     19 HNC2      -21.3630    4.7200   -5.1660 H     199  RIM199      0.1185
     20 HE11      -23.4360    3.2470   -6.9950 H     199  RIM199      0.0274
     21 HE12      -22.3460    4.4130   -7.7410 H     199  RIM199      0.0274
     22 HE21      -26.0250    5.7400   -6.0020 H     199  RIM199      0.0274
     23 HE22      -25.6260    4.0220   -6.0120 H     199  RIM199      0.0274
     24 HE31      -22.9310    6.8380   -7.7770 H     199  RIM199      0.0274
     25 HE32      -24.4490    7.3980   -7.0750 H     199  RIM199      0.0274
     26  HF1      -23.6230    3.1650   -9.4500 H     199  RIM199      0.0301
     27  HF2      -27.2780    4.5310   -7.7500 H     199  RIM199      0.0301
     28  HF3      -24.5960    7.3060   -9.5350 H     199  RIM199      0.0301
     29 HG11      -26.0550    3.5110   -9.6260 H     199  RIM199      0.0271
     30 HG12      -25.6230    2.7300   -8.0700 H     199  RIM199      0.0271
     31 HG21      -26.6210    5.9140   -9.6750 H     199  RIM199      0.0271
     32 HG22      -26.5920    6.8670   -8.1550 H     199  RIM199      0.0271
     33 HG31      -24.5070    5.1170  -10.6640 H     199  RIM199      0.0271
     34 HG32      -22.9470    5.5020   -9.8640 H     199  RIM199      0.0271
@<TRIPOS>BOND
     1    33    13    1
     2    34    13    1
     3    13    10    1
     4    13     8    1
     5    31    12    1
     6    29    11    1
     7    28    10    1
     8    26     8    1
     9    10    12    1
    10    10     7    1
    11     8    11    1
    12     8     5    1
    13    12    32    1
    14    12     9    1
    15    11    30    1
    16    11     9    1
    17     9    27    1
    18     9     6    1
    19    24     7    1
    20    21     5    1
    21     7    25    1
    22     7     4    1
    23     5    20    1
    24     5     4    1
    25     4     6    1
    26     4     2    1
    27     6    23    1
    28     6    22    1
    29    18     3    1
    30     3     2    1
    31     3    19    1
    32     2    17    1
    33     2     1    1
    34    15     1    1
    35     1    16    1
    36     1    14    1
