@<TRIPOS>MOLECULE
2rm2_W43_1_1.pdb
 27 29 0 0 0
SMALL
GASTEIGER

@<TRIPOS>ATOM
      1  O1        46.4770   -4.2700  121.5040 O.2   900  W43900     -0.3581
      2  N2        47.5990   -5.0760  121.1730 N.ar  900  W43900     -0.0817
      3  C3        48.4660   -4.8800  122.1080 C.ar  900  W43900      0.1007
      4  C31       49.7770   -5.5860  122.0650 C.3   900  W43900      0.0557
      5  C4        47.9840   -3.9750  123.0630 C.ar  900  W43900      0.0536
      6  C5        46.7560   -3.6230  122.6560 C.ar  900  W43900      0.1541
      7  C1C       45.7010   -2.7220  123.1790 C.3   900  W43900      0.0673
      8  C2C       44.6520   -2.3540  122.1410 C.3   900  W43900      0.0081
      9  C3C       43.7370   -1.2220  122.5940 C.3   900  W43900      0.0005
     10  C4C       42.8100   -1.5580  123.7310 C.3   900  W43900      0.0001
     11  C5C       42.0040   -0.3660  124.2520 C.3   900  W43900      0.0038
     12  C6C       40.8510    0.0350  123.3420 C.3   900  W43900      0.0473
     13  C7C       40.6200    1.5380  123.2220 C.3   900  W43900      0.2054
     14  O1B       39.9470    1.9930  124.4420 O.3   900  W43900     -0.4746
     15  C1B       39.2660    3.2250  124.5120 C.ar  900  W43900      0.1490
     16  C2B       38.7300    3.9670  123.4350 C.ar  900  W43900      0.0379
     17  C3B       38.0270    5.1420  123.6620 C.ar  900  W43900      0.0078
     18  C4B       37.8460    5.6300  124.9460 C.ar  900  W43900      0.0539
     19  C5B       38.4110    4.9280  126.0130 C.ar  900  W43900      0.0191
     20  C6B       39.1080    3.7560  125.7980 C.ar  900  W43900      0.0917
     21 CL1        39.7530    2.9380  127.1620 Cl    900  W43900     -0.0791
     22  C2A       37.0430    6.8330  125.2020 C.2   900  W43900      0.2204
     23  N3A       36.7330    7.3880  126.4890 N.2   900  W43900     -0.2360
     24  C4A       35.9550    8.5030  126.4110 C.3   900  W43900      0.1500
     25  CM1       36.0980    9.9150  126.8330 C.3   900  W43900      0.0304
     26  C5A       35.8210    8.5800  124.9020 C.3   900  W43900      0.2312
     27  O1A       36.4980    7.5530  124.2750 O.2   900  W43900     -0.4583
@<TRIPOS>BOND
     1     2     1   ar
     2     2     3   ar
     3     1     6   ar
     4     4     3    1
     5     3     5   ar
     6     8     9    1
     7     8     7    1
     8     9    10    1
     9     6     5   ar
    10     6     7    1
    11    13    12    1
    12    13    14    1
    13    12    11    1
    14    16    17   ar
    15    16    15   ar
    16    17    18   ar
    17    10    11    1
    18    27    26    1
    19    27    22    1
    20    14    15    1
    21    15    20   ar
    22    26    24    1
    23    18    22    1
    24    18    19   ar
    25    22    23    2
    26    20    19   ar
    27    20    21    1
    28    24    23    1
    29    24    25    1
