@<TRIPOS>MOLECULE
2rnf_UM3_A_1.pdb
 20 21 0 0 0
SMALL
GASTEIGER

@<TRIPOS>ATOM
      1  N1        11.9680    5.9410   13.7290 N.am  301  UM3301     -0.1790
      2  C2        11.2050    4.7750   13.8690 C.1   301  UM3301      0.2844
      3  N3         9.8600    4.9910   14.0390 N.2   301  UM3301     -0.2452
      4  C4         9.2040    6.2210   14.0790 C.1   301  UM3301      0.2182
      5  C5        10.0570    7.3520   13.9450 C.2   301  UM3301      0.1242
      6  C6        11.3780    7.1780   13.7670 C.2   301  UM3301      0.0928
      7  O2        11.6820    3.6420   13.8580 O.2   301  UM3301     -0.1918
      8  O4         7.9810    6.2550   14.1640 O.2   301  UM3301     -0.2085
      9  C1'       13.4150    5.8110   13.4880 C.3   301  UM3301      0.2089
     10  C2'       13.7800    5.5790   12.0300 C.3   301  UM3301      0.0847
     11  C3'       15.0430    6.3980   11.8410 C.3   301  UM3301      0.1601
     12  C4'       14.8440    7.5620   12.8110 C.3   301  UM3301      0.1775
     13  O3'       16.2280    5.6890   12.2200 O.3   301  UM3301     -0.2700
     14  O4'       14.0190    7.0370   13.8780 O.3   301  UM3301     -0.3339
     15  C5'       14.2070    8.8200   12.2540 C.3   301  UM3301      0.2140
     16  O5'       12.9150    8.5160   11.7070 O.3   301  UM3301     -0.2176
     17  P         16.6370    4.3120   11.5080 P.3   301  UM3301      0.5326
     18  O1P       15.5380    3.3350   11.6120 O.3   301  UM3301     -0.1145
     19  O2P       17.9590    3.9900   12.1110 O.3   301  UM3301     -0.1145
     20  O3P       16.8550    4.6910    9.9770 O.2   301  UM3301     -0.2224
@<TRIPOS>BOND
     1    20    17    2
     2    17    18    1
     3    17    19    1
     4    17    13    1
     5    16    15    1
     6    11    10    1
     7    11    13    1
     8    11    12    1
     9    10     9    1
    10    15    12    1
    11    12    14    1
    12     9     1    1
    13     9    14    1
    14     1     6    1
    15     1     2   am
    16     6     5    2
    17     7     2    2
    18     2     3    2
    19     5     4    1
    20     3     4    2
    21     4     8    2
