@<TRIPOS>MOLECULE
2rnt_GPG_A_1.pdb
 43 48 0 0 0
SMALL
GASTEIGER

@<TRIPOS>ATOM
      1  N9A       17.9340   33.2560   20.7850 N.pl3 105  GPG105     -0.2354
      2  C8A       17.4910   32.1080   20.1480 C.3   105  GPG105      0.2246
      3  N7A       16.2060   31.8580   20.1670 N.2   105  GPG105     -0.2322
      4  C5A       15.7210   32.9060   20.8550 C.2   105  GPG105      0.2182
      5  C6A       14.4410   33.3820   21.2990 C.1   105  GPG105      0.2372
      6  O6A       13.4050   32.7490   21.0500 O.2   105  GPG105     -0.2069
      7  N1A       14.2920   34.5970   22.0530 N.2   105  GPG105     -0.2485
      8  C2A       15.4060   35.4160   22.3990 C.1   105  GPG105      0.2531
      9  N2A       15.2290   36.5210   23.0900 N.pl3 105  GPG105     -0.0226
     10  N3A       16.6200   34.9760   21.9720 N.2   105  GPG105     -0.3074
     11  C4A       16.7560   33.7860   21.2490 C.2   105  GPG105      0.2300
     12  O5D       18.2360   34.1560   24.5040 O.3   105  GPG105     -0.2176
     13  C5D       19.4930   34.8320   24.3260 C.3   105  GPG105      0.2142
     14  C4D       19.8710   34.9320   22.8890 C.3   105  GPG105      0.1827
     15  O4D       19.8970   33.6570   22.1540 O.3   105  GPG105     -0.3326
     16  C3D       18.8310   35.7400   22.0270 C.3   105  GPG105      0.2131
     17  O3D       18.9650   37.1260   22.2360 O.3   105  GPG105     -0.2176
     18  C2D       19.4680   35.2870   20.6790 C.3   105  GPG105      0.2010
     19  O2D       20.5830   36.2000   20.4600 O.3   105  GPG105     -0.3095
     20  C1D       19.3330   33.7900   20.8870 C.3   105  GPG105      0.2264
     21  P         20.9310   37.3850   19.4260 P.3   105  GPG105      0.2142
     22  O1P       19.8170   37.1870   18.4180 O.2   105  GPG105     -0.5172
     23  O2P       22.3480   37.3890   18.9570 O.3   105  GPG105     -0.4373
     24  O5E       20.8920   38.8500   19.9950 O.3   105  GPG105     -0.3114
     25  C5E       21.8970   39.7110   20.5800 C.3   105  GPG105      0.1813
     26  C4E       22.5620   40.7580   19.7260 C.3   105  GPG105      0.1799
     27  O4E       21.9590   42.0370   19.4880 O.3   105  GPG105     -0.3326
     28  C3E       23.9280   41.1470   20.3470 C.3   105  GPG105      0.2158
     29  O3E       24.9500   40.9650   19.4080 O.3   105  GPG105     -0.2175
     30  C2E       23.7310   42.5300   20.9950 C.3   105  GPG105      0.2310
     31  O2E       24.7310   43.5110   20.7250 O.3   105  GPG105     -0.2158
     32  C1E       22.5430   43.0850   20.2550 C.3   105  GPG105      0.2293
     33  N9B       21.5560   43.7390   21.1590 N.pl3 105  GPG105     -0.2354
     34  C8B       20.8240   43.3040   22.2450 C.3   105  GPG105      0.2246
     35  N7B       20.0140   44.1960   22.7560 N.2   105  GPG105     -0.2322
     36  C5B       20.2190   45.3120   21.9710 C.2   105  GPG105      0.2182
     37  C6B       19.7230   46.6790   21.8680 C.1   105  GPG105      0.2372
     38  O6B       18.8720   47.1740   22.6090 O.2   105  GPG105     -0.2069
     39  N1B       20.2110   47.5890   20.8610 N.2   105  GPG105     -0.2485
     40  C2B       21.1900   47.2190   19.8860 C.1   105  GPG105      0.2531
     41  N2B       21.5800   48.1140   19.0030 N.pl3 105  GPG105     -0.0226
     42  N3B       21.6410   45.9330   19.9840 N.2   105  GPG105     -0.3074
     43  C4B       21.1830   45.0420   20.9540 C.2   105  GPG105      0.2300
@<TRIPOS>BOND
     1    22    21    2
     2    23    21    1
     3    41    40    1
     4    29    28    1
     5    21    24    1
     6    21    19    1
     7    27    26    1
     8    27    32    1
     9    26    28    1
    10    26    25    1
    11    40    42    2
    12    40    39    2
    13    42    43    2
    14    24    25    1
    15     2     3    1
    16     2     1    1
    17     3     4    2
    18    32    30    1
    19    32    33    1
    20    28    30    1
    21    19    18    1
    22    18    20    1
    23    18    16    1
    24    31    30    1
    25     1    20    1
    26     1    11    1
    27     4    11    1
    28     4     5    1
    29    39    37    2
    30    20    15    1
    31    43    33    1
    32    43    36    1
    33     6     5    2
    34    33    34    1
    35    11    10    2
    36     5     7    2
    37    37    36    1
    38    37    38    2
    39    36    35    2
    40    10     8    2
    41    16    17    1
    42    16    14    1
    43     7     8    2
    44    15    14    1
    45    34    35    1
    46     8     9    1
    47    14    13    1
    48    13    12    1
