@<TRIPOS>MOLECULE
2rok_7MG_A_1.pdb
 39 41 0 0 0
SMALL
GASTEIGER

@<TRIPOS>ATOM
      1  P         -9.7030   -3.2220   11.6400 P.3   523  7MG523      0.3935
      2  OP1      -10.8260   -2.3110   11.9650 O.3   523  7MG523     -0.1425
      3  OP2       -9.5420   -3.6660   10.2340 O.3   523  7MG523     -0.1425
      4  O5'       -8.3300   -2.5090   12.0950 O.3   523  7MG523     -0.3060
      5  C5'       -7.0740   -3.1550   11.9540 C.3   523  7MG523      0.0853
      6  C4'       -5.8940   -2.2410   12.3250 C.3   523  7MG523      0.1131
      7  O4'       -5.7720   -1.1240   11.4600 O.3   523  7MG523     -0.3478
      8  C3'       -5.9510   -1.6800   13.7530 C.3   523  7MG523      0.1133
      9  O3'       -5.4970   -2.5880   14.7560 O.3   523  7MG523     -0.3864
     10  C2'       -5.0330   -0.4550   13.6240 C.3   523  7MG523      0.1263
     11  O2'       -3.6480   -0.7940   13.7150 O.3   523  7MG523     -0.3849
     12  C1'       -5.3400    0.0130   12.1970 C.3   523  7MG523      0.1570
     13  N9        -6.4370    1.0040   12.1260 N.pl3 523  7MG523     -0.2598
     14  C8        -7.7940    0.7580   12.1650 C.3   523  7MG523      0.1149
     15  N7        -8.4800    1.9280   11.7730 N.3   523  7MG523     -0.2618
     16  C5        -7.5020    2.8630   11.5790 C.3   523  7MG523      0.2028
     17  C6        -7.6080    4.1980   11.1560 C.2   523  7MG523      0.2517
     18  O6        -8.6070    4.8220   10.8320 O.2   523  7MG523     -0.2727
     19  N1        -6.4220    4.8360   11.1060 N.am  523  7MG523     -0.2461
     20  C2        -5.2730    4.2450   11.3500 C.2   523  7MG523      0.2388
     21  N2        -4.2610    5.0170   11.2160 N.pl3 523  7MG523     -0.3207
     22  N3        -5.0900    3.0070   11.7380 N.2   523  7MG523     -0.3609
     23  C4        -6.2670    2.3410   11.8250 C.2   523  7MG523      0.1887
     24  CM7       -9.9720    1.9390   11.6380 C.3   523  7MG523     -0.0095
     25  H5'       -6.9460   -3.4910   10.9250 H     523  7MG523      0.0591
     26 H5''       -7.0500   -4.0320   12.6030 H     523  7MG523      0.0591
     27  H4'       -4.9770   -2.8130   12.2050 H     523  7MG523      0.0647
     28  H3'       -6.9650   -1.3370   13.9720 H     523  7MG523      0.0647
     29 HO3'       -6.2160   -3.2240   14.9520 H     523  7MG523      0.2100
     30  H2'       -5.2940    0.3100   14.3580 H     523  7MG523      0.0663
     31 HO2'       -3.5360   -1.3680   14.4990 H     523  7MG523      0.2101
     32  H1'       -4.4390    0.4430   11.7520 H     523  7MG523      0.0837
     33  H82       -8.2290   -0.2040   12.3780 H     523  7MG523      0.0705
     34  HN1       -6.4110    5.7940   10.8180 H     523  7MG523      0.1585
     35 HN21       -4.4070    5.9570   10.8850 H     523  7MG523      0.1459
     36 HN22       -3.3410    4.6270   11.3800 H     523  7MG523      0.1459
     37 HM71      -10.3970    1.0120   12.0230 H     523  7MG523      0.0392
     38 HM72      -10.2410    2.0470   10.5870 H     523  7MG523      0.0392
     39 HM73      -10.3830    2.7820   12.1940 H     523  7MG523      0.0392
@<TRIPOS>BOND
     1     3     1    1
     2    38    24    1
     3    34    19    1
     4    18    17    2
     5    35    21    1
     6    25     5    1
     7    19    17   am
     8    19    20    1
     9    17    16    1
    10    21    20    1
    11    21    36    1
    12    20    22    2
    13     7    12    1
    14     7     6    1
    15    16    15    1
    16    16    23    1
    17    24    15    1
    18    24    37    1
    19    24    39    1
    20     1     2    1
    21     1     4    1
    22    22    23    2
    23    32    12    1
    24    15    14    1
    25    23    13    1
    26     5     4    1
    27     5     6    1
    28     5    26    1
    29    13    14    1
    30    13    12    1
    31    14    33    1
    32    12    10    1
    33    27     6    1
    34     6     8    1
    35    10    11    1
    36    10     8    1
    37    10    30    1
    38    11    31    1
    39     8    28    1
    40     8     9    1
    41     9    29    1
