@<TRIPOS>MOLECULE
2rok_GDP_A_1.pdb
 40 42 0 0 0
SMALL
GASTEIGER

@<TRIPOS>ATOM
      1  PB       -10.2780   -4.7520   13.9580 P.3   524  GDP524      0.5373
      2  O1B       -9.4520   -5.8960   14.4250 O.3   524  GDP524     -0.1143
      3  O2B      -11.7530   -4.9360   13.8850 O.3   524  GDP524     -0.1143
      4  O3B       -9.8160   -4.5290   12.4870 O.2   524  GDP524     -0.2221
      5  O3A       -9.9270   -3.4670   14.7260 O.3   524  GDP524     -0.2261
      6  PA        -9.8110   -3.4180   16.2620 P.3   524  GDP524      0.2224
      7  O1A       -8.3950   -3.6340   16.6670 O.2   524  GDP524     -0.5170
      8  O2A      -10.8750   -4.2050   16.9470 O.3   524  GDP524     -0.4370
      9  O5'      -10.1410   -1.8660   16.6000 O.3   524  GDP524     -0.3245
     10  C5'       -9.5580   -0.7830   15.8750 C.3   524  GDP524      0.0836
     11  C4'       -8.1270   -0.4400   16.3240 C.3   524  GDP524      0.1131
     12  O4'       -7.6250    0.5600   15.4400 O.3   524  GDP524     -0.3474
     13  C3'       -8.0690    0.1220   17.7550 C.3   524  GDP524      0.1133
     14  O3'       -6.8360   -0.2270   18.3920 O.3   524  GDP524     -0.3864
     15  C2'       -8.1410    1.6290   17.4780 C.3   524  GDP524      0.1266
     16  O2'       -7.6120    2.4260   18.5340 O.3   524  GDP524     -0.3849
     17  C1'       -7.3230    1.7250   16.1880 C.3   524  GDP524      0.1617
     18  N9        -7.6380    2.9380   15.4040 N.pl3 524  GDP524     -0.2241
     19  C8        -8.8580    3.3660   14.9480 C.2   524  GDP524      0.1451
     20  N7        -8.8390    4.5540   14.3960 N.2   524  GDP524     -0.3865
     21  C5        -7.4900    4.9330   14.4700 C.2   524  GDP524      0.2296
     22  C6        -6.7950    6.1190   14.0290 C.2   524  GDP524      0.2859
     23  O6        -7.2430    7.1380   13.5010 O.2   524  GDP524     -0.2668
     24  N1        -5.4270    6.0560   14.2190 N.am  524  GDP524     -0.2418
     25  C2        -4.7940    4.9990   14.7840 C.2   524  GDP524      0.2395
     26  N2        -3.4930    5.0550   14.8520 N.pl3 524  GDP524     -0.3206
     27  N3        -5.3960    3.9030   15.2390 N.2   524  GDP524     -0.3551
     28  C4        -6.7480    3.9240   15.0490 C.2   524  GDP524      0.2272
     29  H5'      -10.1850    0.1010   16.0000 H     524  GDP524      0.0591
     30 H5''       -9.5370   -1.0150   14.8080 H     524  GDP524      0.0591
     31  H4'       -7.5040   -1.3300   16.2570 H     524  GDP524      0.0647
     32  H3'       -8.9240   -0.2060   18.3510 H     524  GDP524      0.0647
     33 HO3'       -6.8650   -1.1800   18.6200 H     524  GDP524      0.2100
     34  H2'       -9.1800    1.9040   17.2820 H     524  GDP524      0.0663
     35 HO2'       -6.8910    1.9120   18.9550 H     524  GDP524      0.2101
     36  H1'       -6.2610    1.7240   16.4510 H     524  GDP524      0.0841
     37  H8        -9.7450    2.7520   15.0420 H     524  GDP524      0.1149
     38  HN1       -4.8670    6.8200   13.8740 H     524  GDP524      0.1589
     39 HN21       -3.0030    5.8380   14.4490 H     524  GDP524      0.1459
     40 HN22       -3.0130    4.2440   15.2470 H     524  GDP524      0.1459
@<TRIPOS>BOND
     1     4     1    2
     2    23    22    2
     3    38    24    1
     4     3     1    1
     5     1     2    1
     6     1     5    1
     7    22    24   am
     8    22    21    1
     9    24    25    1
    10    20    21    2
    11    20    19    2
    12    39    26    1
    13    21    28    1
    14     5     6    1
    15    25    26    1
    16    25    27    2
    17    30    10    1
    18    26    40    1
    19    19    37    1
    20    19    18    1
    21    28    27    2
    22    28    18    1
    23    18    17    1
    24    12    17    1
    25    12    11    1
    26    10    29    1
    27    10    11    1
    28    10     9    1
    29    17    36    1
    30    17    15    1
    31    31    11    1
    32     6     9    1
    33     6     7    2
    34     6     8    1
    35    11    13    1
    36    34    15    1
    37    15    13    1
    38    15    16    1
    39    13    32    1
    40    13    14    1
    41    14    33    1
    42    16    35    1
