@<TRIPOS>MOLECULE
2rom_HEM_A_1.pdb
 43 50 0 0 0
SMALL
GASTEIGER

@<TRIPOS>ATOM
      1 FE         52.1510   10.6310   20.6770 Fe    501  HEM501      0.0000
      2  CHA       49.5510   10.5710   22.8730 C.2   501  HEM501      0.0000
      3  CHB       50.1860    9.2410   18.2800 C.2   501  HEM501      0.0000
      4  CHC       54.6490   11.0210   18.3780 C.2   501  HEM501      0.0000
      5  CHD       54.2350   11.6810   23.0800 C.2   501  HEM501      0.0000
      6  NA        50.2820   10.0370   20.6100 N.ar  501  HEM501      0.0000
      7  C1A       49.3200   10.1180   21.5900 C.ar  501  HEM501      0.0000
      8  C2A       48.0320    9.6530   21.0470 C.ar  501  HEM501      0.0000
      9  C3A       48.2090    9.1110   19.8120 C.ar  501  HEM501      0.0000
     10  C4A       49.6190    9.4290   19.5190 C.ar  501  HEM501      0.0000
     11  CMA       47.1710    8.3550   18.9570 C.3   501  HEM501      0.0000
     12  CAA       46.7240   10.1680   21.5030 C.3   501  HEM501      0.0000
     13  CBA       46.0900    9.4340   22.6340 C.3   501  HEM501      0.0000
     14  CGA       44.8970   10.1810   23.1730 C.2   501  HEM501      0.0000
     15  O1A       44.2410   10.9140   22.3940 O.co2 501  HEM501      0.0000
     16  O2A       44.6180   10.0390   24.3740 O.co2 501  HEM501      0.0000
     17  NB        52.3780   10.2230   18.7720 N.2   501  HEM501      0.0000
     18  C1B       51.4590    9.6240   17.9190 C.2   501  HEM501      0.0000
     19  C2B       51.9580    9.4610   16.5770 C.2   501  HEM501      0.0000
     20  C3B       53.2340    9.9660   16.6190 C.2   501  HEM501      0.0000
     21  C4B       53.4670   10.4510   17.9530 C.2   501  HEM501      0.0000
     22  CMB       51.1320    8.9080   15.3890 C.3   501  HEM501      0.0000
     23  CAB       54.1960    9.9340   15.6320 C.3   501  HEM501      0.0000
     24  CBB       54.0060   10.4380   14.3560 C.3   501  HEM501      0.0000
     25  NC        54.0520   11.1950   20.7250 N.ar  501  HEM501      0.0000
     26  C1C       54.9390   11.3570   19.6870 C.ar  501  HEM501      0.0000
     27  C2C       56.2380   11.8180   20.1360 C.ar  501  HEM501      0.0000
     28  C3C       56.1350   11.9620   21.4670 C.ar  501  HEM501      0.0000
     29  C4C       54.7770   11.5680   21.8200 C.ar  501  HEM501      0.0000
     30  CMC       57.4710   12.0710   19.2670 C.3   501  HEM501      0.0000
     31  CAC       57.1370   12.3390   22.3490 C.3   501  HEM501      0.0000
     32  CBC       57.5130   13.6470   22.6210 C.3   501  HEM501      0.0000
     33  ND        51.9190   11.0830   22.5600 N.2   501  HEM501      0.0000
     34  C1D       52.9190   11.4680   23.4360 C.2   501  HEM501      0.0000
     35  C2D       52.4190   11.6620   24.7670 C.2   501  HEM501      0.0000
     36  C3D       51.0820   11.3980   24.7130 C.2   501  HEM501      0.0000
     37  C4D       50.7820   11.0200   23.3450 C.2   501  HEM501      0.0000
     38  CMD       53.2740   12.1370   25.9360 C.3   501  HEM501      0.0000
     39  CAD       50.0740   11.5610   25.8450 C.3   501  HEM501      0.0000
     40  CBD       49.4190   12.9360   25.8650 C.3   501  HEM501      0.0000
     41  CGD       48.3470   13.0740   26.9380 C.2   501  HEM501      0.0000
     42  O1D       48.0250   14.2180   27.3020 O.co2 501  HEM501      0.0000
     43  O2D       47.8140   12.0490   27.4120 O.co2 501  HEM501      0.0000
@<TRIPOS>BOND
     1    24    23    1
     2    22    19    1
     3    23    20    1
     4    19    20    2
     5    19    18    1
     6    20    21    1
     7    18     3    1
     8    18    17    2
     9    21     4    2
    10    21    17    1
    11     3    10    2
    12     4    26    1
    13    17     1    1
    14    11     9    1
    15    30    27    1
    16    10     9   ar
    17    10     6   ar
    18    26    27   ar
    19    26    25   ar
    20     9     8   ar
    21    27    28   ar
    22     6     1    1
    23     6     7   ar
    24     1    25    1
    25     1    33    1
    26    25    29   ar
    27     8    12    1
    28     8     7   ar
    29    28    29   ar
    30    28    31    1
    31    12    13    1
    32     7     2    2
    33    29     5    1
    34    31    32    1
    35    15    14   ar
    36    33    37    2
    37    33    34    1
    38    13    14    1
    39     2    37    1
    40     5    34    2
    41    14    16   ar
    42    37    36    1
    43    34    35    1
    44    36    35    2
    45    36    39    1
    46    35    38    1
    47    39    40    1
    48    40    41    1
    49    41    42   ar
    50    41    43   ar
