@<TRIPOS>MOLECULE
2rox_T44_A_1.pdb
 24 25 0 0 0
SMALL
GASTEIGER

@<TRIPOS>ATOM
      1  C1        21.0550   44.0460    0.7430 C.ar  128  T44128     -0.0191
      2  C2        22.2810   44.3810    1.3380 C.ar  128  T44128      0.0047
      3  C3        22.6410   43.7860    2.5320 C.ar  128  T44128      0.0647
      4  C4        21.8650   42.8680    3.2110 C.ar  128  T44128      0.1558
      5  C5        20.6610   42.5530    2.5930 C.ar  128  T44128      0.0647
      6  C6        20.2790   43.1390    1.3920 C.ar  128  T44128      0.0047
      7  C7        20.5840   44.6190   -0.5140 C.3   128  T44128      0.0570
      8  C8        20.8730   43.7030   -1.6210 C.3   128  T44128      0.1986
      9  C9        19.6580   42.8770   -2.1560 C.2   128  T44128      0.3822
     10  C1'       21.7880   42.5940    5.6430 C.ar  128  T44128      0.1464
     11  C2'       21.1190   43.7220    5.9030 C.ar  128  T44128      0.0465
     12  C3'       20.7150   43.9980    7.2090 C.ar  128  T44128      0.0724
     13  C4'       20.9510   43.1640    8.3010 C.ar  128  T44128      0.2064
     14  C5'       21.6520   41.9850    7.9930 C.ar  128  T44128      0.0724
     15  C6'       22.0780   41.6740    6.6790 C.ar  128  T44128      0.0465
     16  N8        21.2130   44.5050   -2.8290 N.3   128  T44128     -0.1205
     17  O4        22.2560   42.2370    4.3800 O.3   128  T44128     -0.4526
     18  O4'       20.5300   43.5000    9.5120 O.3   128  T44128     -0.2857
     19  O9        18.5280   43.3520   -2.1040 O.co2 128  T44128     -0.2440
     20  O10       19.9800   41.7600   -2.6030 O.co2 128  T44128     -0.2440
     21  I3        24.4750   44.3410    3.3680 I     128  T44128     -0.0393
     22  I3'       19.7060   45.8150    7.3950 I     128  T44128     -0.0391
     23  I5        19.2660   41.2190    3.3300 I     128  T44128     -0.0393
     24  I5'       21.9970   40.7120    9.6440 I     128  T44128     -0.0391
@<TRIPOS>BOND
     1    16     8    1
     2    20     9   ar
     3     9    19   ar
     4     9     8    1
     5     8     7    1
     6     7     1    1
     7     1     2   ar
     8     1     6   ar
     9     2     3   ar
    10     6     5   ar
    11     3     4   ar
    12     3    21    1
    13     5     4   ar
    14     5    23    1
    15     4    17    1
    16    17    10    1
    17    10    11   ar
    18    10    15   ar
    19    11    12   ar
    20    15    14   ar
    21    12    22    1
    22    12    13   ar
    23    14    13   ar
    24    14    24    1
    25    13    18    1
