@<TRIPOS>MOLECULE
2roy_P28_A_1.pdb
 29 30 0 0 0
SMALL
GASTEIGER

@<TRIPOS>ATOM
      1  C1        19.4260   42.0730    3.7890 C.ar  128  P28128     -0.0197
      2  C2        20.0760   41.0140    4.4000 C.ar  128  P28128     -0.0011
      3  C3        21.1180   41.3350    5.2490 C.ar  128  P28128      0.0372
      4  C4        21.5510   42.6190    5.4710 C.ar  128  P28128      0.1453
      5  C5        20.9150   43.6630    4.8170 C.ar  128  P28128      0.0372
      6  C6        19.8740   43.3540    3.9480 C.ar  128  P28128     -0.0011
      7  C7        18.3090   42.0000    2.7340 C.3   128  P28128      0.0596
      8  C8        18.5400   41.6410    1.2780 C.3   128  P28128      0.2020
      9  C9        17.2430   41.8980    0.4070 C.2   128  P28128      0.3845
     10  O9        16.9440   43.0700    0.1340 O.co2 128  P28128     -0.2437
     11  O10       16.6460   40.8670    0.0480 O.co2 128  P28128     -0.2437
     12  N8        19.6160   42.3490    0.5240 N.am  128  P28128     -0.1952
     13  C81       20.6960   41.5890    0.5850 C.2   128  P28128      0.2423
     14  C82       22.0490   42.1570    0.2250 C.3   128  P28128      0.0964
     15  O81       20.6100   40.2960    0.9130 O.2   128  P28128     -0.2733
     16  O41       22.5980   42.9000    6.3080 O.3   128  P28128     -0.4534
     17  C1'       22.3350   43.0450    7.6560 C.ar  128  P28128      0.1488
     18  C2'       21.9020   42.0110    8.3750 C.ar  128  P28128      0.0649
     19  C3'       21.6410   42.2070    9.7390 C.ar  128  P28128      0.1862
     20  N3        21.1960   41.2080   10.4350 N.pl3 128  P28128      0.0610
     21  O31       20.9490   41.3200   11.6050 O.2   128  P28128     -0.1260
     22  O32       21.0520   40.1530    9.8990 O.2   128  P28128     -0.1260
     23  C4'       21.8360   43.4480   10.4070 C.ar  128  P28128      0.2404
     24  O4'       21.5910   43.5840   11.7050 O.3   128  P28128     -0.2830
     25  C5'       22.3000   44.4750    9.5810 C.ar  128  P28128      0.1862
     26  N5        22.5150   45.6440   10.0690 N.pl3 128  P28128      0.0610
     27  O51       22.3480   45.9010   11.2160 O.2   128  P28128     -0.1260
     28  O52       22.9120   46.5030    9.2920 O.2   128  P28128     -0.1260
     29  C6'       22.5740   44.3170    8.2070 C.ar  128  P28128      0.0649
@<TRIPOS>BOND
     1    11     9   ar
     2    10     9   ar
     3    14    13    1
     4     9     8    1
     5    12    13   am
     6    12     8    1
     7    13    15    2
     8     8     7    1
     9     7     1    1
    10     1     6   ar
    11     1     2   ar
    12     6     5   ar
    13     2     3   ar
    14     5     4   ar
    15     3     4   ar
    16     4    16    1
    17    16    17    1
    18    17    29   ar
    19    17    18   ar
    20    29    25   ar
    21    18    19   ar
    22    28    26    2
    23    25    26    1
    24    25    23   ar
    25    19    23   ar
    26    19    20    1
    27    22    20    2
    28    26    27    2
    29    23    24    1
    30    20    21    2
