@<TRIPOS>MOLECULE
2rqf_JH3_A_1.pdb
 45 45 0 0 0
SMALL
GASTEIGER

@<TRIPOS>ATOM
      1  C1         0.2370   10.9260    4.9040 C.2   300  JH3300      0.3316
      2  O2         1.3710   11.1050    4.4440 O.2   300  JH3300     -0.2456
      3  O1        -0.3420    9.6890    5.1510 O.3   300  JH3300     -0.4649
      4  CM         0.4280    8.5050    4.8500 C.3   300  JH3300      0.0820
      5  C2        -0.7160   12.0490    5.2820 C.2   300  JH3300      0.0215
      6  C3        -0.8850   12.6680    6.4670 C.2   300  JH3300     -0.0656
      7  C3'       -0.0830   12.3400    7.7170 C.3   300  JH3300     -0.0433
      8  C4        -1.9110   13.7920    6.6000 C.3   300  JH3300     -0.0281
      9  C5        -1.7310   14.8900    5.5290 C.3   300  JH3300     -0.0308
     10  C6        -0.3310   15.4800    5.5420 C.2   300  JH3300     -0.0847
     11  C7         0.6700   15.2550    4.6710 C.2   300  JH3300     -0.0764
     12  C7'        0.5230   14.3560    3.4520 C.3   300  JH3300     -0.0438
     13  C8         2.0140   15.9580    4.8490 C.3   300  JH3300     -0.0296
     14  C9         3.1810   14.9730    5.0690 C.3   300  JH3300     -0.0202
     15  CA         4.4890   15.4650    4.4150 C.3   300  JH3300      0.0881
     16  O3         5.0380   14.4910    3.4890 O.3   300  JH3300     -0.3653
     17  CB         4.6360   15.7730    2.9460 C.3   300  JH3300      0.0904
     18  CB'        5.8520   16.6040    2.5070 C.3   300  JH3300     -0.0336
     19  CC         3.4760   15.6310    1.9430 C.3   300  JH3300     -0.0336
     20  HM         1.4280    8.5380    5.3220 H     300  JH3300      0.0661
     21  HMA        0.5620    8.3720    3.7600 H     300  JH3300      0.0661
     22  HMB       -0.0880    7.6060    5.2330 H     300  JH3300      0.0661
     23  H2        -1.3470   12.3930    4.4600 H     300  JH3300      0.0688
     24  H3'        0.6260   11.5110    7.5350 H     300  JH3300      0.0274
     25 H3'A        0.5180   13.1940    8.0830 H     300  JH3300      0.0274
     26 H3'B       -0.7430   12.0340    8.5500 H     300  JH3300      0.0274
     27  H4        -1.8420   14.2410    7.6100 H     300  JH3300      0.0313
     28  H4A       -2.9410   13.3870    6.5500 H     300  JH3300      0.0313
     29  H5        -2.4590   15.7040    5.7030 H     300  JH3300      0.0310
     30  H5A       -1.9750   14.4940    4.5240 H     300  JH3300      0.0310
     31  H6        -0.1330   16.1460    6.3840 H     300  JH3300      0.0572
     32  H7'        1.2970   13.5660    3.4440 H     300  JH3300      0.0274
     33 H7'A       -0.4570   13.8450    3.4120 H     300  JH3300      0.0274
     34 H7'B        0.6220   14.9240    2.5090 H     300  JH3300      0.0274
     35  H8         1.9580   16.6610    5.7020 H     300  JH3300      0.0311
     36  H8A        2.2330   16.6050    3.9760 H     300  JH3300      0.0311
     37  H9         2.9240   13.9860    4.6420 H     300  JH3300      0.0294
     38  H9A        3.3180   14.8030    6.1530 H     300  JH3300      0.0294
     39  HA         5.2680   15.8780    5.0830 H     300  JH3300      0.0625
     40  HB'        6.3940   17.0140    3.3800 H     300  JH3300      0.0258
     41 HB'A        5.5760   17.4640    1.8680 H     300  JH3300      0.0258
     42 HB'B        6.5690   15.9900    1.9340 H     300  JH3300      0.0258
     43  HC         2.9480   14.6680    2.0760 H     300  JH3300      0.0258
     44  HCA        2.7120   16.4220    2.0430 H     300  JH3300      0.0258
     45  HCB        3.8460   15.6600    0.9020 H     300  JH3300      0.0258
@<TRIPOS>BOND
     1    45    19    1
     2    41    18    1
     3    42    18    1
     4    19    44    1
     5    19    43    1
     6    19    17    1
     7    18    17    1
     8    18    40    1
     9    34    12    1
    10    17    16    1
    11    17    15    1
    12    33    12    1
    13    32    12    1
    14    12    11    1
    15    16    15    1
    16    21     4    1
    17    36    13    1
    18    15    14    1
    19    15    39    1
    20     2     1    2
    21    23     5    1
    22    30     9    1
    23    37    14    1
    24    11    13    1
    25    11    10    2
    26    13    14    1
    27    13    35    1
    28     4     3    1
    29     4    22    1
    30     4    20    1
    31     1     3    1
    32     1     5    1
    33    14    38    1
    34     5     6    2
    35     9    10    1
    36     9    29    1
    37     9     8    1
    38    10    31    1
    39     6     8    1
    40     6     7    1
    41    28     8    1
    42     8    27    1
    43    24     7    1
    44     7    25    1
    45     7    26    1
