@<TRIPOS>MOLECULE
2rqz_FUC_A_1.pdb
 20 20 0 0 0
SMALL
GASTEIGER

@<TRIPOS>ATOM
      1  C1         9.8450   -4.6620    6.7830 C.3    39  FUC39       0.1161
      2  C2        10.2690   -5.4950    7.9890 C.3    39  FUC39       0.1154
      3  C3         9.5410   -6.8340    7.9790 C.3    39  FUC39       0.1500
      4  C4         9.7660   -7.5310    6.6430 C.3    39  FUC39       0.1126
      5  C5         9.3610   -6.6070    5.4980 C.3    39  FUC39       0.0849
      6  C6         9.6330   -7.2130    4.1360 C.3    39  FUC39      -0.0361
      7  O2         9.9650   -4.7930    9.1850 O.3    39  FUC39      -0.3864
      8  O3        10.0350   -7.6630    9.0490 O.3    39  FUC39      -0.2256
      9  O4        11.1360   -7.8830    6.5110 O.3    39  FUC39      -0.3865
     10  O5        10.1030   -5.3750    5.5710 O.3    39  FUC39      -0.3657
     11  H1        10.3980   -3.7120    6.7930 H      39  FUC39       0.0650
     12  H2        11.3500   -5.6800    7.9280 H      39  FUC39       0.0648
     13  H3         8.4650   -6.6540    8.1100 H      39  FUC39       0.0682
     14  H4         9.1410   -8.4340    6.6060 H      39  FUC39       0.0647
     15  H5         8.2930   -6.3600    5.5840 H      39  FUC39       0.0620
     16  H61        9.0260   -8.1210    4.0050 H      39  FUC39       0.0255
     17  H62        9.3730   -6.4910    3.3510 H      39  FUC39       0.0255
     18  H63       10.6970   -7.4740    4.0500 H      39  FUC39       0.0255
     19  HO2        9.0190   -4.6360    9.2310 H      39  FUC39       0.2100
     20  HO4       11.6730   -7.0880    6.5470 H      39  FUC39       0.2100
@<TRIPOS>BOND
     1    17     6    1
     2    16     6    1
     3    18     6    1
     4     6     5    1
     5     5    10    1
     6     5    15    1
     7     5     4    1
     8    10     1    1
     9     9    20    1
    10     9     4    1
    11    14     4    1
    12     4     3    1
    13     1    11    1
    14     1     2    1
    15    12     2    1
    16     3     2    1
    17     3    13    1
    18     3     8    1
    19     2     7    1
    20     7    19    1
