@<TRIPOS>MOLECULE
2rr1_W8R_1_1.pdb
 26 28 0 0 0
SMALL
GASTEIGER

@<TRIPOS>ATOM
      1  O1        46.6100   -4.1860  121.7380 O.2   900  W8R900     -0.3581
      2  N2        47.7500   -4.9810  121.4400 N.ar  900  W8R900     -0.0817
      3  C3        48.5950   -4.7610  122.3900 C.ar  900  W8R900      0.1007
      4  C31       49.9170   -5.4480  122.3850 C.3   900  W8R900      0.0557
      5  C4        48.0810   -3.8540  123.3220 C.ar  900  W8R900      0.0536
      6  C5        46.8570   -3.5220  122.8880 C.ar  900  W8R900      0.1541
      7  C1C       45.7880   -2.6310  123.3950 C.3   900  W8R900      0.0673
      8  C2C       44.6580   -2.4040  122.4070 C.3   900  W8R900      0.0081
      9  C3C       43.7780   -1.2220  122.7890 C.3   900  W8R900      0.0005
     10  C4C       42.5200   -1.5750  123.5260 C.3   900  W8R900      0.0001
     11  C5C       41.8100   -0.3820  124.1460 C.3   900  W8R900      0.0038
     12  C6C       40.8520    0.2970  123.1960 C.3   900  W8R900      0.0473
     13  C7C       40.6300    1.7500  123.4930 C.3   900  W8R900      0.2054
     14  O1B       39.7870    1.8140  124.6640 O.3   900  W8R900     -0.4755
     15  C1B       39.1620    2.9900  124.9880 C.ar  900  W8R900      0.1386
     16  C2B       39.2270    3.6180  126.2340 C.ar  900  W8R900      0.0370
     17  C3B       38.5800    4.8170  126.4260 C.ar  900  W8R900      0.0077
     18  C4B       37.8530    5.4050  125.4000 C.ar  900  W8R900      0.0530
     19  C5B       37.7620    4.7490  124.1640 C.ar  900  W8R900      0.0077
     20  C6B       38.4110    3.5570  123.9650 C.ar  900  W8R900      0.0370
     21  C2A       37.2340    6.7150  125.5870 C.2   900  W8R900      0.2204
     22  N3A       37.4050    7.5680  126.7230 N.2   900  W8R900     -0.2360
     23  C4A       36.7270    8.7400  126.6110 C.3   900  W8R900      0.1500
     24  CM1       35.6750    9.4270  127.3890 C.3   900  W8R900      0.0304
     25  C5A       36.0930    8.5040  125.2520 C.3   900  W8R900      0.2312
     26  O1A       36.4490    7.2780  124.7290 O.2   900  W8R900     -0.4583
@<TRIPOS>BOND
     1     2     1   ar
     2     2     3   ar
     3     1     6   ar
     4     4     3    1
     5     3     5   ar
     6     8     9    1
     7     8     7    1
     8     9    10    1
     9     6     5   ar
    10     6     7    1
    11    12    13    1
    12    12    11    1
    13    13    14    1
    14    10    11    1
    15    20    19   ar
    16    20    15   ar
    17    19    18   ar
    18    14    15    1
    19    26    25    1
    20    26    21    1
    21    15    16   ar
    22    25    23    1
    23    18    21    1
    24    18    17   ar
    25    21    22    2
    26    16    17   ar
    27    23    22    1
    28    23    24    1
