@<TRIPOS>MOLECULE
2rr2_FUC_A_1.pdb
 21 21 0 0 0
SMALL
GASTEIGER

@<TRIPOS>ATOM
      1  C1         5.7360   -5.8620    4.1520 C.3    39  FUC39       0.1160
      2  C2         6.3320   -6.7090    5.2730 C.3    39  FUC39       0.1121
      3  C3         5.5280   -7.9940    5.4380 C.3    39  FUC39       0.1117
      4  C4         5.4360   -8.7190    4.1010 C.3    39  FUC39       0.1093
      5  C5         4.8790   -7.7790    3.0360 C.3    39  FUC39       0.0848
      6  C6         4.8280   -8.4170    1.6610 C.3    39  FUC39      -0.0361
      7  O2         6.3180   -5.9740    6.4880 O.3    39  FUC39      -0.3865
      8  O3         6.1560   -8.8310    6.3980 O.3    39  FUC39      -0.3865
      9  O4         6.7260   -9.1730    3.7130 O.3    39  FUC39      -0.3866
     10  O5         5.7070   -6.6050    2.9330 O.3    39  FUC39      -0.3657
     11  H1         6.3250   -4.9390    4.0320 H      39  FUC39       0.0650
     12  H2         7.3660   -6.9720    5.0070 H      39  FUC39       0.0647
     13  H3         4.5140   -7.7330    5.7720 H      39  FUC39       0.0647
     14  H4         4.7560   -9.5760    4.2130 H      39  FUC39       0.0646
     15  H5         3.8690   -7.4600    3.3290 H      39  FUC39       0.0620
     16  H61        4.4280   -7.6970    0.9340 H      39  FUC39       0.0255
     17  H62        5.8360   -8.7210    1.3490 H      39  FUC39       0.0255
     18  H63        4.1750   -9.3020    1.6880 H      39  FUC39       0.0255
     19  HO2        5.4120   -5.7480    6.7140 H      39  FUC39       0.2100
     20  HO3        7.0400   -9.0520    6.0970 H      39  FUC39       0.2100
     21  HO4        6.6610   -9.6580    2.8870 H      39  FUC39       0.2100
@<TRIPOS>BOND
     1    16     6    1
     2    17     6    1
     3     6    18    1
     4     6     5    1
     5    21     9    1
     6    10     5    1
     7    10     1    1
     8     5    15    1
     9     5     4    1
    10     9     4    1
    11    11     1    1
    12     4    14    1
    13     4     3    1
    14     1     2    1
    15    12     2    1
    16     2     3    1
    17     2     7    1
    18     3    13    1
    19     3     8    1
    20    20     8    1
    21     7    19    1
