@<TRIPOS>MOLECULE
2rs1_W84_1_1.pdb
 26 28 0 0 0
SMALL
GASTEIGER

@<TRIPOS>ATOM
      1  O1        46.5380   -4.1430  121.7330 O.2   900  W84900     -0.3581
      2  N2        47.6680   -4.9410  121.4250 N.ar  900  W84900     -0.0817
      3  C3        48.5180   -4.7310  122.3720 C.ar  900  W84900      0.1007
      4  C31       49.8310   -5.4280  122.3500 C.3   900  W84900      0.0557
      5  C4        48.0160   -3.8240  123.3150 C.ar  900  W84900      0.0536
      6  C5        46.7960   -3.4870  122.8830 C.ar  900  W84900      0.1541
      7  C1C       45.7250   -2.5990  123.3670 C.3   900  W84900      0.0673
      8  C2C       44.4720   -2.6690  122.5220 C.3   900  W84900      0.0081
      9  C3C       43.6420   -1.4070  122.6180 C.3   900  W84900      0.0005
     10  C4C       42.4610   -1.4990  123.5350 C.3   900  W84900      0.0001
     11  C5C       41.9320   -0.1470  123.9960 C.3   900  W84900      0.0038
     12  C6C       40.6620    0.2540  123.2680 C.3   900  W84900      0.0473
     13  C7C       40.3940    1.7360  123.2300 C.3   900  W84900      0.2054
     14  O1B       40.1490    2.1320  124.5880 O.3   900  W84900     -0.4755
     15  C1B       39.3690    3.2230  124.9000 C.ar  900  W84900      0.1386
     16  C2B       39.0500    3.6060  126.2030 C.ar  900  W84900      0.0370
     17  C3B       38.2810    4.7290  126.4200 C.ar  900  W84900      0.0077
     18  C4B       37.8110    5.4880  125.3610 C.ar  900  W84900      0.0530
     19  C5B       38.1050    5.0860  124.0490 C.ar  900  W84900      0.0077
     20  C6B       38.8790    3.9640  123.8230 C.ar  900  W84900      0.0370
     21  C2A       37.0810    6.7280  125.6130 C.2   900  W84900      0.2204
     22  N3A       36.6190    7.1790  126.8850 N.2   900  W84900     -0.2360
     23  C4A       36.0150    8.3870  126.8300 C.3   900  W84900      0.1500
     24  CM1       36.3080    9.7010  127.4500 C.3   900  W84900      0.0304
     25  C5A       36.1340    8.6310  125.3320 C.3   900  W84900      0.2312
     26  O1A       36.7730    7.5860  124.6980 O.2   900  W84900     -0.4583
@<TRIPOS>BOND
     1     2     1   ar
     2     2     3   ar
     3     1     6   ar
     4     4     3    1
     5     3     5   ar
     6     8     9    1
     7     8     7    1
     8     9    10    1
     9     6     5   ar
    10     6     7    1
    11    13    12    1
    12    13    14    1
    13    12    11    1
    14    10    11    1
    15    20    19   ar
    16    20    15   ar
    17    19    18   ar
    18    14    15    1
    19    26    25    1
    20    26    21    1
    21    15    16   ar
    22    25    23    1
    23    18    21    1
    24    18    17   ar
    25    21    22    2
    26    16    17   ar
    27    23    22    1
    28    23    24    1
