@<TRIPOS>MOLECULE
2rs3_W59_1_1.pdb
 27 29 0 0 0
SMALL
GASTEIGER

@<TRIPOS>ATOM
      1  O1        46.4830   -4.1600  121.6760 O.2   900  W59900     -0.3581
      2  N2        47.6100   -4.9710  121.3470 N.ar  900  W59900     -0.0817
      3  C3        48.4740   -4.7640  122.2910 C.ar  900  W59900      0.1007
      4  C31       49.7810   -5.4700  122.2490 C.3   900  W59900      0.0557
      5  C4        47.9870   -3.8570  123.2390 C.ar  900  W59900      0.0536
      6  C5        46.7590   -3.5060  122.8230 C.ar  900  W59900      0.1541
      7  C1C       45.6940   -2.6110  123.3210 C.3   900  W59900      0.0673
      8  C2C       44.3480   -2.8500  122.6450 C.3   900  W59900      0.0081
      9  C3C       43.5480   -1.5730  122.4920 C.3   900  W59900      0.0005
     10  C4C       42.3520   -1.3880  123.3640 C.3   900  W59900      0.0001
     11  C5C       42.0750    0.0450  123.7880 C.3   900  W59900      0.0038
     12  C6C       40.8710    0.6720  123.1320 C.3   900  W59900      0.0473
     13  C7C       40.6460    2.1150  123.5050 C.3   900  W59900      0.2054
     14  O1B       39.6350    2.1320  124.5370 O.3   900  W59900     -0.4755
     15  C1B       38.9820    3.2770  124.9110 C.ar  900  W59900      0.1386
     16  C2B       38.7560    3.6490  126.2170 C.ar  900  W59900      0.0370
     17  C3B       38.0750    4.8190  126.4830 C.ar  900  W59900      0.0077
     18  C4B       37.6300    5.6380  125.4600 C.ar  900  W59900      0.0530
     19  C5B       37.8570    5.2380  124.1360 C.ar  900  W59900      0.0077
     20  C6B       38.5320    4.0770  123.8720 C.ar  900  W59900      0.0370
     21  C2A       36.8610    6.8500  125.7210 C.2   900  W59900      0.2204
     22  N3A       36.4440    7.3540  126.9900 N.2   900  W59900     -0.2360
     23  C4A       35.6790    8.4790  126.9070 C.3   900  W59900      0.1499
     24  CM1       35.9020    9.8860  127.3610 C.3   900  W59900      0.0283
     25  CM2       37.3220   10.3450  127.1460 C.3   900  W59900      0.0022
     26  C5A       35.6390    8.6120  125.3990 C.3   900  W59900      0.2312
     27  O1A       36.3420    7.6080  124.7690 O.2   900  W59900     -0.4583
@<TRIPOS>BOND
     1     2     1   ar
     2     2     3   ar
     3     1     6   ar
     4     4     3    1
     5     3     5   ar
     6     9     8    1
     7     9    10    1
     8     8     7    1
     9     6     5   ar
    10     6     7    1
    11    12    13    1
    12    12    11    1
    13    10    11    1
    14    13    14    1
    15    20    19   ar
    16    20    15   ar
    17    19    18   ar
    18    14    15    1
    19    27    26    1
    20    27    21    1
    21    15    16   ar
    22    26    23    1
    23    18    21    1
    24    18    17   ar
    25    21    22    2
    26    16    17   ar
    27    23    22    1
    28    23    24    1
    29    25    24    1
