@<TRIPOS>MOLECULE
2rs5_W56_1_1.pdb
 24 26 0 0 0
SMALL
GASTEIGER

@<TRIPOS>ATOM
      1  O1        38.3480    4.7810  125.8780 O.2   900  W56900     -0.3581
      2  N2        37.3070    5.7080  126.1730 N.ar  900  W56900     -0.0817
      3  C3        37.1530    6.4220  125.1090 C.ar  900  W56900      0.1007
      4  C31       36.1310    7.5090  125.0810 C.3   900  W56900      0.0557
      5  C4        38.0340    6.0130  124.0970 C.ar  900  W56900      0.0536
      6  C5        38.7650    5.0060  124.6120 C.ar  900  W56900      0.1541
      7  C1C       39.8970    4.1710  124.1000 C.3   900  W56900      0.0673
      8  C2C       39.6160    2.6660  124.0030 C.3   900  W56900      0.0082
      9  C3C       40.7660    1.8950  123.3250 C.3   900  W56900      0.0043
     10  C4C       40.4400    0.5050  122.8140 C.3   900  W56900      0.0473
     11  C5C       41.2840   -0.6460  123.4270 C.3   900  W56900      0.2054
     12  O1B       42.7020   -0.2890  123.3360 O.3   900  W56900     -0.4755
     13  C1B       43.7340   -1.2450  123.2060 C.ar  900  W56900      0.1386
     14  C2B       43.6620   -2.5040  122.5700 C.ar  900  W56900      0.0370
     15  C3B       44.7890   -3.3050  122.4550 C.ar  900  W56900      0.0077
     16  C4B       46.0100   -2.9020  122.9810 C.ar  900  W56900      0.0530
     17  C5B       46.0680   -1.6850  123.6690 C.ar  900  W56900      0.0077
     18  C6B       44.9550   -0.8770  123.7760 C.ar  900  W56900      0.0370
     19  C2A       47.2470   -3.6620  122.7680 C.2   900  W56900      0.2204
     20  N3A       47.3850   -4.8610  121.9960 N.2   900  W56900     -0.2360
     21  C4A       48.6670   -5.3140  121.9510 C.3   900  W56900      0.1500
     22  CM1       49.6490   -5.5410  120.8640 C.3   900  W56900      0.0304
     23  C5A       49.3170   -4.2500  122.8140 C.3   900  W56900      0.2312
     24  O1A       48.3970   -3.3200  123.2550 O.2   900  W56900     -0.4583
@<TRIPOS>BOND
     1    22    21    1
     2    21    20    1
     3    21    23    1
     4    20    19    2
     5    15    14   ar
     6    15    16   ar
     7    14    13   ar
     8    19    16    1
     9    19    24    1
    10    23    24    1
    11    10     9    1
    12    10    11    1
    13    16    17   ar
    14    13    12    1
    15    13    18   ar
    16     9     8    1
    17    12    11    1
    18    17    18   ar
    19     8     7    1
    20     5     6   ar
    21     5     3   ar
    22     7     6    1
    23     6     1   ar
    24     4     3    1
    25     3     2   ar
    26     1     2   ar
