@<TRIPOS>MOLECULE
2rsf_ATP_A_1.pdb
 43 45 0 0 0
SMALL
GASTEIGER

@<TRIPOS>ATOM
      1  PG        13.1920  -13.7750   -0.2910 P.3   201  ATP201      0.5373
      2  O1G       14.6500  -13.9710   -0.4510 O.3   201  ATP201     -0.1143
      3  O2G       12.3850  -14.9050   -0.8040 O.2   201  ATP201     -0.2221
      4  O3G       12.7070  -12.4510   -0.7420 O.3   201  ATP201     -0.1143
      5  PB        13.7190  -13.5840    2.5270 P.3   201  ATP201      0.2277
      6  O1B       14.6050  -12.3990    2.3790 O.2   201  ATP201     -0.5168
      7  O2B       14.3150  -14.8950    2.9180 O.3   201  ATP201     -0.4368
      8  O3B       12.8930  -13.7850    1.2260 O.3   201  ATP201     -0.2258
      9  PA        12.6050  -12.1750    4.6240 P.3   201  ATP201      0.2182
     10  O1A       12.5370  -10.8380    3.9960 O.2   201  ATP201     -0.5170
     11  O2A       13.6520  -12.4380    5.6410 O.3   201  ATP201     -0.4371
     12  O3A       12.5880  -13.2750    3.5450 O.3   201  ATP201     -0.2700
     13  O5'       11.1850  -12.4210    5.3160 O.3   201  ATP201     -0.3246
     14  C5'       10.9990  -13.4360    6.2940 C.3   201  ATP201      0.0836
     15  C4'        9.5280  -13.8620    6.4410 C.3   201  ATP201      0.1131
     16  O4'        8.6850  -12.7220    6.6220 O.3   201  ATP201     -0.3474
     17  C3'        9.0210  -14.6380    5.2160 C.3   201  ATP201      0.1133
     18  O3'        8.0910  -15.6420    5.6240 O.3   201  ATP201     -0.3864
     19  C2'        8.3450  -13.5280    4.4070 C.3   201  ATP201      0.1266
     20  O2'        7.3290  -13.9890    3.5160 O.3   201  ATP201     -0.3849
     21  C1'        7.7830  -12.6450    5.5240 C.3   201  ATP201      0.1617
     22  N9         7.5850  -11.2500    5.0720 N.pl3 201  ATP201     -0.2234
     23  C8         8.4470  -10.4450    4.3680 C.2   201  ATP201      0.1451
     24  N7         7.9220   -9.3250    3.9450 N.2   201  ATP201     -0.3871
     25  C5         6.6190   -9.3760    4.4660 C.2   201  ATP201      0.2211
     26  C6         5.5020   -8.5040    4.4600 C.2   201  ATP201      0.2227
     27  N6         5.4420   -7.3530    3.8330 N.pl3 201  ATP201     -0.3300
     28  N1         4.4040   -8.7740    5.1620 N.2   201  ATP201     -0.3296
     29  C2         4.3700   -9.9180    5.8260 C.1   201  ATP201      0.0930
     30  N3         5.3030  -10.8630    5.8920 N.2   201  ATP201     -0.3287
     31  C4         6.4210  -10.5250    5.1850 C.2   201  ATP201      0.2354
     32 H5'1       11.5960  -14.3140    6.0430 H     201  ATP201      0.0591
     33 H5'2       11.3430  -13.0610    7.2590 H     201  ATP201      0.0591
     34  H4'        9.4550  -14.5070    7.3170 H     201  ATP201      0.0647
     35  H3'        9.8470  -15.0800    4.6540 H     201  ATP201      0.0647
     36 HO3'        7.5380  -15.8530    4.8470 H     201  ATP201      0.2100
     37  H2'        9.1160  -12.9860    3.8550 H     201  ATP201      0.0663
     38 HO2'        7.7390  -14.5010    2.7920 H     201  ATP201      0.2101
     39  H1'        6.8200  -13.0650    5.8270 H     201  ATP201      0.0841
     40  H8         9.4770  -10.7200    4.1890 H     201  ATP201      0.1149
     41 HN61        6.2020   -7.0600    3.2250 H     201  ATP201      0.1448
     42 HN62        4.5920   -6.8210    3.8860 H     201  ATP201      0.1448
     43  H2         3.4830  -10.0870    6.4160 H     201  ATP201      0.1751
@<TRIPOS>BOND
     1     3     1    2
     2     4     1    1
     3     2     1    1
     4     1     8    1
     5     8     5    1
     6     6     5    2
     7     5     7    1
     8     5    12    1
     9    38    20    1
    10    41    27    1
    11    20    19    1
    12    12     9    1
    13    27    42    1
    14    27    26    1
    15    37    19    1
    16    24    23    2
    17    24    25    2
    18    10     9    2
    19    40    23    1
    20    23    22    1
    21    19    17    1
    22    19    21    1
    23    26    25    1
    24    26    28    2
    25    25    31    1
    26     9    13    1
    27     9    11    1
    28    35    17    1
    29    36    18    1
    30    22    31    1
    31    22    21    1
    32    28    29    2
    33    31    30    2
    34    17    18    1
    35    17    15    1
    36    13    14    1
    37    21    39    1
    38    21    16    1
    39    29    30    2
    40    29    43    1
    41    32    14    1
    42    14    15    1
    43    14    33    1
    44    15    16    1
    45    15    34    1
