@<TRIPOS>MOLECULE
2rtd_BTN_B_1.pdb
 31 32 0 0 0
SMALL
GASTEIGER

@<TRIPOS>ATOM
      1  C11       29.3100   14.2680   -9.5430 C.2   300  BTN300      0.3560
      2  O11       29.9850   13.8760  -10.5030 O.co2 300  BTN300     -0.2464
      3  O12       28.1450   14.0020   -9.3390 O.co2 300  BTN300     -0.2464
      4  C10       29.9580   15.1820   -8.5140 C.3   300  BTN300      0.0492
      5  C9        31.3760   14.7540   -8.1900 C.3   300  BTN300     -0.0428
      6  C8        31.3830   13.4170   -7.4500 C.3   300  BTN300     -0.0515
      7  C7        32.8280   13.0640   -7.0430 C.3   300  BTN300     -0.0394
      8  C2        32.8100   11.7650   -6.1150 C.3   300  BTN300      0.0255
      9  S1        32.0300   11.8620   -4.5060 S.3   300  BTN300     -0.1536
     10  C6        32.8110   10.3120   -4.0620 C.3   300  BTN300      0.0143
     11  C5        34.1650   10.1880   -4.7170 C.3   300  BTN300      0.0529
     12  N1        35.1050   10.8100   -3.8140 N.am  300  BTN300     -0.2940
     13  C3        35.7640   11.8260   -4.3840 C.2   300  BTN300      0.3002
     14  O3        36.7010   12.4260   -3.8490 O.2   300  BTN300     -0.2528
     15  N2        35.2640   12.0760   -5.5950 N.am  300  BTN300     -0.2937
     16  C4        34.2330   11.1090   -5.9770 C.3   300  BTN300      0.0555
     17 H101       29.9840   16.1800   -8.9290 H     300  BTN300      0.0379
     18 H102       29.3600   15.1940   -7.6170 H     300  BTN300      0.0379
     19  H91       31.9480   14.6820   -9.1010 H     300  BTN300      0.0270
     20  H92       31.8220   15.5180   -7.5660 H     300  BTN300      0.0270
     21  H81       30.7470   13.4870   -6.5780 H     300  BTN300      0.0266
     22  H82       31.0100   12.6520   -8.1090 H     300  BTN300      0.0266
     23  H71       33.4190   12.8860   -7.9300 H     300  BTN300      0.0276
     24  H72       33.2560   13.8880   -6.4880 H     300  BTN300      0.0276
     25  H2        32.2220   11.0400   -6.6570 H     300  BTN300      0.0431
     26  H61       32.1660    9.5140   -4.3940 H     300  BTN300      0.0395
     27  H62       32.8950   10.2690   -2.9880 H     300  BTN300      0.0395
     28  H5        34.4620    9.1770   -4.9290 H     300  BTN300      0.0525
     29  HN1       35.2090   10.4940   -2.8990 H     300  BTN300      0.1506
     30  HN2       35.5350   12.8220   -6.1850 H     300  BTN300      0.1506
     31  H4        34.5290   10.5630   -6.8610 H     300  BTN300      0.0528
@<TRIPOS>BOND
     1     2     1   ar
     2     1     3   ar
     3     1     4    1
     4    19     5    1
     5    17     4    1
     6     4     5    1
     7     4    18    1
     8     5    20    1
     9     5     6    1
    10    22     6    1
    11    23     7    1
    12     6     7    1
    13     6    21    1
    14     7    24    1
    15     7     8    1
    16    31    16    1
    17    25     8    1
    18    30    15    1
    19     8    16    1
    20     8     9    1
    21    16    15    1
    22    16    11    1
    23    15    13   am
    24    28    11    1
    25    11    10    1
    26    11    12    1
    27     9    10    1
    28    26    10    1
    29    13    14    2
    30    13    12   am
    31    10    27    1
    32    12    29    1
