@<TRIPOS>MOLECULE
2rte_BTN_B_1.pdb
 31 32 0 0 0
SMALL
GASTEIGER

@<TRIPOS>ATOM
      1  C11       29.2920   14.5200   -9.6020 C.2   300  BTN300      0.3560
      2  O11       29.9960   14.1210  -10.5260 O.co2 300  BTN300     -0.2464
      3  O12       28.1050   14.2540   -9.4500 O.co2 300  BTN300     -0.2464
      4  C10       29.9390   15.4370   -8.5560 C.3   300  BTN300      0.0492
      5  C9        31.3660   15.0010   -8.2090 C.3   300  BTN300     -0.0428
      6  C8        31.3390   13.6970   -7.4250 C.3   300  BTN300     -0.0515
      7  C7        32.7750   13.3750   -6.9530 C.3   300  BTN300     -0.0394
      8  C2        32.7560   12.0200   -6.1500 C.3   300  BTN300      0.0255
      9  S1        32.0880   12.0730   -4.4960 S.3   300  BTN300     -0.1536
     10  C6        32.8300   10.4500   -4.1820 C.3   300  BTN300      0.0143
     11  C5        34.1690   10.3020   -4.9430 C.3   300  BTN300      0.0529
     12  N1        35.1830   10.8550   -4.0820 N.am  300  BTN300     -0.2940
     13  C3        35.7460   11.9610   -4.5950 C.2   300  BTN300      0.3002
     14  O3        36.6370   12.6100   -4.0180 O.2   300  BTN300     -0.2528
     15  N2        35.2180   12.2550   -5.7870 N.am  300  BTN300     -0.2937
     16  C4        34.1750   11.3070   -6.1620 C.3   300  BTN300      0.0555
     17 H101       29.9540   16.4470   -8.9410 H     300  BTN300      0.0379
     18 H102       29.3380   15.4180   -7.6620 H     300  BTN300      0.0379
     19  H91       31.9440   14.8700   -9.1120 H     300  BTN300      0.0270
     20  H92       31.8380   15.7700   -7.6140 H     300  BTN300      0.0270
     21  H81       30.6750   13.7840   -6.5760 H     300  BTN300      0.0266
     22  H82       30.9870   12.9110   -8.0720 H     300  BTN300      0.0266
     23  H71       33.4270   13.2900   -7.8120 H     300  BTN300      0.0276
     24  H72       33.1400   14.1720   -6.3170 H     300  BTN300      0.0276
     25  H2        32.1080   11.3560   -6.7010 H     300  BTN300      0.0431
     26  H61       32.1320    9.6930   -4.5070 H     300  BTN300      0.0395
     27  H62       32.9820   10.3400   -3.1160 H     300  BTN300      0.0395
     28  H5        34.4230    9.2940   -5.2250 H     300  BTN300      0.0525
     29  HN1       35.4010   10.4400   -3.2280 H     300  BTN300      0.1506
     30  HN2       35.4810   13.0160   -6.3600 H     300  BTN300      0.1506
     31  H4        34.4100   10.8170   -7.0970 H     300  BTN300      0.0528
@<TRIPOS>BOND
     1     2     1   ar
     2     1     3   ar
     3     1     4    1
     4    19     5    1
     5    17     4    1
     6     4     5    1
     7     4    18    1
     8     5    20    1
     9     5     6    1
    10    22     6    1
    11    23     7    1
    12     6     7    1
    13     6    21    1
    14    31    16    1
    15     7    24    1
    16     7     8    1
    17    25     8    1
    18    30    15    1
    19    16     8    1
    20    16    15    1
    21    16    11    1
    22     8     9    1
    23    15    13   am
    24    28    11    1
    25    11    10    1
    26    11    12    1
    27    13    12   am
    28    13    14    2
    29    26    10    1
    30     9    10    1
    31    10    27    1
    32    12    29    1
