@<TRIPOS>MOLECULE
2rtf_BTN_B_1.pdb
 31 32 0 0 0
SMALL
GASTEIGER

@<TRIPOS>ATOM
      1  C11       29.2810   14.3970   -9.5950 C.2   300  BTN300      0.3560
      2  O11       29.9880   13.9820  -10.5070 O.co2 300  BTN300     -0.2464
      3  O12       28.0930   14.1810   -9.5010 O.co2 300  BTN300     -0.2464
      4  C10       29.9170   15.2580   -8.5050 C.3   300  BTN300      0.0492
      5  C9        31.3550   14.8120   -8.1810 C.3   300  BTN300     -0.0428
      6  C8        31.3840   13.4420   -7.5000 C.3   300  BTN300     -0.0515
      7  C7        32.8330   13.1060   -7.0110 C.3   300  BTN300     -0.0394
      8  C2        32.8070   11.7770   -6.1690 C.3   300  BTN300      0.0255
      9  S1        32.0390   11.8930   -4.5690 S.3   300  BTN300     -0.1536
     10  C6        32.8120   10.3750   -4.0380 C.3   300  BTN300      0.0143
     11  C5        34.1610   10.1760   -4.7380 C.3   300  BTN300      0.0529
     12  N1        35.1330   10.7790   -3.8570 N.am  300  BTN300     -0.2940
     13  C3        35.7340   11.8280   -4.4220 C.2   300  BTN300      0.3002
     14  O3        36.6140   12.4820   -3.8580 O.2   300  BTN300     -0.2528
     15  N2        35.2530   12.0570   -5.6530 N.am  300  BTN300     -0.2937
     16  C4        34.2280   11.0850   -6.0250 C.3   300  BTN300      0.0555
     17 H101       29.9120   16.2890   -8.8330 H     300  BTN300      0.0379
     18 H102       29.3160   15.1800   -7.6140 H     300  BTN300      0.0379
     19  H91       31.9350   14.7790   -9.0910 H     300  BTN300      0.0270
     20  H92       31.7940   15.5550   -7.5300 H     300  BTN300      0.0270
     21  H81       30.7010   13.4410   -6.6630 H     300  BTN300      0.0266
     22  H82       31.0710   12.6900   -8.2080 H     300  BTN300      0.0266
     23  H71       33.4880   12.9900   -7.8630 H     300  BTN300      0.0276
     24  H72       33.2040   13.9120   -6.3960 H     300  BTN300      0.0276
     25  H2        32.1950   11.0830   -6.7190 H     300  BTN300      0.0431
     26  H61       32.1420    9.5660   -4.2740 H     300  BTN300      0.0395
     27  H62       32.9350   10.4140   -2.9670 H     300  BTN300      0.0395
     28  H5        34.4130    9.1460   -4.9350 H     300  BTN300      0.0525
     29  HN1       35.2990   10.4330   -2.9630 H     300  BTN300      0.1506
     30  HN2       35.5390   12.7890   -6.2530 H     300  BTN300      0.1506
     31  H4        34.5310   10.5280   -6.9040 H     300  BTN300      0.0528
@<TRIPOS>BOND
     1     2     1   ar
     2     1     3   ar
     3     1     4    1
     4    19     5    1
     5    17     4    1
     6     4     5    1
     7     4    18    1
     8    22     6    1
     9     5    20    1
    10     5     6    1
    11    23     7    1
    12     6     7    1
    13     6    21    1
    14     7    24    1
    15     7     8    1
    16    31    16    1
    17    25     8    1
    18    30    15    1
    19     8    16    1
    20     8     9    1
    21    16    15    1
    22    16    11    1
    23    15    13   am
    24    28    11    1
    25    11    10    1
    26    11    12    1
    27     9    10    1
    28    13    14    2
    29    13    12   am
    30    26    10    1
    31    10    27    1
    32    12    29    1
