@<TRIPOS>MOLECULE
2rtg_BTN_B_1.pdb
 31 32 0 0 0
SMALL
GASTEIGER

@<TRIPOS>ATOM
      1  C11       29.2690   14.2830   -9.5350 C.2   300  BTN300      0.3560
      2  O11       29.9750   13.7890  -10.4250 O.co2 300  BTN300     -0.2464
      3  O12       28.0660   14.1160   -9.4430 O.co2 300  BTN300     -0.2464
      4  C10       29.9100   15.1860   -8.4740 C.3   300  BTN300      0.0492
      5  C9        31.3450   14.7830   -8.1450 C.3   300  BTN300     -0.0428
      6  C8        31.3330   13.4170   -7.4570 C.3   300  BTN300     -0.0515
      7  C7        32.7780   13.0820   -6.9890 C.3   300  BTN300     -0.0394
      8  C2        32.7480   11.7520   -6.1330 C.3   300  BTN300      0.0255
      9  S1        32.0280   11.8940   -4.5080 S.3   300  BTN300     -0.1536
     10  C6        32.7680   10.3030   -4.0740 C.3   300  BTN300      0.0143
     11  C5        34.1020   10.1260   -4.7750 C.3   300  BTN300      0.0529
     12  N1        35.0960   10.7010   -3.8950 N.am  300  BTN300     -0.2940
     13  C3        35.6850   11.7760   -4.4280 C.2   300  BTN300      0.3002
     14  O3        36.5710   12.4170   -3.8880 O.2   300  BTN300     -0.2528
     15  N2        35.1720   12.0530   -5.6190 N.am  300  BTN300     -0.2937
     16  C4        34.1510   11.0780   -6.0140 C.3   300  BTN300      0.0555
     17 H101       29.8870   16.2030   -8.8370 H     300  BTN300      0.0379
     18 H102       29.3210   15.1210   -7.5760 H     300  BTN300      0.0379
     19  H91       31.9340   14.7490   -9.0460 H     300  BTN300      0.0270
     20  H92       31.7750   15.5270   -7.4890 H     300  BTN300      0.0270
     21  H81       30.6650   13.4380   -6.6140 H     300  BTN300      0.0266
     22  H82       31.0110   12.6630   -8.1590 H     300  BTN300      0.0266
     23  H71       33.4310   12.9690   -7.8420 H     300  BTN300      0.0276
     24  H72       33.1470   13.8910   -6.3720 H     300  BTN300      0.0276
     25  H2        32.1400   11.0590   -6.6910 H     300  BTN300      0.0431
     26  H61       32.0920    9.5090   -4.3570 H     300  BTN300      0.0395
     27  H62       32.9020   10.2630   -2.9990 H     300  BTN300      0.0395
     28  H5        34.3520    9.1090   -5.0220 H     300  BTN300      0.0525
     29  HN1       35.2770   10.3200   -3.0240 H     300  BTN300      0.1506
     30  HN2       35.4310   12.8200   -6.1890 H     300  BTN300      0.1506
     31  H4        34.4480   10.5640   -6.9170 H     300  BTN300      0.0528
@<TRIPOS>BOND
     1     2     1   ar
     2     1     3   ar
     3     1     4    1
     4    19     5    1
     5    17     4    1
     6     4     5    1
     7     4    18    1
     8    22     6    1
     9     5    20    1
    10     5     6    1
    11    23     7    1
    12     6     7    1
    13     6    21    1
    14     7    24    1
    15     7     8    1
    16    31    16    1
    17    25     8    1
    18    30    15    1
    19     8    16    1
    20     8     9    1
    21    16    15    1
    22    16    11    1
    23    15    13   am
    24    28    11    1
    25    11    10    1
    26    11    12    1
    27     9    10    1
    28    13    12   am
    29    13    14    2
    30    26    10    1
    31    10    27    1
    32    12    29    1
