@<TRIPOS>MOLECULE
2rth_GLL_B_1.pdb
 16 17 0 0 0
SMALL
GASTEIGER

@<TRIPOS>ATOM
      1  C1        35.8470   11.9120   -4.3150 C.2   300  GLL300      0.3025
      2  O1        36.8250   12.4060   -3.8200 O.2   300  GLL300     -0.2528
      3  N1        35.3190   12.1820   -5.4580 N.am  300  GLL300     -0.2778
      4  N2        35.1760   10.9960   -3.7170 N.am  300  GLL300     -0.2778
      5  C2        34.2360   11.2030   -5.8250 C.3   300  GLL300      0.1272
      6  C3        34.1900   10.3010   -4.5980 C.3   300  GLL300      0.1272
      7  N1'       32.8220   11.6760   -5.8760 N.am  300  GLL300     -0.2778
      8  N2'       32.7360   10.3320   -4.2380 N.am  300  GLL300     -0.2778
      9  C1'       32.0480   11.1380   -4.9850 C.2   300  GLL300      0.3025
     10  O1'       30.8700   11.3660   -4.8820 O.2   300  GLL300     -0.2528
     11  HN1       35.6040   12.9470   -6.0240 H     300  GLL300      0.1521
     12  HN2       35.3270   10.8040   -2.7770 H     300  GLL300      0.1521
     13  H2        34.4870   10.6670   -6.7270 H     300  GLL300      0.0744
     14  H3        34.5120    9.2920   -4.8170 H     300  GLL300      0.0744
     15 HN1'       32.4780   12.3380   -6.5180 H     300  GLL300      0.1521
     16 HN2'       32.2930    9.8070   -3.5300 H     300  GLL300      0.1521
@<TRIPOS>BOND
     1    13     5    1
     2    15     7    1
     3    11     3    1
     4     7     5    1
     5     7     9   am
     6     5     3    1
     7     5     6    1
     8     3     1   am
     9     9    10    2
    10     9     8   am
    11    14     6    1
    12     6     8    1
    13     6     4    1
    14     1     2    2
    15     1     4   am
    16     8    16    1
    17     4    12    1
