@<TRIPOS>MOLECULE
2rti_GLL_B_1.pdb
 16 17 0 0 0
SMALL
GASTEIGER

@<TRIPOS>ATOM
      1  C1        35.8150   11.7160   -4.3770 C.2   300  GLL300      0.3025
      2  O1        36.7260   12.2610   -3.7880 O.2   300  GLL300     -0.2528
      3  N1        35.2650   12.0640   -5.4990 N.am  300  GLL300     -0.2778
      4  N2        35.2460   10.6450   -3.9280 N.am  300  GLL300     -0.2778
      5  C2        34.1590   11.1520   -5.9210 C.3   300  GLL300      0.1272
      6  C3        34.1450   10.1340   -4.7980 C.3   300  GLL300      0.1272
      7  N1'       32.7430   11.6430   -5.8450 N.am  300  GLL300     -0.2778
      8  N2'       32.7410   10.2230   -4.2660 N.am  300  GLL300     -0.2778
      9  C1'       32.0240   11.0920   -4.9200 C.2   300  GLL300      0.3025
     10  O1'       30.8650   11.3440   -4.7070 O.2   300  GLL300     -0.2528
     11  HN1       35.5580   12.8620   -6.0240 H     300  GLL300      0.1521
     12  HN2       35.5170   10.2100   -3.1100 H     300  GLL300      0.1521
     13  H2        34.3440   10.7220   -6.8890 H     300  GLL300      0.0744
     14  H3        34.3610    9.1380   -5.1720 H     300  GLL300      0.0744
     15 HN1'       32.3500   12.2830   -6.4000 H     300  GLL300      0.1521
     16 HN2'       32.3560    9.7110   -3.5340 H     300  GLL300      0.1521
@<TRIPOS>BOND
     1    13     5    1
     2    15     7    1
     3    11     3    1
     4     5     7    1
     5     5     3    1
     6     5     6    1
     7     7     9   am
     8     3     1   am
     9    14     6    1
    10     9    10    2
    11     9     8   am
    12     6     8    1
    13     6     4    1
    14     1     4   am
    15     1     2    2
    16     8    16    1
    17     4    12    1
