@<TRIPOS>MOLECULE
2rtj_GLL_A_1.pdb
 16 17 0 0 0
SMALL
GASTEIGER

@<TRIPOS>ATOM
      1  C1        13.6370   -0.6660   -8.2470 C.2   300  GLL300      0.3025
      2  O1        14.7780   -0.7160   -7.8490 O.2   300  GLL300     -0.2528
      3  N1        13.2640   -0.4160   -9.4640 N.am  300  GLL300     -0.2778
      4  N2        12.6060   -0.8580   -7.4830 N.am  300  GLL300     -0.2778
      5  C2        11.7770   -0.3430   -9.6040 C.3   300  GLL300      0.1272
      6  C3        11.3000   -0.7190   -8.1960 C.3   300  GLL300      0.1272
      7  N1'       11.2260    1.0380   -9.7320 N.am  300  GLL300     -0.2778
      8  N2'       10.4480    0.4570   -7.8270 N.am  300  GLL300     -0.2778
      9  C1'       10.4960    1.4030   -8.7220 C.2   300  GLL300      0.3025
     10  O1'        9.9330    2.4630   -8.6120 O.2   300  GLL300     -0.2528
     11  HN1       13.9080   -0.2910  -10.2120 H     300  GLL300      0.1521
     12  HN2       12.6850   -1.0740   -6.5430 H     300  GLL300      0.1521
     13  H2        11.4080   -0.9930  -10.3770 H     300  GLL300      0.0744
     14  H3        10.7370   -1.6380   -8.1750 H     300  GLL300      0.0744
     15 HN1'       11.3840    1.6370  -10.5060 H     300  GLL300      0.1521
     16 HN2'        9.8910    0.5320   -7.0140 H     300  GLL300      0.1521
@<TRIPOS>BOND
     1    15     7    1
     2    13     5    1
     3    11     3    1
     4     7     5    1
     5     7     9   am
     6     5     3    1
     7     5     6    1
     8     3     1   am
     9     9    10    2
    10     9     8   am
    11     1     2    2
    12     1     4   am
    13     6    14    1
    14     6     8    1
    15     6     4    1
    16     8    16    1
    17     4    12    1
