@<TRIPOS>MOLECULE
2rtk_GLL_A_1.pdb
 16 17 0 0 0
SMALL
GASTEIGER

@<TRIPOS>ATOM
      1  C1        13.6780   -0.4290   -8.3990 C.2   300  GLL300      0.3025
      2  O1        14.8360   -0.3800   -8.0310 O.2   300  GLL300     -0.2528
      3  N1        13.2090   -0.1350   -9.5770 N.am  300  GLL300     -0.2778
      4  N2        12.7080   -0.7930   -7.6000 N.am  300  GLL300     -0.2778
      5  C2        11.7360   -0.2680   -9.6560 C.3   300  GLL300      0.1272
      6  C3        11.3270   -0.6580   -8.2120 C.3   300  GLL300      0.1272
      7  N1'       11.1680    1.1000   -9.7680 N.am  300  GLL300     -0.2778
      8  N2'       10.4510    0.5050   -7.8270 N.am  300  GLL300     -0.2778
      9  C1'       10.5330    1.4910   -8.6980 C.2   300  GLL300      0.3025
     10  O1'       10.0730    2.5960   -8.4950 O.2   300  GLL300     -0.2528
     11  HN1       13.7020    0.1670  -10.3930 H     300  GLL300      0.1521
     12  HN2       12.8670   -1.1280   -6.7000 H     300  GLL300      0.1521
     13  H2        11.4180   -0.9350  -10.4460 H     300  GLL300      0.0744
     14  H3        10.7810   -1.5860   -8.1540 H     300  GLL300      0.0744
     15 HN1'       11.3030    1.6500  -10.6370 H     300  GLL300      0.1521
     16 HN2'        9.8570    0.5500   -7.0390 H     300  GLL300      0.1521
@<TRIPOS>BOND
     1    15     7    1
     2    13     5    1
     3    11     3    1
     4     7     5    1
     5     7     9   am
     6     5     3    1
     7     5     6    1
     8     3     1   am
     9     9    10    2
    10     9     8   am
    11     1     2    2
    12     1     4   am
    13     6    14    1
    14     6     8    1
    15     6     4    1
    16     8    16    1
    17     4    12    1
