@<TRIPOS>MOLECULE
2rtl_IMI_A_1.pdb
 33 34 0 0 0
SMALL
GASTEIGER

@<TRIPOS>ATOM
      1  C11        9.6240    3.7340  -14.2440 C.2   300  IMI300      0.3560
      2  O11        9.5490    2.5430  -14.5540 O.co2 300  IMI300     -0.2464
      3  O12        8.7320    4.5440  -14.4550 O.co2 300  IMI300     -0.2464
      4  C10       10.9220    4.2260  -13.5650 C.3   300  IMI300      0.0492
      5  C9        11.8060    3.0940  -12.9300 C.3   300  IMI300     -0.0428
      6  C8        11.0520    2.4130  -11.8410 C.3   300  IMI300     -0.0515
      7  C7        11.9510    1.3790  -11.1350 C.3   300  IMI300     -0.0396
      8  C2        11.0790    0.8550   -9.9650 C.3   300  IMI300      0.0222
      9  S1        10.8730    1.9430   -8.5690 S.3   300  IMI300     -0.1542
     10  C6        10.0710    0.5710   -7.7170 C.3   300  IMI300      0.0110
     11  C5        10.6740   -0.7630   -8.1350 C.3   300  IMI300      0.0360
     12  N1        11.8280   -1.0020   -7.2280 N.3   300  IMI300     -0.2778
     13  C3        12.9820   -0.9070   -7.8430 C.3   300  IMI300      0.1701
     14  N3        14.1480   -1.0690   -7.2700 N.3   300  IMI300     -0.2969
     15  N2        12.8350   -0.6340   -9.1170 N.3   300  IMI300     -0.2775
     16  C4        11.4010   -0.5660   -9.5220 C.3   300  IMI300      0.0385
     17 H101       11.5030    4.7950  -14.2710 H     300  IMI300      0.0379
     18 H102       10.6270    4.8940  -12.7680 H     300  IMI300      0.0379
     19  H91       12.1860    2.3990  -13.6640 H     300  IMI300      0.0270
     20  H92       12.6210    3.5540  -12.4080 H     300  IMI300      0.0270
     21  H81       10.7470    3.1580  -11.1200 H     300  IMI300      0.0266
     22  H82       10.1670    1.9360  -12.2300 H     300  IMI300      0.0266
     23  H71       12.2250    0.5830  -11.8120 H     300  IMI300      0.0276
     24  H72       12.8420    1.8540  -10.7600 H     300  IMI300      0.0276
     25  H2        10.0800    0.7660  -10.3570 H     300  IMI300      0.0428
     26  H61        9.0200    0.5890   -7.9640 H     300  IMI300      0.0392
     27  H62       10.1730    0.7000   -6.6460 H     300  IMI300      0.0392
     28  H5         9.9800   -1.5880   -8.1220 H     300  IMI300      0.0485
     29  HN1       11.7230   -1.2050   -6.2780 H     300  IMI300      0.1254
     30  HN3       15.0020   -0.9930   -7.7460 H     300  IMI300      0.1213
     31  HN2       13.5790   -0.4830   -9.7340 H     300  IMI300      0.1254
     32  H4        11.1700   -1.3330  -10.2500 H     300  IMI300      0.0488
     33 HN32       14.2750   -1.2750   -6.3200 H     300  IMI300      0.1213
@<TRIPOS>BOND
     1     2     1   ar
     2     3     1   ar
     3    17     4    1
     4     1     4    1
     5    19     5    1
     6     4     5    1
     7     4    18    1
     8     5    20    1
     9     5     6    1
    10    22     6    1
    11     6     7    1
    12     6    21    1
    13    23     7    1
    14     7    24    1
    15     7     8    1
    16    25     8    1
    17    32    16    1
    18     8    16    1
    19     8     9    1
    20    31    15    1
    21    16    15    1
    22    16    11    1
    23    15    13    1
    24     9    10    1
    25    11    28    1
    26    11    10    1
    27    11    12    1
    28    26    10    1
    29    13    14    1
    30    13    12    1
    31    30    14    1
    32    10    27    1
    33    14    33    1
    34    12    29    1
