@<TRIPOS>MOLECULE
2rtm_IMI_A_1.pdb
 33 34 0 0 0
SMALL
GASTEIGER

@<TRIPOS>ATOM
      1  C11        9.6270    3.9770  -14.2740 C.2   300  IMI300      0.3560
      2  O11        9.5310    2.8800  -14.8150 O.co2 300  IMI300     -0.2464
      3  O12        8.7270    4.8020  -14.2350 O.co2 300  IMI300     -0.2464
      4  C10       10.9750    4.3420  -13.6250 C.3   300  IMI300      0.0492
      5  C9        11.7360    3.1450  -12.9810 C.3   300  IMI300     -0.0428
      6  C8        10.9850    2.5970  -11.8120 C.3   300  IMI300     -0.0515
      7  C7        11.8100    1.4560  -11.1900 C.3   300  IMI300     -0.0396
      8  C2        11.0110    0.9520   -9.9710 C.3   300  IMI300      0.0222
      9  S1        10.8830    2.0170   -8.5410 S.3   300  IMI300     -0.1542
     10  C6        10.2360    0.6290   -7.5940 C.3   300  IMI300      0.0110
     11  C5        10.7670   -0.7290   -8.0960 C.3   300  IMI300      0.0360
     12  N1        11.9620   -1.0370   -7.2780 N.3   300  IMI300     -0.2778
     13  C3        13.0740   -0.8550   -7.9420 C.3   300  IMI300      0.1701
     14  N3        14.2510   -0.9470   -7.4110 N.3   300  IMI300     -0.2969
     15  N2        12.8720   -0.5670   -9.1980 N.3   300  IMI300     -0.2775
     16  C4        11.4140   -0.5110   -9.5270 C.3   300  IMI300      0.0385
     17 H101       11.6010    4.8050  -14.3710 H     300  IMI300      0.0379
     18 H102       10.7850    5.0690  -12.8530 H     300  IMI300      0.0379
     19  H91       11.9030    2.3650  -13.7090 H     300  IMI300      0.0270
     20  H92       12.6940    3.4850  -12.6190 H     300  IMI300      0.0270
     21  H81       10.8320    3.3770  -11.0820 H     300  IMI300      0.0266
     22  H82       10.0240    2.2300  -12.1430 H     300  IMI300      0.0266
     23  H71       11.9470    0.6660  -11.9160 H     300  IMI300      0.0276
     24  H72       12.7790    1.8190  -10.8810 H     300  IMI300      0.0276
     25  H2         9.9980    0.8430  -10.3320 H     300  IMI300      0.0428
     26  H61        9.1590    0.6110   -7.6960 H     300  IMI300      0.0392
     27  H62       10.4710    0.7540   -6.5460 H     300  IMI300      0.0392
     28  H5        10.0560   -1.5440   -8.0610 H     300  IMI300      0.0485
     29  HN1       11.9060   -1.3390   -6.3510 H     300  IMI300      0.1254
     30  HN3       15.0830   -0.8120   -7.9050 H     300  IMI300      0.1213
     31  HN2       13.5840   -0.4060   -9.8500 H     300  IMI300      0.1254
     32  H4        11.1540   -1.2850  -10.2360 H     300  IMI300      0.0488
     33 HN32       14.4090   -1.1640   -6.4680 H     300  IMI300      0.1213
@<TRIPOS>BOND
     1     2     1   ar
     2    17     4    1
     3     1     3   ar
     4     1     4    1
     5    19     5    1
     6     4     5    1
     7     4    18    1
     8     5    20    1
     9     5     6    1
    10    22     6    1
    11    23     7    1
    12     6     7    1
    13     6    21    1
    14     7    24    1
    15     7     8    1
    16    25     8    1
    17    32    16    1
    18     8    16    1
    19     8     9    1
    20    31    15    1
    21    16    15    1
    22    16    11    1
    23    15    13    1
    24     9    10    1
    25    11    28    1
    26    11    10    1
    27    11    12    1
    28    13    14    1
    29    13    12    1
    30    30    14    1
    31    26    10    1
    32    10    27    1
    33    14    33    1
    34    12    29    1
