@<TRIPOS>MOLECULE
2rtn_IMI_B_1.pdb
 20 21 0 0 0
SMALL
GASTEIGER

@<TRIPOS>ATOM
      1  C11       29.6420   14.5860   -9.3740 C.2   300  IMI300      0.3649
      2  O11       30.2580   14.0110  -10.2700 O.co2 300  IMI300     -0.2457
      3  O12       28.4200   14.4720   -9.2520 O.co2 300  IMI300     -0.2457
      4  C10       30.4170   15.4960   -8.4590 C.3   300  IMI300      0.1141
      5  C9        31.8110   15.0230   -8.1020 C.3   300  IMI300      0.0118
      6  C8        31.7170   13.6830   -7.3660 C.3   300  IMI300      0.0015
      7  C7        33.0880   13.2310   -6.9390 C.3   300  IMI300      0.0122
      8  C2        33.0060   11.9710   -6.0660 C.3   300  IMI300      0.0635
      9  S1        32.1340   12.1260   -4.4990 S.3   300  IMI300     -0.1382
     10  C6        32.7780   10.4940   -4.1480 C.3   300  IMI300      0.0747
     11  C5        34.1830   10.3440   -4.6930 C.3   300  IMI300      0.0823
     12  N1        35.1150   10.9480   -3.7590 N.3   300  IMI300     -0.2723
     13  C3        35.8060   11.9400   -4.3050 C.3   300  IMI300      0.1707
     14  N3        36.7710   12.6180   -3.7250 N.3   300  IMI300     -0.2968
     15  N2        35.3820   12.1680   -5.5310 N.3   300  IMI300     -0.2723
     16  C4        34.3390   11.2290   -5.9220 C.3   300  IMI300      0.0815
     17  HN1       35.1560   10.6460   -2.8330 H     300  IMI300      0.1257
     18  HN3       37.2050   13.3440   -4.2250 H     300  IMI300      0.1213
     19  HN2       35.6800   12.9010   -6.1210 H     300  IMI300      0.1257
     20 HN32       37.0550   12.4350   -2.8080 H     300  IMI300      0.1213
@<TRIPOS>BOND
     1     2     1   ar
     2     1     3   ar
     3     1     4    1
     4     4     5    1
     5     5     6    1
     6     6     7    1
     7     7     8    1
     8    19    15    1
     9     8    16    1
    10     8     9    1
    11    16    15    1
    12    16    11    1
    13    15    13    1
    14    11    10    1
    15    11    12    1
    16     9    10    1
    17    13    12    1
    18    13    14    1
    19    18    14    1
    20    12    17    1
    21    14    20    1
