@<TRIPOS>MOLECULE
2rto_IMI_B_1.pdb
 33 34 0 0 0
SMALL
GASTEIGER

@<TRIPOS>ATOM
      1  C11       29.6300   14.5890   -9.5960 C.2   300  IMI300      0.3560
      2  O11       30.2170   14.1480  -10.5810 O.co2 300  IMI300     -0.2464
      3  O12       28.4640   14.3620   -9.2820 O.co2 300  IMI300     -0.2464
      4  C10       30.4590   15.5220   -8.7200 C.3   300  IMI300      0.0492
      5  C9        31.8670   14.9590   -8.4480 C.3   300  IMI300     -0.0428
      6  C8        31.7900   13.4880   -7.9670 C.3   300  IMI300     -0.0515
      7  C7        33.1100   13.1640   -7.2430 C.3   300  IMI300     -0.0396
      8  C2        32.9650   11.8600   -6.3820 C.3   300  IMI300      0.0222
      9  S1        31.9450   11.9080   -4.9060 S.3   300  IMI300     -0.1542
     10  C6        32.9430   10.6220   -4.1450 C.3   300  IMI300      0.0110
     11  C5        34.3140   10.3650   -4.8210 C.3   300  IMI300      0.0360
     12  N1        35.4410   10.9010   -3.9900 N.3   300  IMI300     -0.2778
     13  C3        35.9080   12.0100   -4.4800 C.3   300  IMI300      0.1701
     14  N3        36.8470   12.7280   -3.9460 N.3   300  IMI300     -0.2969
     15  N2        35.3130   12.3340   -5.5910 N.3   300  IMI300     -0.2775
     16  C4        34.3800   11.2720   -6.0640 C.3   300  IMI300      0.0385
     17 H101       29.9420   15.6550   -7.7900 H     300  IMI300      0.0379
     18 H102       30.5150   16.4720   -9.2260 H     300  IMI300      0.0379
     19  H91       32.4760   15.0520   -9.3290 H     300  IMI300      0.0270
     20  H92       32.3170   15.5670   -7.6780 H     300  IMI300      0.0270
     21  H81       30.9480   13.3530   -7.3030 H     300  IMI300      0.0266
     22  H82       31.6740   12.8260   -8.8130 H     300  IMI300      0.0266
     23  H71       33.8730   13.0280   -7.9940 H     300  IMI300      0.0276
     24  H72       33.4070   13.9850   -6.6050 H     300  IMI300      0.0276
     25  H2        32.4750   11.1390   -7.0190 H     300  IMI300      0.0428
     26  H61       32.3620    9.7130   -4.1830 H     300  IMI300      0.0392
     27  H62       33.0850   10.8790   -3.1070 H     300  IMI300      0.0392
     28  H5        34.4830    9.3230   -5.0500 H     300  IMI300      0.0485
     29  HN1       35.7830   10.4690   -3.1830 H     300  IMI300      0.1254
     30  HN3       37.1710   13.5630   -4.3420 H     300  IMI300      0.1213
     31  HN2       35.4580   13.1780   -6.0640 H     300  IMI300      0.1254
     32  H4        34.8120   10.7490   -6.9030 H     300  IMI300      0.0488
     33 HN32       37.3090   12.5030   -3.1120 H     300  IMI300      0.1213
@<TRIPOS>BOND
     1     2     1   ar
     2     1     3   ar
     3     1     4    1
     4    19     5    1
     5    18     4    1
     6    22     6    1
     7     4     5    1
     8     4    17    1
     9     5     6    1
    10     5    20    1
    11    23     7    1
    12     6    21    1
    13     6     7    1
    14     7    24    1
    15     7     8    1
    16    25     8    1
    17    32    16    1
    18     8    16    1
    19     8     9    1
    20    31    15    1
    21    16    15    1
    22    16    11    1
    23    15    13    1
    24    28    11    1
    25     9    10    1
    26    11    10    1
    27    11    12    1
    28    13    12    1
    29    13    14    1
    30    30    14    1
    31    26    10    1
    32    10    27    1
    33    12    29    1
    34    14    33    1
