@<TRIPOS>MOLECULE
2rtp_IMI_B_1.pdb
 33 34 0 0 0
SMALL
GASTEIGER

@<TRIPOS>ATOM
      1  C11       29.4420   14.2470   -9.6320 C.2   300  IMI300      0.3560
      2  O11       30.1170   13.7150  -10.5120 O.co2 300  IMI300     -0.2464
      3  O12       28.2410   14.0490   -9.4680 O.co2 300  IMI300     -0.2464
      4  C10       30.1570   15.2410   -8.7030 C.3   300  IMI300      0.0492
      5  C9        31.5740   14.7870   -8.3310 C.3   300  IMI300     -0.0428
      6  C8        31.5240   13.3580   -7.7680 C.3   300  IMI300     -0.0515
      7  C7        32.8730   13.0480   -7.0850 C.3   300  IMI300     -0.0396
      8  C2        32.7500   11.7170   -6.2530 C.3   300  IMI300      0.0222
      9  S1        31.8300   11.7530   -4.7120 S.3   300  IMI300     -0.1542
     10  C6        32.8560   10.4310   -4.0600 C.3   300  IMI300      0.0110
     11  C5        34.1770   10.2230   -4.7890 C.3   300  IMI300      0.0360
     12  N1        35.3060   10.8020   -4.0040 N.3   300  IMI300     -0.2778
     13  C3        35.7180   11.9300   -4.5080 C.3   300  IMI300      0.1701
     14  N3        36.6820   12.6710   -4.0560 N.3   300  IMI300     -0.2969
     15  N2        35.0360   12.2580   -5.5590 N.3   300  IMI300     -0.2775
     16  C4        34.1580   11.1550   -6.0230 C.3   300  IMI300      0.0385
     17 H101       29.5790   15.3360   -7.8020 H     300  IMI300      0.0379
     18 H102       30.1970   16.2060   -9.1880 H     300  IMI300      0.0379
     19  H91       32.2230   14.8550   -9.1840 H     300  IMI300      0.0270
     20  H92       31.9600   15.4590   -7.5790 H     300  IMI300      0.0270
     21  H81       30.7130   13.2650   -7.0620 H     300  IMI300      0.0266
     22  H82       31.3680   12.6540   -8.5710 H     300  IMI300      0.0266
     23  H71       33.6340   12.9430   -7.8410 H     300  IMI300      0.0276
     24  H72       33.1570   13.8620   -6.4320 H     300  IMI300      0.0276
     25  H2        32.2360   11.0040   -6.8780 H     300  IMI300      0.0428
     26  H61       32.2770    9.5240   -4.1290 H     300  IMI300      0.0392
     27  H62       33.0450   10.6300   -3.0170 H     300  IMI300      0.0392
     28  H5        34.3810    9.1910   -5.0320 H     300  IMI300      0.0485
     29  HN1       35.6900   10.3840   -3.2110 H     300  IMI300      0.1254
     30  HN3       36.9510   13.5140   -4.4750 H     300  IMI300      0.1213
     31  HN2       35.0870   13.1260   -6.0000 H     300  IMI300      0.1254
     32  H4        34.5810   10.6880   -6.9010 H     300  IMI300      0.0488
     33 HN32       37.2190   12.4560   -3.2650 H     300  IMI300      0.1213
@<TRIPOS>BOND
     1     2     1   ar
     2     1     3   ar
     3     1     4    1
     4    18     4    1
     5    19     5    1
     6     4     5    1
     7     4    17    1
     8    22     6    1
     9     5     6    1
    10     5    20    1
    11    23     7    1
    12     6     7    1
    13     6    21    1
    14     7    24    1
    15     7     8    1
    16    32    16    1
    17    25     8    1
    18     8    16    1
    19     8     9    1
    20    16    15    1
    21    16    11    1
    22    31    15    1
    23    15    13    1
    24    28    11    1
    25    11    10    1
    26    11    12    1
    27     9    10    1
    28    13    14    1
    29    13    12    1
    30    30    14    1
    31    26    10    1
    32    10    27    1
    33    14    33    1
    34    12    29    1
