@<TRIPOS>MOLECULE
2rtq_IMI_B_1.pdb
 33 34 0 0 0
SMALL
GASTEIGER

@<TRIPOS>ATOM
      1  C11       29.5810   14.5350   -9.5640 C.2   300  IMI300      0.3560
      2  O11       30.2380   14.0410  -10.4760 O.co2 300  IMI300     -0.2464
      3  O12       28.3940   14.3160   -9.3550 O.co2 300  IMI300     -0.2464
      4  C10       30.3150   15.5130   -8.6440 C.3   300  IMI300      0.0492
      5  C9        31.6950   15.0010   -8.2790 C.3   300  IMI300     -0.0428
      6  C8        31.5910   13.5340   -7.7700 C.3   300  IMI300     -0.0515
      7  C7        32.9110   13.1720   -7.0340 C.3   300  IMI300     -0.0396
      8  C2        32.7780   11.8540   -6.1970 C.3   300  IMI300      0.0222
      9  S1        31.8290   11.8370   -4.6490 S.3   300  IMI300     -0.1542
     10  C6        32.7860   10.4310   -4.0650 C.3   300  IMI300      0.0110
     11  C5        34.1890   10.2810   -4.7650 C.3   300  IMI300      0.0360
     12  N1        35.2670   10.8760   -3.9050 N.3   300  IMI300     -0.2778
     13  C3        35.7100   11.9900   -4.3830 C.3   300  IMI300      0.1701
     14  N3        36.5680   12.7330   -3.7810 N.3   300  IMI300     -0.2969
     15  N2        35.1870   12.2810   -5.5350 N.3   300  IMI300     -0.2775
     16  C4        34.2150   11.2370   -6.0030 C.3   300  IMI300      0.0385
     17 H101       29.7400   15.6160   -7.7490 H     300  IMI300      0.0379
     18 H102       30.3650   16.4720   -9.1380 H     300  IMI300      0.0379
     19  H91       32.3460   15.0920   -9.1300 H     300  IMI300      0.0270
     20  H92       32.0870   15.6350   -7.5000 H     300  IMI300      0.0270
     21  H81       30.7480   13.4380   -7.1050 H     300  IMI300      0.0266
     22  H82       31.4550   12.8620   -8.6020 H     300  IMI300      0.0266
     23  H71       33.6890   13.0500   -7.7730 H     300  IMI300      0.0276
     24  H72       33.2010   13.9790   -6.3740 H     300  IMI300      0.0276
     25  H2        32.2620   11.1670   -6.8510 H     300  IMI300      0.0428
     26  H61       32.1970    9.5440   -4.2490 H     300  IMI300      0.0392
     27  H62       32.9150   10.5320   -2.9980 H     300  IMI300      0.0392
     28  H5        34.4340    9.2610   -5.0280 H     300  IMI300      0.0485
     29  HN1       35.6000   10.4710   -3.0820 H     300  IMI300      0.1254
     30  HN3       36.8990   13.5790   -4.1470 H     300  IMI300      0.1213
     31  HN2       35.3990   13.0870   -6.0410 H     300  IMI300      0.1254
     32  H4        34.5920   10.7420   -6.8870 H     300  IMI300      0.0488
     33 HN32       36.9640   12.5130   -2.9150 H     300  IMI300      0.1213
@<TRIPOS>BOND
     1     2     1   ar
     2     1     3   ar
     3     1     4    1
     4    18     4    1
     5    19     5    1
     6     4     5    1
     7     4    17    1
     8    22     6    1
     9     5     6    1
    10     5    20    1
    11    23     7    1
    12     6    21    1
    13     6     7    1
    14     7    24    1
    15     7     8    1
    16    32    16    1
    17    25     8    1
    18     8    16    1
    19     8     9    1
    20    31    15    1
    21    16    15    1
    22    16    11    1
    23    15    13    1
    24    28    11    1
    25    11    10    1
    26    11    12    1
    27     9    10    1
    28    13    12    1
    29    13    14    1
    30    26    10    1
    31    30    14    1
    32    10    27    1
    33    12    29    1
    34    14    33    1
