@<TRIPOS>MOLECULE
2rtr_IMI_B_1.pdb
 20 21 0 0 0
SMALL
GASTEIGER

@<TRIPOS>ATOM
      1  C11       29.6980   14.4530   -9.5870 C.2   300  IMI300      0.3649
      2  O11       30.1820   13.8200  -10.5430 O.co2 300  IMI300     -0.2457
      3  O12       28.5140   14.3530   -9.2690 O.co2 300  IMI300     -0.2457
      4  C10       30.5640   15.4090   -8.7950 C.3   300  IMI300      0.1141
      5  C9        31.8590   14.8100   -8.3390 C.3   300  IMI300      0.0118
      6  C8        31.6270   13.4500   -7.7330 C.3   300  IMI300      0.0015
      7  C7        32.8780   13.2300   -6.9480 C.3   300  IMI300      0.0122
      8  C2        32.8450   11.9400   -6.1360 C.3   300  IMI300      0.0635
      9  S1        31.7940   11.7200   -4.6820 S.3   300  IMI300     -0.1382
     10  C6        32.7700   10.3140   -4.1200 C.3   300  IMI300      0.0747
     11  C5        34.1330   10.2420   -4.8340 C.3   300  IMI300      0.0823
     12  N1        35.1780   10.7860   -3.9820 N.3   300  IMI300     -0.2723
     13  C3        35.7470   11.8520   -4.5140 C.3   300  IMI300      0.1707
     14  N3        36.7180   12.5210   -3.9630 N.3   300  IMI300     -0.2968
     15  N2        35.2220   12.1720   -5.6830 N.3   300  IMI300     -0.2723
     16  C4        34.1930   11.2200   -6.0510 C.3   300  IMI300      0.0815
     17  HN1       35.3690   10.3770   -3.1260 H     300  IMI300      0.1257
     18  HN3       37.0580   13.2970   -4.4460 H     300  IMI300      0.1213
     19  HN2       35.4410   12.9490   -6.2390 H     300  IMI300      0.1257
     20 HN32       37.0940   12.2850   -3.0950 H     300  IMI300      0.1213
@<TRIPOS>BOND
     1     2     1   ar
     2     1     3   ar
     3     1     4    1
     4     4     5    1
     5     5     6    1
     6     6     7    1
     7     7     8    1
     8    19    15    1
     9     8    16    1
    10     8     9    1
    11    16    15    1
    12    16    11    1
    13    15    13    1
    14    11    10    1
    15    11    12    1
    16     9    10    1
    17    13    12    1
    18    13    14    1
    19    18    14    1
    20    12    17    1
    21    14    20    1
