@<TRIPOS>MOLECULE
2sam_EPN_A_1.pdb
 14 14 0 0 0
SMALL
GASTEIGER

@<TRIPOS>ATOM
      1  C1       -18.3750   -0.4400   -1.1460 C.3   101  EPN101      0.1860
      2  O17      -19.6820   -0.9360   -1.4930 O.3   101  EPN101     -0.2203
      3  C2       -18.0490    0.8970   -1.7770 C.3   101  EPN101      0.0828
      4  C3       -19.0410    2.0300   -1.5070 C.3   101  EPN101      0.2081
      5  O18      -18.9710    2.9570   -0.4790 O.3   101  EPN101     -0.4754
      6  C4       -22.0480    5.0800   -0.3920 C.ar  101  EPN101      0.0272
      7  C5       -21.6620    6.0740    0.5160 C.ar  101  EPN101      0.1431
      8  N11      -22.5690    7.2310    0.9140 N.pl3 101  EPN101      0.0577
      9  O14      -23.6570    7.2450    0.4100 O.2   101  EPN101     -0.1261
     10  O16      -22.0880    8.0020    1.6990 O.2   101  EPN101     -0.1261
     11  C6       -20.3830    5.9770    1.0450 C.ar  101  EPN101      0.0272
     12  C7       -19.5360    4.9610    0.6910 C.ar  101  EPN101      0.0386
     13  C8       -19.9340    3.9880   -0.1910 C.ar  101  EPN101      0.1387
     14  C9       -21.1930    4.0360   -0.7420 C.ar  101  EPN101      0.0386
@<TRIPOS>BOND
     1     3     4    1
     2     3     1    1
     3     4     5    1
     4     2     1    1
     5    14     6   ar
     6    14    13   ar
     7     5    13    1
     8     6     7   ar
     9    13    12   ar
    10     9     8    2
    11     7     8    1
    12     7    11   ar
    13    12    11   ar
    14     8    10    2
