@<TRIPOS>MOLECULE
2sar_3GP_A_1.pdb
 24 26 0 0 0
SMALL
GASTEIGER

@<TRIPOS>ATOM
      1  P         59.7350   10.8280   20.9000 P.3    98  3GP98       0.5327
      2  O1P       59.8190   10.3300   19.4160 O.2    98  3GP98      -0.2224
      3  O2P       60.5020   10.0640   21.9760 O.3    98  3GP98      -0.1145
      4  O3P       60.0170   12.2970   20.9540 O.3    98  3GP98      -0.1145
      5  O5'       57.0900    6.5160   22.2660 O.3    98  3GP98      -0.2176
      6  C5'       58.1490    6.8930   21.3040 C.3    98  3GP98       0.2141
      7  C4'       57.8830    8.3450   20.8810 C.3    98  3GP98       0.1802
      8  O4'       56.5690    8.3380   20.2320 O.3    98  3GP98      -0.3326
      9  C3'       57.8080    9.4380   21.9430 C.3    98  3GP98       0.1903
     10  O3'       58.1790   10.6950   21.4180 O.3    98  3GP98      -0.2674
     11  C2'       56.3310    9.5690   22.3420 C.3    98  3GP98       0.2283
     12  O2'       55.9880   10.9280   22.6350 O.3    98  3GP98      -0.2159
     13  C1'       55.7300    9.3320   20.9520 C.3    98  3GP98       0.2292
     14  N9        54.3640    8.8240   20.7470 N.pl3  98  3GP98      -0.2354
     15  C8        53.8470    7.5150   20.8430 C.3    98  3GP98       0.2246
     16  N7        52.6040    7.4890   20.4540 N.2    98  3GP98      -0.2322
     17  C5        52.3140    8.8450   20.1200 C.2    98  3GP98       0.2182
     18  C6        51.1620    9.5200   19.5610 C.1    98  3GP98       0.2372
     19  O6        50.1130    8.9060   19.3260 O.2    98  3GP98      -0.2069
     20  N1        51.3470   10.8960   19.3430 N.2    98  3GP98      -0.2485
     21  C2        52.4990   11.6620   19.5460 C.1    98  3GP98       0.2531
     22  N2        52.4460   12.9550   19.2260 N.pl3  98  3GP98      -0.0226
     23  N3        53.5470   11.0280   20.0300 N.2    98  3GP98      -0.3074
     24  C4        53.4060    9.7080   20.2830 C.2    98  3GP98       0.2300
@<TRIPOS>BOND
     1    22    21    1
     2    19    18    2
     3    20    21    2
     4    20    18    2
     5     2     1    2
     6    21    23    2
     7    18    17    1
     8    23    24    2
     9    17    24    1
    10    17    16    2
    11     8     7    1
    12     8    13    1
    13    24    14    1
    14    16    15    1
    15    14    15    1
    16    14    13    1
    17     7     6    1
    18     7     9    1
    19     1     4    1
    20     1    10    1
    21     1     3    1
    22    13    11    1
    23     6     5    1
    24    10     9    1
    25     9    11    1
    26    11    12    1
