@<TRIPOS>MOLECULE
2sba_GAL_A_1.pdb
 11 11 0 0 0
SMALL
GASTEIGER

@<TRIPOS>ATOM
      1  C1         4.9170   90.5790   82.8250 C.3   847  GAL847      0.1777
      2  C2         4.2660   91.8260   82.1310 C.3   847  GAL847      0.2141
      3  C3         4.6880   91.9320   80.6800 C.3   847  GAL847      0.2173
      4  C4         6.2370   91.7980   80.5450 C.3   847  GAL847      0.2142
      5  C5         6.7410   90.5120   81.1390 C.3   847  GAL847      0.1810
      6  C6         8.2680   90.5980   81.0590 C.3   847  GAL847      0.2141
      7  O2         2.8340   91.8650   82.2210 O.3   847  GAL847     -0.2176
      8  O3         4.1520   93.1230   80.0950 O.3   847  GAL847     -0.2175
      9  O4         6.9190   92.8280   81.2250 O.3   847  GAL847     -0.2176
     10  O5         6.3480   90.4460   82.5310 O.3   847  GAL847     -0.3481
     11  O6         9.0200   89.4100   81.1290 O.3   847  GAL847     -0.2176
@<TRIPOS>BOND
     1     8     3    1
     2     4     3    1
     3     4     5    1
     4     4     9    1
     5     3     2    1
     6     6    11    1
     7     6     5    1
     8     5    10    1
     9     2     7    1
    10     2     1    1
    11    10     1    1
