@<TRIPOS>MOLECULE
2scu_COA_A_1.pdb
 48 50 0 0 0
SMALL
GASTEIGER

@<TRIPOS>ATOM
      1  N1A       30.8610   62.4060   49.4290 N.2   300  COA300      0.0021
      2  C2A       30.1720   63.4600   49.6990 C.3   300  COA300      0.5254
      3  N3A       29.0320   63.4860   50.3830 N.2   300  COA300     -0.0055
      4  C4A       28.5830   62.2940   50.7850 C.2   300  COA300      0.3518
      5  C5A       29.2610   61.1170   50.6640 C.2   300  COA300      0.2526
      6  C6A       30.4180   61.2050   49.8680 C.2   300  COA300      0.4393
      7  N6A       31.2250   60.1810   49.6660 N.pl3 300  COA300      0.2180
      8  N7A       28.4770   60.0720   51.1580 N.2   300  COA300     -0.2095
      9  C8A       27.3670   60.6560   51.5670 C.3   300  COA300      0.3377
     10  N9A       27.3700   62.0100   51.3720 N.pl3 300  COA300     -0.1439
     11  C1B       26.4180   62.9870   51.8750 C.3   300  COA300      0.3185
     12  C2B       24.9910   62.5100   52.0680 C.3   300  COA300      0.2543
     13  O2B       24.3580   62.2410   50.8330 O.3   300  COA300     -0.2131
     14  C3B       24.4540   63.6400   52.9590 C.3   300  COA300      0.1928
     15  O3B       23.9580   64.8040   52.2700 O.3   300  COA300     -0.2673
     16  P3B       22.5100   64.7650   51.5130 P.3   300  COA300      0.5327
     17  O7A       22.3200   66.0270   50.7340 O.3   300  COA300     -0.1145
     18  O8A       22.3520   63.5570   50.6310 O.2   300  COA300     -0.2224
     19  O9A       21.4760   64.6110   52.5740 O.3   300  COA300     -0.1145
     20  C4B       25.6860   64.0160   53.7550 C.3   300  COA300      0.1795
     21  O4B       26.7680   63.2380   53.2080 O.3   300  COA300     -0.3136
     22  C5B       25.5870   63.5970   55.1680 C.3   300  COA300      0.1812
     23  O5B       24.4530   64.3240   55.6770 O.3   300  COA300     -0.3112
     24  P1A       23.3690   63.7260   56.7240 P.3   300  COA300      0.2189
     25  O1A       22.4250   64.7520   57.2380 O.3   300  COA300     -0.4371
     26  O2A       22.9030   62.3640   56.3410 O.2   300  COA300     -0.5170
     27  O3A       24.1520   63.6280   58.0880 O.3   300  COA300     -0.2703
     28  P2A       24.5160   64.6480   59.2020 P.3   300  COA300      0.2188
     29  O4A       24.9850   65.8890   58.4900 O.2   300  COA300     -0.5170
     30  O5A       23.6090   64.6310   60.3750 O.3   300  COA300     -0.4371
     31  O6A       25.7300   63.8490   59.8930 O.3   300  COA300     -0.3138
     32  CBP       28.0710   63.6130   60.4430 C.3   300  COA300      0.0645
     33  CCP       26.9930   63.5130   59.3580 C.3   300  COA300      0.1519
     34  CDP       28.1650   65.0780   60.9450 C.3   300  COA300      0.0056
     35  CEP       29.3860   63.2230   59.8490 C.3   300  COA300      0.0056
     36  CAP       27.7210   62.6600   61.5890 C.3   300  COA300      0.2312
     37  OAP       28.0550   61.3180   61.1500 O.3   300  COA300     -0.2131
     38  C9P       28.7140   62.7650   62.7340 C.2   300  COA300      0.2719
     39  O9P       29.8280   62.3220   62.5990 O.2   300  COA300     -0.2706
     40  N8P       28.3000   63.2950   63.8930 N.am  300  COA300     -0.2028
     41  C7P       29.2150   63.4760   65.0120 C.3   300  COA300      0.1248
     42  C6P       30.0680   64.7360   64.7140 C.3   300  COA300      0.1102
     43  C5P       31.0230   64.9870   65.9010 C.2   300  COA300      0.2432
     44  O5P       30.6290   64.7180   67.0650 O.2   300  COA300     -0.2733
     45  N4P       32.2810   65.3760   65.6320 N.am  300  COA300     -0.2044
     46  C3P       33.2660   65.5240   66.6770 C.3   300  COA300      0.1276
     47  C2P       33.6040   66.9820   66.8630 C.3   300  COA300      0.0920
     48  S1P       34.2880   67.3450   68.5090 S.3   300  COA300     -0.0802
@<TRIPOS>BOND
     1     1     2    1
     2     1     6    2
     3     7     6    1
     4     2     3    1
     5     6     5    1
     6     3     4    2
     7    18    16    2
     8     5     4    1
     9     5     8    2
    10    17    16    1
    11     4    10    1
    12    13    12    1
    13     8     9    1
    14    10     9    1
    15    10    11    1
    16    16    15    1
    17    16    19    1
    18    11    12    1
    19    11    21    1
    20    12    14    1
    21    15    14    1
    22    14    20    1
    23    21    20    1
    24    20    22    1
    25    22    23    1
    26    23    24    1
    27    26    24    2
    28    24    25    1
    29    24    27    1
    30    27    28    1
    31    29    28    2
    32    28    31    1
    33    28    30    1
    34    33    31    1
    35    33    32    1
    36    35    32    1
    37    32    34    1
    38    32    36    1
    39    37    36    1
    40    36    38    1
    41    39    38    2
    42    38    40   am
    43    40    41    1
    44    42    41    1
    45    42    43    1
    46    45    43   am
    47    45    46    1
    48    43    44    2
    49    46    47    1
    50    47    48    1
