@<TRIPOS>MOLECULE
2sfp_PLP_A_1.pdb
 15 15 0 0 0
SMALL
GASTEIGER

@<TRIPOS>ATOM
      1  N1        24.6380   52.0970   82.2000 N.ar  500  PLP500     -0.2452
      2  C2        23.4890   51.4510   81.8290 C.ar  500  PLP500      0.0978
      3  C2A       22.2090   52.2180   81.7360 C.3   500  PLP500      0.0555
      4  C3        23.5200   50.1100   81.3830 C.ar  500  PLP500      0.2049
      5  O3        22.3170   49.6040   80.9040 O.3   500  PLP500     -0.2857
      6  C4        24.7410   49.3970   81.3290 C.ar  500  PLP500      0.0182
      7  C4A       24.7590   47.9800   80.8900 C.3   500  PLP500      0.0342
      8  C5        25.8580   50.0900   81.7090 C.ar  500  PLP500      0.0261
      9  C6        25.8060   51.4060   82.1200 C.ar  500  PLP500      0.0965
     10  C5A       27.2190   49.5800   81.6490 C.3   500  PLP500      0.1815
     11  O4P       27.8650   49.8820   80.3470 O.3   500  PLP500     -0.2653
     12  P         29.3610   49.5750   79.9890 P.3   500  PLP500      0.5329
     13  O1P       29.5770   48.1090   80.1600 O.3   500  PLP500     -0.1145
     14  O2P       29.3970   50.0080   78.5770 O.2   500  PLP500     -0.2224
     15  O3P       30.1460   50.4320   80.9230 O.3   500  PLP500     -0.1145
@<TRIPOS>BOND
     1    14    12    2
     2    12    13    1
     3    12    11    1
     4    12    15    1
     5    11    10    1
     6     7     6    1
     7     5     4    1
     8     6     4   ar
     9     6     8   ar
    10     4     2   ar
    11    10     8    1
    12     8     9   ar
    13     3     2    1
    14     2     1   ar
    15     9     1   ar
