@<TRIPOS>MOLECULE
2shk_ADP_B_1.pdb
 27 29 0 0 0
SMALL
GASTEIGER

@<TRIPOS>ATOM
      1  PB        37.2230   26.5510   31.1380 P.3   905  ADP905      0.5373
      2  O1B       37.6070   25.1610   31.4900 O.3   905  ADP905     -0.1143
      3  O2B       35.8750   26.6680   30.2400 O.2   905  ADP905     -0.2221
      4  O3B       37.0200   27.3500   32.3850 O.3   905  ADP905     -0.1143
      5  PA        38.4210   28.3720   29.2710 P.3   905  ADP905      0.2231
      6  O1A       37.2640   29.2700   29.5710 O.3   905  ADP905     -0.4370
      7  O2A       38.3380   27.9650   27.8620 O.2   905  ADP905     -0.5169
      8  O3A       38.3440   27.1820   30.2820 O.3   905  ADP905     -0.2261
      9  O5'       39.8260   29.0360   29.6040 O.3   905  ADP905     -0.3111
     10  C5'       40.8480   28.5430   30.4700 C.3   905  ADP905      0.1813
     11  C4'       42.1140   29.3710   30.2630 C.3   905  ADP905      0.1821
     12  O4'       43.1600   28.5340   29.7310 O.3   905  ADP905     -0.3135
     13  C3'       41.9930   30.5220   29.2610 C.3   905  ADP905      0.2184
     14  O3'       42.9320   31.5540   29.5780 O.3   905  ADP905     -0.2174
     15  C2'       42.3690   29.8960   27.9320 C.3   905  ADP905      0.2570
     16  O2'       42.6810   30.9050   26.9540 O.3   905  ADP905     -0.2130
     17  C1'       43.4800   28.9630   28.3870 C.3   905  ADP905      0.3186
     18  N9        43.6010   27.7480   27.5150 N.pl3 905  ADP905     -0.1439
     19  C8        42.5540   26.9680   27.2390 C.3   905  ADP905      0.3377
     20  N7        43.0110   25.8450   26.6950 N.2   905  ADP905     -0.2095
     21  C5        44.3180   25.8930   26.6040 C.2   905  ADP905      0.2526
     22  C6        45.2950   25.0370   26.1260 C.2   905  ADP905      0.4393
     23  N6        44.9240   23.8590   25.6210 N.pl3 905  ADP905      0.2180
     24  N1        46.6010   25.3920   26.1860 N.2   905  ADP905      0.0021
     25  C2        46.9530   26.5820   26.6880 C.3   905  ADP905      0.5254
     26  N3        46.0180   27.4140   27.1520 N.2   905  ADP905     -0.0055
     27  C4        44.7050   27.1320   27.1420 C.2   905  ADP905      0.3518
@<TRIPOS>BOND
     1    23    22    1
     2    22    24    2
     3    22    21    1
     4    24    25    1
     5    21    20    2
     6    21    27    1
     7    25    26    1
     8    20    19    1
     9    16    15    1
    10    27    26    2
    11    27    18    1
    12    19    18    1
    13    18    17    1
    14     7     5    2
    15    15    17    1
    16    15    13    1
    17    17    12    1
    18    13    14    1
    19    13    11    1
    20     5     6    1
    21     5     9    1
    22     5     8    1
    23     9    10    1
    24    12    11    1
    25     3     1    2
    26    11    10    1
    27     8     1    1
    28     1     2    1
    29     1     4    1
