@<TRIPOS>MOLECULE
2shp_CAT_A_1.pdb
 16 15 0 0 0
SMALL
GASTEIGER

@<TRIPOS>ATOM
      1  C1        23.6380  -22.0500   33.6230 C.3   1800  CAT1800    -0.0733
      2  C2        22.2840  -22.1130   32.8760 C.3   1800  CAT1800    -0.0223
      3  C3        22.0550  -23.5140   32.3030 C.3   1800  CAT1800    -0.0021
      4  C4        20.5860  -23.8110   32.0610 C.3   1800  CAT1800    -0.0001
      5  C5        20.0340  -23.0180   30.8800 C.3   1800  CAT1800    -0.0000
      6  C6        20.7970  -23.2980   29.5730 C.3   1800  CAT1800    -0.0000
      7  C7        20.2500  -22.4860   28.4050 C.3   1800  CAT1800     0.0000
      8  C8        18.7680  -22.7500   28.2010 C.3   1800  CAT1800     0.0000
      9  C9        18.3220  -22.3900   26.8000 C.3   1800  CAT1800     0.0000
     10  C10       16.8080  -22.4300   26.6900 C.3   1800  CAT1800     0.0000
     11  C11       16.3610  -22.0850   25.2780 C.3   1800  CAT1800     0.0000
     12  C12       14.8480  -21.8950   25.2040 C.3   1800  CAT1800     0.0000
     13  CA1       22.9000  -19.6800   33.7480 C.3   1800  CAT1800    -0.0960
     14  CB1       24.2600  -20.6110   35.5530 C.3   1800  CAT1800    -0.0960
     15  CC1       25.2460  -20.2390   33.3650 C.3   1800  CAT1800    -0.0960
     16  NE1       24.0110  -20.6340   34.0680 N.4   1800  CAT1800     0.3857
@<TRIPOS>BOND
     1    12    11    1
     2    11    10    1
     3    10     9    1
     4     9     8    1
     5     8     7    1
     6     7     6    1
     7     6     5    1
     8     5     4    1
     9     4     3    1
    10     3     2    1
    11     2     1    1
    12    15    16    1
    13     1    16    1
    14    13    16    1
    15    16    14    1
