@<TRIPOS>MOLECULE
2sim_DAN_A_1.pdb
 20 20 0 0 0
SMALL
GASTEIGER

@<TRIPOS>ATOM
      1  C1        43.1440   51.8930   45.7220 C.2   800  DAN800      0.4208
      2  C2        42.9540   51.5700   47.0740 C.2   800  DAN800      0.2163
      3  C3        41.6990   51.1110   47.5000 C.2   800  DAN800      0.0518
      4  C4        41.5320   50.4770   48.8760 C.3   800  DAN800      0.2007
      5  C5        42.6710   50.9260   49.8030 C.3   800  DAN800      0.1722
      6  C6        44.0010   50.6440   49.0790 C.3   800  DAN800      0.2215
      7  C7        45.2100   51.0200   49.9070 C.3   800  DAN800      0.2261
      8  C8        46.4760   50.7660   49.0570 C.3   800  DAN800      0.2185
      9  C9        47.7450   51.1770   49.8680 C.3   800  DAN800      0.2175
     10  C10       42.7660   50.7610   52.2420 C.2   800  DAN800      0.2420
     11  C11       42.3930   49.9380   53.4740 C.3   800  DAN800      0.0964
     12  N5        42.5120   50.2100   51.0570 N.am  800  DAN800     -0.2004
     13  O1A       42.2370   52.2040   44.9500 O.co2 800  DAN800     -0.2371
     14  O1B       44.2840   51.8270   45.2450 O.co2 800  DAN800     -0.2371
     15  O4        40.2990   50.8100   49.5070 O.3   800  DAN800     -0.2162
     16  O6        44.0580   51.4470   47.8980 O.2   800  DAN800     -0.4684
     17  O7        45.0550   52.3880   50.2550 O.3   800  DAN800     -0.2164
     18  O8        46.5260   49.3690   48.6880 O.3   800  DAN800     -0.2174
     19  O9        47.8820   50.3710   51.0250 O.3   800  DAN800     -0.2175
     20  O10       43.3710   51.8420   52.3360 O.2   800  DAN800     -0.2733
@<TRIPOS>BOND
     1    13     1   ar
     2    14     1   ar
     3     1     2    1
     4     2     3    2
     5     2    16    1
     6     3     4    1
     7    16     6    1
     8    18     8    1
     9     4    15    1
    10     4     5    1
    11     8     9    1
    12     8     7    1
    13     6     5    1
    14     6     7    1
    15     5    12    1
    16     9    19    1
    17     7    17    1
    18    12    10   am
    19    10    20    2
    20    10    11    1
