@<TRIPOS>MOLECULE
2skc_GLC_A_1.pdb
 12 12 0 0 0
SMALL
GASTEIGER

@<TRIPOS>ATOM
      1  C1        33.6020   22.7740   27.8970 C.3   998  GLC998      0.3024
      2  C2        33.8150   23.0330   26.3950 C.3   998  GLC998      0.2434
      3  C3        32.6450   22.4300   25.5520 C.3   998  GLC998      0.2199
      4  C4        32.3890   20.9480   25.8860 C.3   998  GLC998      0.2144
      5  C5        32.2710   20.7820   27.4380 C.3   998  GLC998      0.1836
      6  C6        32.1780   19.3270   27.8060 C.3   998  GLC998      0.2142
      7  O1        32.4710   23.4710   28.3890 O.3   998  GLC998     -0.1869
      8  O2        33.9260   24.4130   26.1450 O.3   998  GLC998     -0.2148
      9  O3        32.9190   22.4940   24.1600 O.3   998  GLC998     -0.2174
     10  O4        31.1970   20.4850   25.2250 O.3   998  GLC998     -0.2176
     11  O5        33.4410   21.3530   28.1040 O.3   998  GLC998     -0.3236
     12  O6        33.1080   18.5230   27.1130 O.3   998  GLC998     -0.2176
@<TRIPOS>BOND
     1     9     3    1
     2    10     4    1
     3     3     4    1
     4     3     2    1
     5     4     5    1
     6     8     2    1
     7     2     1    1
     8    12     6    1
     9     5     6    1
    10     5    11    1
    11     1    11    1
    12     1     7    1
