@<TRIPOS>MOLECULE
2skc_IMP_A_1.pdb
 23 25 0 0 0
SMALL
GASTEIGER

@<TRIPOS>ATOM
      1  P         31.0080    2.2210   51.3710 P.3   930  IMP930      0.5327
      2  O1P       31.1900    1.9970   49.9190 O.2   930  IMP930     -0.2224
      3  O2P       30.5750    3.6010   51.6660 O.3   930  IMP930     -0.1145
      4  O3P       32.2400    1.9160   52.1010 O.3   930  IMP930     -0.1145
      5  O5'       29.7370    1.3050   51.8180 O.3   930  IMP930     -0.2675
      6  C5'       29.0130    0.4620   50.8640 C.3   930  IMP930      0.1860
      7  C4'       27.7620   -0.3960   51.4200 C.3   930  IMP930      0.1823
      8  O4'       28.4880   -1.6700   51.5690 O.3   930  IMP930     -0.3135
      9  C3'       27.4580   -0.1880   52.8730 C.3   930  IMP930      0.2184
     10  O3'       26.4120    0.7450   53.1180 O.3   930  IMP930     -0.2174
     11  C2'       27.0980   -1.6470   53.3950 C.3   930  IMP930      0.2570
     12  O2'       25.8700   -2.2850   52.9520 O.3   930  IMP930     -0.2130
     13  C1'       28.1400   -2.4730   52.7650 C.3   930  IMP930      0.3186
     14  N9        29.3740   -2.6660   53.6370 N.pl3 930  IMP930     -0.1435
     15  C8        30.4590   -1.8870   53.5830 C.3   930  IMP930      0.3382
     16  N7        31.4220   -2.3490   54.5590 N.2   930  IMP930     -0.2054
     17  C5        30.7660   -3.4450   55.1460 C.2   930  IMP930      0.2446
     18  C6        31.3050   -4.3080   56.1700 C.1   930  IMP930      0.1792
     19  O6        32.4070   -4.2410   56.7120 O.2   930  IMP930     -0.2203
     20  N1        30.3490   -5.2800   56.4600 N.2   930  IMP930     -0.1458
     21  C2        29.0870   -5.4030   55.8750 C.3   930  IMP930      0.4017
     22  N3        28.6620   -4.6100   54.9490 N.2   930  IMP930     -0.0334
     23  C4        29.5390   -3.6370   54.6110 C.2   930  IMP930      0.3528
@<TRIPOS>BOND
     1     2     1    2
     2     6     7    1
     3     6     5    1
     4     1     3    1
     5     1     5    1
     6     1     4    1
     7     7     8    1
     8     7     9    1
     9     8    13    1
    10    13    11    1
    11    13    14    1
    12     9    10    1
    13     9    11    1
    14    12    11    1
    15    15    14    1
    16    15    16    1
    17    14    23    1
    18    16    17    2
    19    23    22    2
    20    23    17    1
    21    22    21    1
    22    17    18    1
    23    21    20    1
    24    18    20    2
    25    18    19    2
