@<TRIPOS>MOLECULE
2skc_PLP_A_1.pdb
 11 11 0 0 0
SMALL
GASTEIGER

@<TRIPOS>ATOM
      1  N1        24.7030   25.3910   30.4940 N.ar  999  PLP999     -0.2452
      2  C2        23.5160   24.6950   30.7140 C.ar  999  PLP999      0.0978
      3  C2A       22.5330   25.2440   31.7430 C.3   999  PLP999      0.0555
      4  C3        23.2180   23.5750   29.9480 C.ar  999  PLP999      0.2049
      5  O3        22.0260   22.8650   30.1120 O.3   999  PLP999     -0.2857
      6  C4        24.1210   23.1730   28.9730 C.ar  999  PLP999      0.0183
      7  C4A       23.8350   21.8760   28.2140 C.3   999  PLP999      0.0342
      8  C5        25.3100   23.9140   28.7680 C.ar  999  PLP999      0.0288
      9  C6        25.5810   25.0150   29.5260 C.ar  999  PLP999      0.0966
     10  C5A       26.3080   23.6190   27.6540 C.3   999  PLP999      0.2099
     11  O4P       25.7740   24.1660   26.4550 O.3   999  PLP999     -0.2151
@<TRIPOS>BOND
     1    11    10    1
     2    10     8    1
     3     7     6    1
     4     8     6   ar
     5     8     9   ar
     6     6     4   ar
     7     9     1   ar
     8     4     5    1
     9     4     2   ar
    10     1     2   ar
    11     2     3    1
