@<TRIPOS>MOLECULE
2skd_GLC_A_1.pdb
 12 12 0 0 0
SMALL
GASTEIGER

@<TRIPOS>ATOM
      1  C1        33.6120   22.7450   27.9150 C.3   998  GLC998      0.3024
      2  C2        33.8760   22.9820   26.4050 C.3   998  GLC998      0.2434
      3  C3        32.7410   22.3660   25.5300 C.3   998  GLC998      0.2199
      4  C4        32.5130   20.8930   25.9110 C.3   998  GLC998      0.2144
      5  C5        32.2980   20.7560   27.4630 C.3   998  GLC998      0.1836
      6  C6        32.2260   19.3470   27.9080 C.3   998  GLC998      0.2142
      7  O1        32.5070   23.4790   28.3730 O.3   998  GLC998     -0.1869
      8  O2        33.9910   24.3430   26.1250 O.3   998  GLC998     -0.2148
      9  O3        33.0260   22.4280   24.1210 O.3   998  GLC998     -0.2174
     10  O4        31.3710   20.4220   25.2100 O.3   998  GLC998     -0.2176
     11  O5        33.3790   21.3470   28.1990 O.3   998  GLC998     -0.3236
     12  O6        33.1590   18.5250   27.2270 O.3   998  GLC998     -0.2176
@<TRIPOS>BOND
     1     9     3    1
     2    10     4    1
     3     3     4    1
     4     3     2    1
     5     4     5    1
     6     8     2    1
     7     2     1    1
     8    12     6    1
     9     5     6    1
    10     5    11    1
    11     1    11    1
    12     1     7    1
