@<TRIPOS>MOLECULE
2skd_IMP_A_1.pdb
 23 25 0 0 0
SMALL
GASTEIGER

@<TRIPOS>ATOM
      1  P         30.9420    2.2060   51.3790 P.3   930  IMP930      0.5327
      2  O1P       31.1390    1.9850   49.9270 O.2   930  IMP930     -0.2224
      3  O2P       30.5350    3.5800   51.6990 O.3   930  IMP930     -0.1145
      4  O3P       32.1690    1.8500   52.1210 O.3   930  IMP930     -0.1145
      5  O5'       29.6650    1.2980   51.8170 O.3   930  IMP930     -0.2675
      6  C5'       28.9570    0.4470   50.8890 C.3   930  IMP930      0.1860
      7  C4'       27.7190   -0.3990   51.4530 C.3   930  IMP930      0.1823
      8  O4'       28.4390   -1.6700   51.5870 O.3   930  IMP930     -0.3135
      9  C3'       27.4180   -0.1720   52.9140 C.3   930  IMP930      0.2184
     10  O3'       26.3650    0.7450   53.1500 O.3   930  IMP930     -0.2174
     11  C2'       27.0590   -1.6220   53.4320 C.3   930  IMP930      0.2570
     12  O2'       25.8230   -2.2330   52.9760 O.3   930  IMP930     -0.2130
     13  C1'       28.0960   -2.4670   52.7910 C.3   930  IMP930      0.3186
     14  N9        29.3440   -2.6680   53.6470 N.pl3 930  IMP930     -0.1435
     15  C8        30.4340   -1.8940   53.5770 C.3   930  IMP930      0.3382
     16  N7        31.4090   -2.3620   54.5550 N.2   930  IMP930     -0.2054
     17  C5        30.7530   -3.4510   55.1540 C.2   930  IMP930      0.2446
     18  C6        31.2930   -4.3130   56.1780 C.1   930  IMP930      0.1792
     19  O6        32.3990   -4.2470   56.7120 O.2   930  IMP930     -0.2203
     20  N1        30.3450   -5.2800   56.4780 N.2   930  IMP930     -0.1458
     21  C2        29.0800   -5.3970   55.9160 C.3   930  IMP930      0.4017
     22  N3        28.6480   -4.6140   54.9810 N.2   930  IMP930     -0.0334
     23  C4        29.5170   -3.6320   54.6380 C.2   930  IMP930      0.3528
@<TRIPOS>BOND
     1     2     1    2
     2     6     7    1
     3     6     5    1
     4     1     3    1
     5     1     5    1
     6     1     4    1
     7     7     8    1
     8     7     9    1
     9     8    13    1
    10    13    11    1
    11    13    14    1
    12     9    10    1
    13     9    11    1
    14    12    11    1
    15    15    14    1
    16    15    16    1
    17    14    23    1
    18    16    17    2
    19    23    22    2
    20    23    17    1
    21    22    21    1
    22    17    18    1
    23    21    20    1
    24    18    20    2
    25    18    19    2
