@<TRIPOS>MOLECULE
2skd_PLP_A_1.pdb
 11 11 0 0 0
SMALL
GASTEIGER

@<TRIPOS>ATOM
      1  N1        24.6330   25.4890   30.4180 N.ar  999  PLP999     -0.2452
      2  C2        23.5010   24.7820   30.6780 C.ar  999  PLP999      0.0978
      3  C2A       22.5620   25.3310   31.7160 C.3   999  PLP999      0.0555
      4  C3        23.2500   23.6060   29.9860 C.ar  999  PLP999      0.2049
      5  O3        22.1190   22.8660   30.2230 O.3   999  PLP999     -0.2857
      6  C4        24.1570   23.1740   29.0390 C.ar  999  PLP999      0.0183
      7  C4A       23.9090   21.8180   28.3170 C.3   999  PLP999      0.0342
      8  C5        25.3130   23.9300   28.8010 C.ar  999  PLP999      0.0288
      9  C6        25.5380   25.0670   29.4940 C.ar  999  PLP999      0.0966
     10  C5A       26.2750   23.6430   27.6650 C.3   999  PLP999      0.2099
     11  O4P       25.7340   24.1440   26.4740 O.3   999  PLP999     -0.2151
@<TRIPOS>BOND
     1    11    10    1
     2    10     8    1
     3     7     6    1
     4     8     6   ar
     5     8     9   ar
     6     6     4   ar
     7     9     1   ar
     8     4     5    1
     9     4     2   ar
    10     1     2   ar
    11     2     3    1
