@<TRIPOS>MOLECULE
2ske_PLP_A_1.pdb
 11 11 0 0 0
SMALL
GASTEIGER

@<TRIPOS>ATOM
      1  N1        24.6830   25.3690   30.5390 N.ar  999  PLP999     -0.2452
      2  C2        23.5280   24.6840   30.7500 C.ar  999  PLP999      0.0978
      3  C2A       22.4710   25.3130   31.6260 C.3   999  PLP999      0.0555
      4  C3        23.2730   23.5360   30.0180 C.ar  999  PLP999      0.2049
      5  O3        22.0520   22.8560   30.1540 O.3   999  PLP999     -0.2857
      6  C4        24.1730   23.1000   29.0750 C.ar  999  PLP999      0.0183
      7  C4A       23.8790   21.7220   28.3540 C.3   999  PLP999      0.0342
      8  C5        25.3490   23.8380   28.8660 C.ar  999  PLP999      0.0288
      9  C6        25.5810   24.9470   29.6250 C.ar  999  PLP999      0.0966
     10  C5A       26.2910   23.5740   27.6710 C.3   999  PLP999      0.2099
     11  O4P       25.7610   24.2180   26.4910 O.3   999  PLP999     -0.2151
@<TRIPOS>BOND
     1    11    10    1
     2    10     8    1
     3     7     6    1
     4     8     6   ar
     5     8     9   ar
     6     6     4   ar
     7     9     1   ar
     8     4     5    1
     9     4     2   ar
    10     1     2   ar
    11     2     3    1
