@<TRIPOS>MOLECULE
2ske_IMP_A_1.pdb
 23 25 0 0 0
SMALL
GASTEIGER

@<TRIPOS>ATOM
      1  P         31.0260    2.1750   51.3300 P.3   930  IMP930      0.5327
      2  O1P       31.1750    1.9430   49.8830 O.2   930  IMP930     -0.2224
      3  O2P       30.5030    3.6030   51.5990 O.3   930  IMP930     -0.1145
      4  O3P       32.2920    1.8900   52.1070 O.3   930  IMP930     -0.1145
      5  O5'       29.8070    1.2720   51.8460 O.3   930  IMP930     -0.2675
      6  C5'       29.0370    0.4680   50.8090 C.3   930  IMP930      0.1860
      7  C4'       27.7750   -0.3520   51.4790 C.3   930  IMP930      0.1823
      8  O4'       28.4660   -1.6340   51.5790 O.3   930  IMP930     -0.3135
      9  C3'       27.4790   -0.1290   52.9750 C.3   930  IMP930      0.2184
     10  O3'       26.3920    0.7930   53.1020 O.3   930  IMP930     -0.2174
     11  C2'       27.0830   -1.6060   53.4590 C.3   930  IMP930      0.2570
     12  O2'       25.8630   -2.2350   52.9850 O.3   930  IMP930     -0.2130
     13  C1'       28.1220   -2.4270   52.7670 C.3   930  IMP930      0.3186
     14  N9        29.3710   -2.5990   53.6280 N.pl3 930  IMP930     -0.1435
     15  C8        30.4760   -1.8460   53.5810 C.3   930  IMP930      0.3382
     16  N7        31.4100   -2.3010   54.5490 N.2   930  IMP930     -0.2054
     17  C5        30.7580   -3.4180   55.1340 C.2   930  IMP930      0.2446
     18  C6        31.3450   -4.2660   56.1810 C.1   930  IMP930      0.1792
     19  O6        32.4170   -4.1940   56.7460 O.2   930  IMP930     -0.2203
     20  N1        30.4170   -5.2730   56.4860 N.2   930  IMP930     -0.1458
     21  C2        29.1430   -5.3890   55.8810 C.3   930  IMP930      0.4017
     22  N3        28.6970   -4.5950   54.9600 N.2   930  IMP930     -0.0334
     23  C4        29.5380   -3.6240   54.6080 C.2   930  IMP930      0.3528
@<TRIPOS>BOND
     1     2     1    2
     2     6     7    1
     3     6     5    1
     4     1     3    1
     5     1     5    1
     6     1     4    1
     7     7     8    1
     8     7     9    1
     9     8    13    1
    10    13    11    1
    11    13    14    1
    12     9    10    1
    13     9    11    1
    14    12    11    1
    15    15    14    1
    16    15    16    1
    17    14    23    1
    18    16    17    2
    19    23    22    2
    20    23    17    1
    21    22    21    1
    22    17    18    1
    23    21    20    1
    24    18    20    2
    25    18    19    2
