@<TRIPOS>MOLECULE
2ske_GLC_A_1.pdb
 12 12 0 0 0
SMALL
GASTEIGER

@<TRIPOS>ATOM
      1  C1        33.5390   22.8050   27.9080 C.3   998  GLC998      0.3024
      2  C2        33.7850   23.0740   26.3670 C.3   998  GLC998      0.2434
      3  C3        32.6320   22.4280   25.5150 C.3   998  GLC998      0.2199
      4  C4        32.4280   20.9320   25.8770 C.3   998  GLC998      0.2144
      5  C5        32.2550   20.7720   27.4550 C.3   998  GLC998      0.1836
      6  C6        32.1810   19.3340   27.8530 C.3   998  GLC998      0.2142
      7  O1        32.4390   23.5660   28.4500 O.3   998  GLC998     -0.1869
      8  O2        33.8510   24.4510   26.1090 O.3   998  GLC998     -0.2148
      9  O3        32.8960   22.5270   24.1380 O.3   998  GLC998     -0.2174
     10  O4        31.3010   20.4020   25.2080 O.3   998  GLC998     -0.2176
     11  O5        33.3920   21.3720   28.1540 O.3   998  GLC998     -0.3236
     12  O6        33.2910   18.6290   27.3120 O.3   998  GLC998     -0.2176
@<TRIPOS>BOND
     1     9     3    1
     2    10     4    1
     3     3     4    1
     4     3     2    1
     5     4     5    1
     6     8     2    1
     7     2     1    1
     8    12     6    1
     9     5     6    1
    10     5    11    1
    11     1    11    1
    12     1     7    1
