@<TRIPOS>MOLECULE
2sli_SKD_A_1.pdb
 20 21 0 0 0
SMALL
GASTEIGER

@<TRIPOS>ATOM
      1  C1         1.7680    7.4270   36.0920 C.2   760  SKD760      0.4152
      2  C2         3.0530    7.2230   36.9060 C.3   760  SKD760      0.2863
      3  C3         4.2560    6.8830   36.0050 C.3   760  SKD760      0.1028
      4  C4         5.5340    7.4440   36.6730 C.3   760  SKD760      0.1797
      5  C5         5.4650    7.2660   38.2090 C.3   760  SKD760      0.1553
      6  C6         4.1370    7.8770   38.7600 C.3   760  SKD760      0.1701
      7  C7         3.3370    6.6370   39.1520 C.3   760  SKD760      0.1798
      8  C8         2.1760    6.9530   40.1070 C.3   760  SKD760      0.2142
      9  C9         2.6820    7.4980   41.4450 C.3   760  SKD760      0.2174
     10  C10        7.1680    7.2720   39.9300 C.2   760  SKD760      0.2420
     11  C11        8.4120    7.9110   40.5140 C.3   760  SKD760      0.0964
     12  N5         6.6420    7.8350   38.8460 N.am  760  SKD760     -0.2020
     13  O1A        1.6940    6.9370   34.9390 O.co2 760  SKD760     -0.2402
     14  O1B        0.8070    8.0350   36.6120 O.co2 760  SKD760     -0.2402
     15  O4         6.7030    6.8060   36.1580 O.3   760  SKD760     -0.2210
     16  O6         3.3970    8.3890   37.6460 O.3   760  SKD760     -0.3240
     17  O7         2.8080    6.1840   37.8820 O.3   760  SKD760     -0.3232
     18  O8         1.3030    7.9020   39.5080 O.3   760  SKD760     -0.2176
     19  O9         3.0490    8.8610   41.2910 O.3   760  SKD760     -0.2175
     20  O10        6.6610    6.3010   40.4940 O.2   760  SKD760     -0.2733
@<TRIPOS>BOND
     1    13     1   ar
     2     3     4    1
     3     3     2    1
     4     1    14   ar
     5     1     2    1
     6    15     4    1
     7     4     5    1
     8     2    16    1
     9     2    17    1
    10    16     6    1
    11    17     7    1
    12     5     6    1
    13     5    12    1
    14     6     7    1
    15    12    10   am
    16     7     8    1
    17    18     8    1
    18    10    20    2
    19    10    11    1
    20     8     9    1
    21    19     9    1
