@<TRIPOS>MOLECULE
2snm_THP_A_1.pdb
 25 26 0 0 0
SMALL
GASTEIGER

@<TRIPOS>ATOM
      1  P2         6.0610   13.6510   20.3610 P.3   151  THP151      0.5327
      2  O4P        6.2640   12.1490   20.8280 O.3   151  THP151     -0.1145
      3  O5P        5.0990   13.6230   19.2250 O.2   151  THP151     -0.2224
      4  O6P        7.3370   14.3410   20.0830 O.3   151  THP151     -0.1145
      5  P1         4.7640   11.4400   26.0090 P.3   151  THP151      0.5326
      6  O1P        4.8530   10.9670   27.3990 O.3   151  THP151     -0.1145
      7  O2P        6.0190   11.3810   25.2190 O.3   151  THP151     -0.1145
      8  O3P        3.6600   10.6770   25.1410 O.2   151  THP151     -0.2224
      9  O5'        5.4750   14.3220   21.6630 O.3   151  THP151     -0.2675
     10  C5'        4.3220   13.8040   22.3530 C.3   151  THP151      0.1857
     11  C4'        4.6940   13.8350   23.8160 C.3   151  THP151      0.1748
     12  O4'        5.0280   15.1550   24.1830 O.3   151  THP151     -0.3340
     13  C3'        3.5880   13.4400   24.7850 C.3   151  THP151      0.1600
     14  O3'        4.2470   12.9630   25.9920 O.3   151  THP151     -0.2700
     15  C2'        2.8320   14.7760   24.9400 C.3   151  THP151      0.0847
     16  C1'        4.0460   15.6920   25.0430 C.3   151  THP151      0.2089
     17  N1         3.7800   17.0850   24.5930 N.am  151  THP151     -0.1794
     18  C2         3.3570   17.9160   25.5950 C.1   151  THP151      0.2844
     19  O2         3.5420   17.5740   26.7480 O.2   151  THP151     -0.1918
     20  N3         2.7570   19.0860   25.2510 N.2   151  THP151     -0.2455
     21  C4         2.5790   19.4190   23.9470 C.1   151  THP151      0.2134
     22  O4         2.0380   20.4840   23.7280 O.2   151  THP151     -0.2088
     23  C5         3.0180   18.5900   22.9190 C.2   151  THP151      0.0891
     24  C5M        2.8400   19.0580   21.5060 C.3   151  THP151      0.0462
     25  C6         3.6250   17.3810   23.2700 C.2   151  THP151      0.0877
@<TRIPOS>BOND
     1     3     1    2
     2     4     1    1
     3     1     2    1
     4     1     9    1
     5    24    23    1
     6     9    10    1
     7    10    11    1
     8    23    25    2
     9    23    21    1
    10    25    17    1
    11    22    21    2
    12    11    12    1
    13    11    13    1
    14    21    20    2
    15    12    16    1
    16    17    16    1
    17    17    18   am
    18    13    15    1
    19    13    14    1
    20    15    16    1
    21     8     5    2
    22     7     5    1
    23    20    18    2
    24    18    19    2
    25    14     5    1
    26     5     6    1
