@<TRIPOS>MOLECULE
2sns_THP_A_1.pdb
 25 26 0 0 0
SMALL
GASTEIGER

@<TRIPOS>ATOM
      1  P2         6.2100   13.9900   20.6400 P.3   151  THP151      0.5327
      2  O4P        7.6600   14.4900   20.3700 O.3   151  THP151     -0.1145
      3  O5P        6.3200   12.5000   21.1400 O.3   151  THP151     -0.1145
      4  O6P        5.1100   14.2900   19.2900 O.2   151  THP151     -0.2224
      5  P1         4.8200   11.5000   26.0100 P.3   151  THP151      0.5326
      6  O1P        5.4600   10.6400   27.3100 O.3   151  THP151     -0.1145
      7  O2P        6.0400   11.3000   24.9000 O.2   151  THP151     -0.2224
      8  O3P        3.7100   10.6000   25.3600 O.3   151  THP151     -0.1145
      9  O5'        5.5400   14.8500   22.2100 O.3   151  THP151     -0.2675
     10  C5'        4.5800   14.1100   22.9000 C.3   151  THP151      0.1857
     11  C4'        5.0500   14.2400   24.3700 C.3   151  THP151      0.1748
     12  O4'        5.2500   15.7400   24.7100 O.3   151  THP151     -0.3340
     13  C3'        3.9600   13.7900   25.2800 C.3   151  THP151      0.1600
     14  O3'        4.4900   12.9400   26.2900 O.3   151  THP151     -0.2700
     15  C2'        3.2700   15.1300   25.9000 C.3   151  THP151      0.0847
     16  C1'        4.4400   16.1800   25.6200 C.3   151  THP151      0.2089
     17  N1         3.7400   17.4900   25.1500 N.am  151  THP151     -0.1794
     18  C2         3.0800   18.4300   25.9800 C.1   151  THP151      0.2844
     19  O2         3.1000   18.2500   27.2800 O.2   151  THP151     -0.1918
     20  N3         2.4100   19.5400   25.6800 N.2   151  THP151     -0.2455
     21  C4         2.4600   19.7100   24.0900 C.1   151  THP151      0.2134
     22  O4         1.7700   20.8200   23.6100 O.2   151  THP151     -0.2088
     23  C5         3.0000   18.7700   23.1800 C.2   151  THP151      0.0891
     24  C5M        2.9700   19.0500   21.7900 C.3   151  THP151      0.0462
     25  C6         3.7100   17.6800   23.6700 C.2   151  THP151      0.0877
@<TRIPOS>BOND
     1     4     1    2
     2     2     1    1
     3     1     3    1
     4     1     9    1
     5    24    23    1
     6     9    10    1
     7    10    11    1
     8    23    25    2
     9    23    21    1
    10    22    21    2
    11    25    17    1
    12    21    20    2
    13    11    12    1
    14    11    13    1
    15    12    16    1
    16     7     5    2
    17    17    16    1
    18    17    18   am
    19    13    15    1
    20    13    14    1
    21     8     5    1
    22    16    15    1
    23    20    18    2
    24    18    19    2
    25     5    14    1
    26     5     6    1
