@<TRIPOS>MOLECULE
2spl_HEM_A_1.pdb
 43 50 0 0 0
SMALL
GASTEIGER

@<TRIPOS>ATOM
      1 FE         34.9740    4.2500   10.2780 Fe    154  HEM154      0.0000
      2  CHA       37.6410    2.5090   11.4330 C.2   154  HEM154      0.0000
      3  CHB       36.8950    5.3460    7.6550 C.2   154  HEM154      0.0000
      4  CHC       32.3150    6.1360    9.0230 C.2   154  HEM154      0.0000
      5  CHD       33.0740    3.1550   12.8190 C.2   154  HEM154      0.0000
      6  NA        36.8510    4.0520    9.7030 N.ar  154  HEM154      0.0000
      7  C1A       37.8580    3.3080   10.2350 C.ar  154  HEM154      0.0000
      8  C2A       39.1590    3.3050    9.5420 C.ar  154  HEM154      0.0000
      9  C3A       38.8600    4.1260    8.4160 C.ar  154  HEM154      0.0000
     10  C4A       37.4680    4.5610    8.5710 C.ar  154  HEM154      0.0000
     11  CMA       39.7720    4.5670    7.2590 C.3   154  HEM154      0.0000
     12  CAA       40.5400    2.4410    9.8190 C.3   154  HEM154      0.0000
     13  CBA       40.6000    1.1360    9.0190 C.3   154  HEM154      0.0000
     14  CGA       39.2840    0.3250    9.0480 C.2   154  HEM154      0.0000
     15  O1A       38.8900   -0.2090   10.1100 O.co2 154  HEM154      0.0000
     16  O2A       38.6470    0.2240    8.0000 O.co2 154  HEM154      0.0000
     17  NB        34.6700    5.5390    8.6210 N.2   154  HEM154      0.0000
     18  C1B       35.5630    5.8330    7.6510 C.2   154  HEM154      0.0000
     19  C2B       35.0150    6.7540    6.6080 C.2   154  HEM154      0.0000
     20  C3B       33.7600    6.9460    7.1280 C.2   154  HEM154      0.0000
     21  C4B       33.5240    6.1170    8.2790 C.2   154  HEM154      0.0000
     22  CMB       35.7040    7.3920    5.2720 C.3   154  HEM154      0.0000
     23  CAB       32.8240    7.8980    6.5850 C.3   154  HEM154      0.0000
     24  CBB       33.3170    9.2120    6.1520 C.3   154  HEM154      0.0000
     25  NC        33.1810    4.5450   10.7660 N.ar  154  HEM154      0.0000
     26  C1C       32.2270    5.4300   10.2650 C.ar  154  HEM154      0.0000
     27  C2C       31.0490    5.4890   11.1090 C.ar  154  HEM154      0.0000
     28  C3C       31.2320    4.6310   12.1850 C.ar  154  HEM154      0.0000
     29  C4C       32.5500    4.0230   11.8920 C.ar  154  HEM154      0.0000
     30  CMC       29.9860    6.5780   10.9440 C.3   154  HEM154      0.0000
     31  CAC       30.5360    4.4380   13.4640 C.3   154  HEM154      0.0000
     32  CBC       29.2980    5.1100   13.8050 C.3   154  HEM154      0.0000
     33  ND        35.3000    3.1310   11.7580 N.2   154  HEM154      0.0000
     34  C1D       34.4210    2.8090   12.7760 C.2   154  HEM154      0.0000
     35  C2D       34.9480    1.8700   13.7390 C.2   154  HEM154      0.0000
     36  C3D       36.2760    1.6990   13.3870 C.2   154  HEM154      0.0000
     37  C4D       36.4200    2.4930   12.1170 C.2   154  HEM154      0.0000
     38  CMD       34.1850    1.1760   14.9950 C.3   154  HEM154      0.0000
     39  CAD       37.5050    1.0710   14.1910 C.3   154  HEM154      0.0000
     40  CBD       38.1710    2.2110   14.9840 C.3   154  HEM154      0.0000
     41  CGD       39.3620    1.8800   15.8960 C.2   154  HEM154      0.0000
     42  O1D       39.1210    1.3340   16.9660 O.co2 154  HEM154      0.0000
     43  O2D       40.4910    1.8160   15.4090 O.co2 154  HEM154      0.0000
@<TRIPOS>BOND
     1    22    19    1
     2    24    23    1
     3    23    20    1
     4    19    20    2
     5    19    18    1
     6    20    21    1
     7    11     9    1
     8    18     3    1
     9    18    17    2
    10     3    10    2
    11    16    14   ar
    12    21    17    1
    13    21     4    2
    14     9    10   ar
    15     9     8   ar
    16    10     6   ar
    17    17     1    1
    18    13    14    1
    19    13    12    1
    20     4    26    1
    21    14    15   ar
    22     8    12    1
    23     8     7   ar
    24     6     7   ar
    25     6     1    1
    26     7     2    2
    27    26    25   ar
    28    26    27   ar
    29     1    25    1
    30     1    33    1
    31    25    29   ar
    32    30    27    1
    33    27    28   ar
    34     2    37    1
    35    33    37    2
    36    33    34    1
    37    29    28   ar
    38    29     5    1
    39    37    36    1
    40    28    31    1
    41    34     5    2
    42    34    35    1
    43    36    35    2
    44    36    39    1
    45    31    32    1
    46    35    38    1
    47    39    40    1
    48    40    41    1
    49    43    41   ar
    50    41    42   ar
