@<TRIPOS>MOLECULE
2spm_HEM_A_1.pdb
 43 50 0 0 0
SMALL
GASTEIGER

@<TRIPOS>ATOM
      1 FE         35.1710    4.1310   10.2200 Fe    154  HEM154      0.0000
      2  CHA       37.8570    2.2430   11.3990 C.2   154  HEM154      0.0000
      3  CHB       37.0960    5.3000    7.6790 C.2   154  HEM154      0.0000
      4  CHC       32.7000    6.1840    9.3120 C.2   154  HEM154      0.0000
      5  CHD       33.2520    3.0960   12.9580 C.2   154  HEM154      0.0000
      6  NA        37.0410    3.9250    9.7020 N.ar  154  HEM154      0.0000
      7  C1A       38.0080    3.0570   10.2790 C.ar  154  HEM154      0.0000
      8  C2A       39.2660    3.1040    9.5000 C.ar  154  HEM154      0.0000
      9  C3A       39.0660    3.9410    8.4770 C.ar  154  HEM154      0.0000
     10  C4A       37.7160    4.4620    8.5870 C.ar  154  HEM154      0.0000
     11  CMA       40.0280    4.2810    7.3030 C.3   154  HEM154      0.0000
     12  CAA       40.5200    2.2270    9.7790 C.3   154  HEM154      0.0000
     13  CBA       40.5430    0.9710    8.8570 C.3   154  HEM154      0.0000
     14  CGA       39.3120    0.1180    8.8570 C.2   154  HEM154      0.0000
     15  O1A       38.9560   -0.4980    9.9130 O.co2 154  HEM154      0.0000
     16  O2A       38.5730    0.1030    7.8070 O.co2 154  HEM154      0.0000
     17  NB        34.9070    5.4730    8.7470 N.2   154  HEM154      0.0000
     18  C1B       35.8690    5.8290    7.8020 C.2   154  HEM154      0.0000
     19  C2B       35.2580    6.7920    6.8670 C.2   154  HEM154      0.0000
     20  C3B       34.0040    7.0060    7.2980 C.2   154  HEM154      0.0000
     21  C4B       33.8120    6.2470    8.5000 C.2   154  HEM154      0.0000
     22  CMB       35.9280    7.3220    5.5550 C.3   154  HEM154      0.0000
     23  CAB       32.9000    7.9220    6.7020 C.2   154  HEM154      0.0000
     24  CBB       33.1420    9.1140    6.1650 C.2   154  HEM154      0.0000
     25  NC        33.3200    4.4940   10.9630 N.ar  154  HEM154      0.0000
     26  C1C       32.4440    5.4580   10.4770 C.ar  154  HEM154      0.0000
     27  C2C       31.2910    5.5920   11.3300 C.ar  154  HEM154      0.0000
     28  C3C       31.4590    4.7470   12.3670 C.ar  154  HEM154      0.0000
     29  C4C       32.7270    4.0680   12.1230 C.ar  154  HEM154      0.0000
     30  CMC       30.0960    6.5710   11.1190 C.3   154  HEM154      0.0000
     31  CAC       30.6750    4.4470   13.6460 C.2   154  HEM154      0.0000
     32  CBC       29.5720    5.2210   13.9310 C.2   154  HEM154      0.0000
     33  ND        35.4680    2.8590   11.7930 N.2   154  HEM154      0.0000
     34  C1D       34.5920    2.7010   12.8300 C.2   154  HEM154      0.0000
     35  C2D       35.2170    1.7610   13.7840 C.2   154  HEM154      0.0000
     36  C3D       36.4530    1.5480   13.3670 C.2   154  HEM154      0.0000
     37  C4D       36.6620    2.2750   12.1330 C.2   154  HEM154      0.0000
     38  CMD       34.4510    1.1930   15.0180 C.3   154  HEM154      0.0000
     39  CAD       37.5420    0.7500   14.1510 C.3   154  HEM154      0.0000
     40  CBD       38.0990    1.7610   15.2880 C.3   154  HEM154      0.0000
     41  CGD       39.2300    1.0820   16.1000 C.2   154  HEM154      0.0000
     42  O1D       38.8150    0.2840   17.0320 O.co2 154  HEM154      0.0000
     43  O2D       40.3700    1.1930   15.6920 O.co2 154  HEM154      0.0000
@<TRIPOS>BOND
     1    22    19    1
     2    24    23    2
     3    23    20    1
     4    19    20    2
     5    19    18    1
     6    20    21    1
     7    11     9    1
     8     3    18    1
     9     3    10    2
    10    18    17    2
    11    16    14   ar
    12     9    10   ar
    13     9     8   ar
    14    21    17    1
    15    21     4    2
    16    10     6   ar
    17    17     1    1
    18    13    14    1
    19    13    12    1
    20    14    15   ar
    21     4    26    1
    22     8    12    1
    23     8     7   ar
    24     6     1    1
    25     6     7   ar
    26     1    25    1
    27     1    33    1
    28     7     2    2
    29    26    25   ar
    30    26    27   ar
    31    25    29   ar
    32    30    27    1
    33    27    28   ar
    34     2    37    1
    35    33    37    2
    36    33    34    1
    37    29    28   ar
    38    29     5    1
    39    37    36    1
    40    28    31    1
    41    34     5    2
    42    34    35    1
    43    36    35    2
    44    36    39    1
    45    31    32    2
    46    35    38    1
    47    39    40    1
    48    40    41    1
    49    43    41   ar
    50    41    42   ar
