@<TRIPOS>MOLECULE
2spn_HEM_A_1.pdb
 43 50 0 0 0
SMALL
GASTEIGER

@<TRIPOS>ATOM
      1 FE         35.1070    4.2570   10.3120 Fe    154  HEM154      0.0000
      2  CHA       37.7290    2.3380   11.4220 C.2   154  HEM154      0.0000
      3  CHB       37.0270    5.3550    7.6830 C.2   154  HEM154      0.0000
      4  CHC       32.5540    6.2000    9.2610 C.2   154  HEM154      0.0000
      5  CHD       33.1510    3.1590   12.9670 C.2   154  HEM154      0.0000
      6  NA        37.0770    3.9100    9.6240 N.ar  154  HEM154      0.0000
      7  C1A       37.9160    3.1200   10.2520 C.ar  154  HEM154      0.0000
      8  C2A       39.1980    3.1590    9.5180 C.ar  154  HEM154      0.0000
      9  C3A       38.9930    3.9570    8.4450 C.ar  154  HEM154      0.0000
     10  C4A       37.5930    4.4700    8.5500 C.ar  154  HEM154      0.0000
     11  CMA       40.0050    4.2410    7.3210 C.3   154  HEM154      0.0000
     12  CAA       40.4060    2.2510    9.8210 C.3   154  HEM154      0.0000
     13  CBA       40.5290    1.0270    8.8710 C.3   154  HEM154      0.0000
     14  CGA       39.2800    0.1900    8.8940 C.2   154  HEM154      0.0000
     15  O1A       39.0060   -0.4900    9.9310 O.co2 154  HEM154      0.0000
     16  O2A       38.5230    0.1740    7.8940 O.co2 154  HEM154      0.0000
     17  NB        34.8380    5.5290    8.7380 N.2   154  HEM154      0.0000
     18  C1B       35.7500    5.8290    7.7890 C.2   154  HEM154      0.0000
     19  C2B       35.1530    6.7850    6.8250 C.2   154  HEM154      0.0000
     20  C3B       33.9220    7.0370    7.2930 C.2   154  HEM154      0.0000
     21  C4B       33.7120    6.1840    8.4950 C.2   154  HEM154      0.0000
     22  CMB       35.8510    7.2820    5.5180 C.3   154  HEM154      0.0000
     23  CAB       32.8000    7.8900    6.6740 C.2   154  HEM154      0.0000
     24  CBB       33.0920    9.1860    6.4080 C.2   154  HEM154      0.0000
     25  NC        33.1510    4.6130   11.0230 N.ar  154  HEM154      0.0000
     26  C1C       32.3300    5.4660   10.4120 C.ar  154  HEM154      0.0000
     27  C2C       31.1490    5.6470   11.2980 C.ar  154  HEM154      0.0000
     28  C3C       31.3140    4.7940   12.3210 C.ar  154  HEM154      0.0000
     29  C4C       32.6270    4.1150   12.1420 C.ar  154  HEM154      0.0000
     30  CMC       29.9640    6.5790   10.9900 C.3   154  HEM154      0.0000
     31  CAC       30.4880    4.4700   13.5680 C.2   154  HEM154      0.0000
     32  CBC       29.4210    5.2600   13.8710 C.2   154  HEM154      0.0000
     33  ND        35.3990    2.9620   11.8480 N.2   154  HEM154      0.0000
     34  C1D       34.4780    2.7250   12.8390 C.2   154  HEM154      0.0000
     35  C2D       35.1030    1.8010   13.7890 C.2   154  HEM154      0.0000
     36  C3D       36.3610    1.6110   13.3940 C.2   154  HEM154      0.0000
     37  C4D       36.5670    2.3770   12.1560 C.2   154  HEM154      0.0000
     38  CMD       34.3690    1.2400   15.0410 C.3   154  HEM154      0.0000
     39  CAD       37.5110    0.8690   14.1100 C.3   154  HEM154      0.0000
     40  CBD       38.2040    1.9110   15.0820 C.3   154  HEM154      0.0000
     41  CGD       39.2070    1.2160   15.9860 C.2   154  HEM154      0.0000
     42  O1D       38.8330    0.5050   16.9400 O.co2 154  HEM154      0.0000
     43  O2D       40.3920    1.2640   15.6280 O.co2 154  HEM154      0.0000
@<TRIPOS>BOND
     1    22    19    1
     2    24    23    2
     3    23    20    1
     4    19    20    2
     5    19    18    1
     6    20    21    1
     7    11     9    1
     8     3    18    1
     9     3    10    2
    10    18    17    2
    11    16    14   ar
    12     9    10   ar
    13     9     8   ar
    14    21    17    1
    15    21     4    2
    16    10     6   ar
    17    17     1    1
    18    13    14    1
    19    13    12    1
    20    14    15   ar
    21     4    26    1
    22     8    12    1
    23     8     7   ar
    24     6     7   ar
    25     6     1    1
    26     7     2    2
    27     1    25    1
    28     1    33    1
    29    26    25   ar
    30    26    27   ar
    31    30    27    1
    32    25    29   ar
    33    27    28   ar
    34     2    37    1
    35    33    37    2
    36    33    34    1
    37    29    28   ar
    38    29     5    1
    39    37    36    1
    40    28    31    1
    41    34     5    2
    42    34    35    1
    43    36    35    2
    44    36    39    1
    45    31    32    2
    46    35    38    1
    47    39    40    1
    48    40    41    1
    49    43    41   ar
    50    41    42   ar
