@<TRIPOS>MOLECULE
2spo_HEM_A_1.pdb
 43 50 0 0 0
SMALL
GASTEIGER

@<TRIPOS>ATOM
      1 FE         35.1120    4.1730   10.3530 Fe    154  HEM154      0.0000
      2  CHA       37.7380    2.2450   11.4680 C.2   154  HEM154      0.0000
      3  CHB       37.0400    5.3480    7.7970 C.2   154  HEM154      0.0000
      4  CHC       32.5730    6.1620    9.2470 C.2   154  HEM154      0.0000
      5  CHD       33.2190    3.2050   12.9820 C.2   154  HEM154      0.0000
      6  NA        36.9860    3.8960    9.8180 N.ar  154  HEM154      0.0000
      7  C1A       37.9660    3.0400   10.3350 C.ar  154  HEM154      0.0000
      8  C2A       39.2380    3.1310    9.5660 C.ar  154  HEM154      0.0000
      9  C3A       39.0340    3.9750    8.4950 C.ar  154  HEM154      0.0000
     10  C4A       37.6220    4.4310    8.6660 C.ar  154  HEM154      0.0000
     11  CMA       39.9030    4.3400    7.3290 C.3   154  HEM154      0.0000
     12  CAA       40.4510    2.2010    9.8390 C.3   154  HEM154      0.0000
     13  CBA       40.4760    1.0080    8.8820 C.3   154  HEM154      0.0000
     14  CGA       39.2160    0.1370    8.9260 C.2   154  HEM154      0.0000
     15  O1A       38.8980   -0.4460    9.9660 O.co2 154  HEM154      0.0000
     16  O2A       38.4880    0.1310    7.9370 O.co2 154  HEM154      0.0000
     17  NB        34.8280    5.4760    8.8290 N.2   154  HEM154      0.0000
     18  C1B       35.7150    5.8110    7.8770 C.2   154  HEM154      0.0000
     19  C2B       35.1900    6.7890    6.8860 C.2   154  HEM154      0.0000
     20  C3B       33.9110    7.0230    7.3160 C.2   154  HEM154      0.0000
     21  C4B       33.7480    6.1670    8.5030 C.2   154  HEM154      0.0000
     22  CMB       35.9160    7.3300    5.5900 C.3   154  HEM154      0.0000
     23  CAB       32.8870    7.8620    6.6720 C.3   154  HEM154      0.0000
     24  CBB       33.1750    9.2100    6.2440 C.3   154  HEM154      0.0000
     25  NC        33.2320    4.4790   10.9140 N.ar  154  HEM154      0.0000
     26  C1C       32.3590    5.3890   10.4200 C.ar  154  HEM154      0.0000
     27  C2C       31.1760    5.5220   11.2630 C.ar  154  HEM154      0.0000
     28  C3C       31.3280    4.7000   12.3590 C.ar  154  HEM154      0.0000
     29  C4C       32.6320    4.0670   12.1150 C.ar  154  HEM154      0.0000
     30  CMC       29.9720    6.4280   10.9100 C.3   154  HEM154      0.0000
     31  CAC       30.5400    4.4870   13.5150 C.3   154  HEM154      0.0000
     32  CBC       29.3210    5.2060   13.8250 C.3   154  HEM154      0.0000
     33  ND        35.4370    2.9720   11.8350 N.2   154  HEM154      0.0000
     34  C1D       34.5180    2.6830   12.8730 C.2   154  HEM154      0.0000
     35  C2D       35.0990    1.7570   13.9040 C.2   154  HEM154      0.0000
     36  C3D       36.3780    1.5810   13.4880 C.2   154  HEM154      0.0000
     37  C4D       36.5760    2.2800   12.2030 C.2   154  HEM154      0.0000
     38  CMD       34.3730    1.1400   15.1190 C.3   154  HEM154      0.0000
     39  CAD       37.4720    0.8610   14.2190 C.3   154  HEM154      0.0000
     40  CBD       38.0210    1.8850   15.2200 C.3   154  HEM154      0.0000
     41  CGD       39.1610    1.3460   16.0910 C.2   154  HEM154      0.0000
     42  O1D       38.9080    0.4960   16.9470 O.co2 154  HEM154      0.0000
     43  O2D       40.3040    1.4890   15.6930 O.co2 154  HEM154      0.0000
@<TRIPOS>BOND
     1    22    19    1
     2    24    23    1
     3    23    20    1
     4    19    20    2
     5    19    18    1
     6    20    21    1
     7    11     9    1
     8     3    18    1
     9     3    10    2
    10    18    17    2
    11    16    14   ar
    12     9    10   ar
    13     9     8   ar
    14    21    17    1
    15    21     4    2
    16    10     6   ar
    17    17     1    1
    18    13    14    1
    19    13    12    1
    20    14    15   ar
    21     4    26    1
    22     8    12    1
    23     8     7   ar
    24     6     7   ar
    25     6     1    1
    26     7     2    2
    27     1    25    1
    28     1    33    1
    29    26    25   ar
    30    26    27   ar
    31    30    27    1
    32    25    29   ar
    33    27    28   ar
    34     2    37    1
    35    33    37    2
    36    33    34    1
    37    29    28   ar
    38    29     5    1
    39    37    36    1
    40    28    31    1
    41    34     5    2
    42    34    35    1
    43    36    35    2
    44    36    39    1
    45    31    32    1
    46    35    38    1
    47    39    40    1
    48    40    41    1
    49    43    41   ar
    50    41    42   ar
