@<TRIPOS>MOLECULE
2sqc_C8E_A_1.pdb
 21 20 0 0 0
SMALL
GASTEIGER

@<TRIPOS>ATOM
      1  C1        38.3420   45.6780   42.4560 C.3   632  C8E632      0.0000
      2  C2        38.1520   45.6490   43.9220 C.3   632  C8E632      0.0000
      3  C3        38.7880   46.8180   44.5260 C.3   632  C8E632      0.0000
      4  C4        37.7430   47.8180   44.5640 C.3   632  C8E632      0.0000
      5  C5        38.3120   49.1070   44.1050 C.3   632  C8E632      0.0001
      6  C6        37.4750   49.5180   42.9900 C.3   632  C8E632      0.0026
      7  C7        37.3960   50.9390   43.2250 C.3   632  C8E632      0.0321
      8  C8        36.1760   51.5260   42.5790 C.3   632  C8E632      0.1423
      9  O9        35.7080   52.7100   43.2910 O.3   632  C8E632     -0.3511
     10  C10       34.9150   52.3870   44.4360 C.3   632  C8E632      0.1741
     11  C11       35.2330   53.1490   45.6850 C.3   632  C8E632      0.1742
     12  O12       35.6520   54.5240   45.5190 O.3   632  C8E632     -0.3484
     13  C13       34.5870   55.5430   45.4350 C.3   632  C8E632      0.1742
     14  C14       34.7150   56.5640   44.2680 C.3   632  C8E632      0.1743
     15  O15       33.8160   57.4130   43.5110 O.3   632  C8E632     -0.3471
     16  C16       33.2150   58.5000   44.1960 C.3   632  C8E632      0.1894
     17  C17       32.8480   58.6000   45.6550 C.3   632  C8E632      0.2376
     18  O18       31.5190   58.9630   46.1220 O.2   632  C8E632     -0.4665
     19  C19       30.6880   57.7840   46.3110 C.2   632  C8E632      0.2179
     20  C20       29.2490   57.5990   45.7340 C.2   632  C8E632      0.2741
     21  O21       28.7330   58.4670   44.6920 O.2   632  C8E632     -0.2796
@<TRIPOS>BOND
     1     1     2    1
     2     8     7    1
     3     8     9    1
     4     6     7    1
     5     6     5    1
     6     9    10    1
     7    15    16    1
     8    15    14    1
     9     2     3    1
    10     5     4    1
    11    16    17    1
    12    14    13    1
    13    10    11    1
    14     3     4    1
    15    21    20    1
    16    13    12    1
    17    12    11    1
    18    17    18    1
    19    20    19    2
    20    18    19    1
