@<TRIPOS>MOLECULE
2src_ANP_A_1.pdb
 31 33 0 0 0
SMALL
GASTEIGER

@<TRIPOS>ATOM
      1  PG        10.8530   19.1150   59.7040 P.3     1  ANP1        0.4884
      2  O1G       10.0910   17.8950   59.2120 O.3     1  ANP1       -0.1240
      3  O2G       11.6050   19.8620   58.6260 O.2     1  ANP1       -0.2331
      4  O3G       10.0760   20.0170   60.6300 O.3     1  ANP1       -0.1240
      5  PB        13.4370   17.6900   60.3530 P.3     1  ANP1        0.4669
      6  O1B       13.0480   16.2480   60.5240 O.2     1  ANP1       -0.2351
      7  O2B       14.6220   18.0050   61.1540 O.3     1  ANP1       -0.1253
      8  N3B       12.0690   18.4630   60.7010 N.3     1  ANP1       -0.0163
      9  PA        14.4540   18.7530   57.5800 P.3     1  ANP1        0.2220
     10  O1A       13.6860   18.4690   56.3040 O.2     1  ANP1       -0.5170
     11  O2A       14.3740   20.1890   58.0450 O.3     1  ANP1       -0.4370
     12  O3A       13.9990   17.7460   58.7680 O.3     1  ANP1       -0.2360
     13  O5'       15.9740   18.2830   57.4370 O.3     1  ANP1       -0.3111
     14  C5'       16.6900   18.5590   58.6400 C.3     1  ANP1        0.1813
     15  C4'       18.0730   17.9160   58.5170 C.3     1  ANP1        0.1821
     16  O4'       18.8600   18.8550   57.8210 O.3     1  ANP1       -0.3135
     17  C3'       18.8570   17.8160   59.7720 C.3     1  ANP1        0.2184
     18  O3'       19.9430   16.9770   59.4480 O.3     1  ANP1       -0.2174
     19  C2'       19.4650   19.2230   59.9260 C.3     1  ANP1        0.2570
     20  O2'       20.7060   19.2850   60.5770 O.3     1  ANP1       -0.2130
     21  C1'       19.7320   19.7010   58.5530 C.3     1  ANP1        0.3186
     22  N9        19.6290   21.1900   58.3340 N.pl3   1  ANP1       -0.1439
     23  C8        18.4840   21.8850   58.1720 C.3     1  ANP1        0.3377
     24  N7        18.7290   23.1800   58.0010 N.2     1  ANP1       -0.2095
     25  C5        20.0600   23.3060   58.0520 C.2     1  ANP1        0.2526
     26  C6        20.8380   24.4980   57.9270 C.2     1  ANP1        0.4393
     27  N6        20.2040   25.6890   57.7210 N.pl3   1  ANP1        0.2180
     28  N1        22.2110   24.4110   58.0130 N.2     1  ANP1        0.0021
     29  C2        22.7240   23.1670   58.2240 C.3     1  ANP1        0.5254
     30  N3        21.9970   22.0420   58.3500 N.2     1  ANP1       -0.0055
     31  C4        20.6470   22.0660   58.2730 C.2     1  ANP1        0.3518
@<TRIPOS>BOND
     1    10     9    2
     2    13     9    1
     3    13    14    1
     4     9    11    1
     5     9    12    1
     6    27    26    1
     7    16    15    1
     8    16    21    1
     9    26    28    2
    10    26    25    1
    11    24    25    2
    12    24    23    1
    13    28    29    1
    14    25    31    1
    15    23    22    1
    16    29    30    1
    17    31    22    1
    18    31    30    2
    19    22    21    1
    20    15    14    1
    21    15    17    1
    22    21    19    1
    23     3     1    2
    24    12     5    1
    25     2     1    1
    26    18    17    1
    27     1     4    1
    28     1     8    1
    29    17    19    1
    30    19    20    1
    31     5     6    2
    32     5     8    1
    33     5     7    1
