@<TRIPOS>MOLECULE
2tcl_RO4_A_1.pdb
 28 27 0 0 0
SMALL
GASTEIGER

@<TRIPOS>ATOM
      1  O1        71.7160   11.2490   13.8250 O.2   175  RO4175     -0.5395
      2  O3        71.6630    9.4970    8.8670 O.2   175  RO4175     -0.2733
      3  O4        74.7520    7.2040    8.3970 O.2   175  RO4175     -0.2715
      4  O29       76.1320    5.0700    5.9410 O.2   175  RO4175     -0.2482
      5  O30       77.0480    7.1830    5.6880 O.3   175  RO4175     -0.4473
      6  O2        69.1980   10.7970   14.4290 O.3   175  RO4175     -0.4026
      7  N6        69.6110   10.7690   13.2220 N.am  175  RO4175     -0.2030
      8  N7        74.2630    8.0500    6.3570 N.am  175  RO4175     -0.1943
      9  N5        73.8050    9.5760    9.5780 N.am  175  RO4175     -0.1978
     10  C8        70.8990   10.9420   12.9560 C.2   175  RO4175      0.0873
     11  C11       72.4930    9.4990    9.7860 C.2   175  RO4175      0.2417
     12  C13       74.4430    8.1490    7.6730 C.2   175  RO4175      0.2617
     13  C28       75.9290    6.2820    5.7800 C.2   175  RO4175      0.3370
     14  C10       72.0420    9.4280   11.2530 C.3   175  RO4175      0.0845
     15  C12       74.3920    9.5510    8.2420 C.3   175  RO4175      0.1727
     16  C14       74.5100    6.8180    5.6080 C.3   175  RO4175      0.1935
     17  C16       71.4870    6.8980   11.9600 C.3   175  RO4175      0.0005
     18  C20       76.0790   11.5940    8.2410 C.3   175  RO4175      0.0022
     19  C9        71.3150   10.7700   11.5040 C.3   175  RO4175      0.0603
     20  C31       78.1890    7.1600    6.6180 C.3   175  RO4175      0.2086
     21  C15       71.0390    8.2840   11.4660 C.3   175  RO4175      0.0095
     22  C19       75.8230   10.0930    8.2640 C.3   175  RO4175      0.0311
     23  C32       78.7740    5.7830    6.9480 C.3   175  RO4175      0.0513
     24  C17       72.9360    6.8560   12.3610 C.3   175  RO4175      0.0000
     25  C18       71.2050    5.8590   10.9360 C.3   175  RO4175      0.0000
     26  C21       77.5880   11.8050    8.0920 C.3   175  RO4175      0.0001
     27  C22       75.3460   12.2400    7.0840 C.3   175  RO4175      0.0001
     28  C27       74.2250    7.0460    4.1290 C.3   175  RO4175      0.0355
@<TRIPOS>BOND
     1    28    16    1
     2    16    13    1
     3    16     8    1
     4     5    13    1
     5     5    20    1
     6    13     4    2
     7     8    12   am
     8    20    23    1
     9    27    18    1
    10    12    15    1
    11    12     3    2
    12    26    18    1
    13    18    22    1
    14    15    22    1
    15    15     9    1
    16     2    11    2
    17     9    11   am
    18    11    14    1
    19    25    17    1
    20    14    21    1
    21    14    19    1
    22    21    17    1
    23    19    10    1
    24    17    24    1
    25    10     7   am
    26    10     1    2
    27     7     6    1
