@<TRIPOS>MOLECULE
2tct_CTC_A_1.pdb
 33 36 0 0 0
SMALL
GASTEIGER

@<TRIPOS>ATOM
      1  C1        20.0240   34.6770   34.4440 C.2   222  CTC222      0.1913
      2  O1        19.4270   35.1540   33.4400 O.2   222  CTC222     -0.2928
      3  C2        19.4490   33.6450   35.2170 C.3   222  CTC222      0.1712
      4  C2'       18.2350   33.0190   34.8350 C.2   222  CTC222      0.2700
      5  O2'       17.7690   32.0500   35.4740 O.2   222  CTC222     -0.2711
      6  N2'       17.5240   33.4260   33.7350 N.am  222  CTC222     -0.0874
      7  C3        20.1860   33.2210   36.3280 C.3   222  CTC222      0.1823
      8  O3        19.9490   31.9800   36.9210 O.3   222  CTC222     -0.2207
      9  C4        21.2760   34.0960   36.9710 C.3   222  CTC222      0.0919
     10  N4        22.1990   33.2230   37.8670 N.3   222  CTC222     -0.2692
     11  C4'       23.1470   32.4270   36.9420 C.3   222  CTC222      0.0897
     12  C4D       23.0540   34.0390   38.8550 C.3   222  CTC222      0.0897
     13  C4A       21.8650   35.2600   36.1560 C.3   222  CTC222      0.0547
     14  C5        21.0780   36.4830   36.5180 C.3   222  CTC222      0.0077
     15  C5A       21.6710   37.6600   35.8020 C.3   222  CTC222      0.0420
     16  C6        21.0570   39.0050   36.1180 C.3   222  CTC222      0.1467
     17  O6        19.6520   38.8690   36.1040 O.3   222  CTC222     -0.2211
     18  C6'       21.6450   39.3070   37.5100 C.3   222  CTC222      0.0376
     19  C6A       21.4820   40.1530   35.1650 C.ar  222  CTC222      0.0215
     20  C7        21.1450   41.4940   35.4570 C.ar  222  CTC222      0.0562
     21 CL7        19.9640   41.9040   36.6890 Cl    222  CTC222     -0.0825
     22  C8        21.6940   42.5250   34.7460 C.ar  222  CTC222      0.0144
     23  C9        22.5630   42.2540   33.7100 C.ar  222  CTC222      0.0430
     24  C10       22.8370   40.9520   33.3300 C.ar  222  CTC222      0.1982
     25  O10       23.3720   40.7700   32.0440 O.3   222  CTC222     -0.2865
     26  C6B       22.2920   39.8620   34.0520 C.ar  222  CTC222      0.0728
     27  C11       22.3490   38.5290   33.5460 C.2   222  CTC222      0.1782
     28  O11       22.9140   38.2950   32.4420 O.2   222  CTC222     -0.2912
     29  C5B       21.9420   37.4400   34.3070 C.3   222  CTC222      0.0979
     30  C12       22.0970   36.1260   33.8530 C.3   222  CTC222      0.1937
     31  O12       22.5860   35.8350   32.5360 O.3   222  CTC222     -0.2196
     32  C4B       21.5370   34.9870   34.6480 C.3   222  CTC222      0.2070
     33  O4B       22.3260   33.8580   34.2930 O.3   222  CTC222     -0.2154
@<TRIPOS>BOND
     1    25    24    1
     2    28    27    2
     3    31    30    1
     4    24    23   ar
     5    24    26   ar
     6     2     1    2
     7    27    26    1
     8    27    29    1
     9    23    22   ar
    10     6     4   am
    11    30    29    1
    12    30    32    1
    13    26    19   ar
    14    33    32    1
    15    29    15    1
    16     1    32    1
    17     1     3    1
    18    32    13    1
    19    22    20   ar
    20     4     3    1
    21     4     5    2
    22    19    20   ar
    23    19    16    1
    24     3     7    1
    25    20    21    1
    26    15    16    1
    27    15    14    1
    28    17    16    1
    29    16    18    1
    30    13    14    1
    31    13     9    1
    32     7     8    1
    33     7     9    1
    34    11    10    1
    35     9    10    1
    36    10    12    1
