@<TRIPOS>MOLECULE
2tdd_THF_A_1.pdb
 34 36 0 0 0
SMALL
GASTEIGER

@<TRIPOS>ATOM
      1  N1        19.6540   55.0710  -50.7740 N.2   568  THF568     -0.2726
      2  C2        20.8370   54.5190  -51.0140 C.1   568  THF568      0.2603
      3  NA2       21.9740   55.4460  -50.9390 N.pl3 568  THF568     -0.0221
      4  N3        21.2390   53.4150  -51.2640 N.2   568  THF568     -0.2515
      5  C4        20.3090   52.4400  -51.0810 C.1   568  THF568      0.2219
      6  O4        20.5980   51.0790  -51.0320 O.2   568  THF568     -0.2109
      7  C4A       18.9930   52.8470  -50.9090 C.3   568  THF568      0.2781
      8  N5        17.9360   52.2460  -51.4690 N.3   568  THF568     -0.2165
      9  C6        16.6870   52.2650  -50.6320 C.3   568  THF568      0.1084
     10  C7        16.4060   53.6920  -50.2370 C.3   568  THF568      0.1548
     11  N8        17.3810   54.5030  -50.6890 N.2   568  THF568     -0.2096
     12  C8A       18.6990   54.1610  -50.5950 C.1   568  THF568      0.1050
     13  C9        16.7970   51.3370  -49.4470 C.3   568  THF568      0.1302
     14  N10       17.8190   50.3320  -49.7830 N.pl3 568  THF568     -0.2361
     15  C11       19.5400   47.6360  -47.0560 C.ar  568  THF568      0.0551
     16  C12       19.6640   47.4940  -48.4620 C.ar  568  THF568      0.0059
     17  C13       19.3150   48.5030  -49.3620 C.ar  568  THF568      0.0162
     18  C14       18.5990   49.5710  -48.8300 C.ar  568  THF568      0.0654
     19  C15       18.5390   49.8150  -47.4410 C.ar  568  THF568      0.0162
     20  C16       19.0630   48.8680  -46.5360 C.ar  568  THF568      0.0059
     21  C         19.8580   46.4540  -46.2470 C.2   568  THF568      0.2652
     22  O         20.6070   45.5920  -46.7230 O.2   568  THF568     -0.2684
     23  N         19.3230   46.2440  -45.0170 N.am  568  THF568     -0.1918
     24  CA        20.0390   45.4510  -44.0030 C.3   568  THF568      0.1986
     25  CB        20.8490   46.3240  -43.1390 C.3   568  THF568      0.0451
     26  CG        22.3200   46.2840  -43.5590 C.3   568  THF568      0.1164
     27  CD        23.0960   47.6310  -43.6200 C.2   568  THF568      0.3649
     28  OE1       24.3340   47.6130  -43.4460 O.co2 568  THF568     -0.2457
     29  OE2       22.5210   48.6580  -44.0350 O.co2 568  THF568     -0.2457
     30  CT        19.3680   44.2290  -43.2870 C.2   568  THF568      0.3842
     31  O1        19.7160   43.0800  -43.6360 O.co2 568  THF568     -0.2437
     32  O2        18.7190   44.4040  -42.2350 O.co2 568  THF568     -0.2437
     33  CP1       17.8190   51.9380  -52.9350 C.3   568  THF568      0.2606
     34  O3        18.2220   52.9620  -53.8840 O.3   568  THF568     -0.2005
@<TRIPOS>BOND
     1    34    33    1
     2    33     8    1
     3     8     7    1
     4     8     9    1
     5     4     5    2
     6     4     2    2
     7     5     6    2
     8     5     7    1
     9     2     3    1
    10     2     1    2
    11     7    12    1
    12     1    12    2
    13    11    12    2
    14    11    10    1
    15     9    10    1
    16     9    13    1
    17    14    13    1
    18    14    18    1
    19    17    18   ar
    20    17    16   ar
    21    18    19   ar
    22    16    15   ar
    23    19    20   ar
    24    15    20   ar
    25    15    21    1
    26    22    21    2
    27    21    23   am
    28    23    24    1
    29    29    27   ar
    30    24    30    1
    31    24    25    1
    32    31    30   ar
    33    27    26    1
    34    27    28   ar
    35    26    25    1
    36    30    32   ar
