@<TRIPOS>MOLECULE
2tdd_UFP_A_1.pdb
 21 22 0 0 0
SMALL
GASTEIGER

@<TRIPOS>ATOM
      1  N1        15.2720   48.7930  -53.8280 N.am  529  UFP529     -0.1768
      2  C2        13.8740   48.8820  -53.4980 C.1   529  UFP529      0.2846
      3  N3        13.4780   48.8190  -52.1480 N.2   529  UFP529     -0.2430
      4  C4        14.3710   48.7430  -51.0690 C.1   529  UFP529      0.2454
      5  C5        15.8190   48.6300  -51.4840 C.2   529  UFP529      0.2499
      6  C6        16.2300   48.7090  -52.8540 C.2   529  UFP529      0.1221
      7  O2        12.9810   49.0300  -54.3270 O.2   529  UFP529     -0.1918
      8  O4        13.9130   48.8120  -49.9100 O.2   529  UFP529     -0.2062
      9  F5        16.6780   48.2760  -50.5560 F     529  UFP529     -0.1891
     10  C1'       15.8380   48.7800  -55.1850 C.3   529  UFP529      0.2091
     11  C2'       15.6570   47.7610  -56.1760 C.3   529  UFP529      0.0874
     12  C3'       16.5860   48.1930  -57.2530 C.3   529  UFP529      0.1857
     13  C4'       16.7570   49.7200  -56.9260 C.3   529  UFP529      0.1774
     14  O3'       17.8700   47.5250  -57.0980 O.3   529  UFP529     -0.2203
     15  O4'       16.6180   49.8260  -55.4280 O.3   529  UFP529     -0.3339
     16  C5'       15.9810   50.7370  -57.7130 C.3   529  UFP529      0.1858
     17  O5'       16.5040   50.8400  -59.0940 O.3   529  UFP529     -0.2675
     18  P         15.7890   51.8770  -60.2010 P.3   529  UFP529      0.5327
     19  O1P       16.3800   51.6830  -61.6170 O.2   529  UFP529     -0.2224
     20  O2P       14.3800   51.3490  -60.0050 O.3   529  UFP529     -0.1145
     21  O3P       16.0920   53.2580  -59.6750 O.3   529  UFP529     -0.1145
@<TRIPOS>BOND
     1    19    18    2
     2    18    20    1
     3    18    21    1
     4    18    17    1
     5    17    16    1
     6    16    13    1
     7    12    14    1
     8    12    13    1
     9    12    11    1
    10    13    15    1
    11    11    10    1
    12    15    10    1
    13    10     1    1
    14     7     2    2
    15     1     2   am
    16     1     6    1
    17     2     3    2
    18     6     5    2
    19     3     4    2
    20     5     4    1
    21     5     9    1
    22     4     8    2
