@<TRIPOS>MOLECULE
2tdm_UMP_A_1.pdb
 20 21 0 0 0
SMALL
GASTEIGER

@<TRIPOS>ATOM
      1  N1        14.4910   48.5100  -53.5250 N.am  317  UMP317     -0.1790
      2  C2        13.7060   47.4890  -53.0670 C.1   317  UMP317      0.2844
      3  N3        12.7890   47.8100  -52.0820 N.2   317  UMP317     -0.2452
      4  C4        12.6220   49.0940  -51.5240 C.1   317  UMP317      0.2182
      5  C5        13.5000   50.1020  -52.0810 C.2   317  UMP317      0.1242
      6  C6        14.4040   49.7360  -53.0840 C.2   317  UMP317      0.0928
      7  O2        13.7990   46.3480  -53.4980 O.2   317  UMP317     -0.1918
      8  O4        11.8030   49.3110  -50.6270 O.2   317  UMP317     -0.2085
      9  C1'       15.5590   48.2500  -54.5050 C.3   317  UMP317      0.2090
     10  C2'       15.1290   47.7530  -55.8830 C.3   317  UMP317      0.0874
     11  C3'       16.3670   47.9950  -56.7280 C.3   317  UMP317      0.1857
     12  C4'       16.8750   49.3870  -56.3400 C.3   317  UMP317      0.1774
     13  O3'       17.3030   47.0120  -56.3110 O.3   317  UMP317     -0.2203
     14  O4'       16.4410   49.4090  -54.9010 O.3   317  UMP317     -0.3339
     15  C5'       16.1090   50.4810  -57.0880 C.3   317  UMP317      0.1858
     16  O5'       16.5270   50.4300  -58.4710 O.3   317  UMP317     -0.2675
     17  P         15.8030   51.2850  -59.5660 P.3   317  UMP317      0.5327
     18  OP1       16.6500   51.2210  -60.7800 O.2   317  UMP317     -0.2224
     19  OP2       14.5190   50.6170  -59.8360 O.3   317  UMP317     -0.1145
     20  OP3       15.5400   52.6950  -59.1920 O.3   317  UMP317     -0.1145
@<TRIPOS>BOND
     1    18    17    2
     2    19    17    1
     3    17    20    1
     4    17    16    1
     5    16    15    1
     6    15    12    1
     7    11    12    1
     8    11    13    1
     9    11    10    1
    10    12    14    1
    11    10     9    1
    12    14     9    1
    13     9     1    1
    14     1     6    1
    15     1     2   am
    16     7     2    2
    17     6     5    2
    18     2     3    2
    19     3     4    2
    20     5     4    1
    21     4     8    2
