@<TRIPOS>MOLECULE
2tdt_COA_A_1.pdb
 48 50 0 0 0
SMALL
GASTEIGER

@<TRIPOS>ATOM
      1  N1A        9.2940    3.2160   20.1790 N.2   280  COA280      0.0021
      2  C2A        9.3220    3.3820   21.5120 C.3   280  COA280      0.5254
      3  N3A       10.0050    4.2700   22.2240 N.2   280  COA280     -0.0055
      4  C4A       10.7300    5.0660   21.4110 C.2   280  COA280      0.3518
      5  C5A       10.7580    5.0570   20.0260 C.2   280  COA280      0.2526
      6  C6A        9.9980    4.0540   19.3880 C.2   280  COA280      0.4393
      7  N6A        9.9490    3.8910   18.0570 N.pl3 280  COA280      0.2180
      8  N7A       11.6190    6.0320   19.5380 N.2   280  COA280     -0.2095
      9  C8A       12.0930    6.5970   20.6220 C.3   280  COA280      0.3377
     10  N9A       11.5750    6.0860   21.7840 N.pl3 280  COA280     -0.1439
     11  C1B       11.5820    6.3460   23.2170 C.3   280  COA280      0.3185
     12  C2B       12.8540    5.8950   23.8920 C.3   280  COA280      0.2543
     13  O2B       12.5880    4.7180   24.5690 O.3   280  COA280     -0.2131
     14  C3B       13.1430    7.0370   24.8450 C.3   280  COA280      0.1928
     15  O3B       12.3680    6.8870   26.0020 O.3   280  COA280     -0.2673
     16  P3B       13.1230    7.3280   27.3290 P.3   280  COA280      0.5327
     17  O7A       13.4410    8.7720   27.2090 O.2   280  COA280     -0.2224
     18  O8A       14.2310    6.3700   27.5520 O.3   280  COA280     -0.1145
     19  O9A       12.0800    7.1160   28.3460 O.3   280  COA280     -0.1145
     20  C4B       12.6690    8.2630   24.0930 C.3   280  COA280      0.1795
     21  O4B       11.5280    7.7600   23.3580 O.3   280  COA280     -0.3136
     22  C5B       13.6880    8.8610   23.1550 C.3   280  COA280      0.1812
     23  O5B       14.4070    7.7930   22.5610 O.3   280  COA280     -0.3112
     24  P1A       15.5840    8.0620   21.5390 P.3   280  COA280      0.2189
     25  O1A       16.1180    6.7860   21.0190 O.2   280  COA280     -0.5170
     26  O2A       16.4820    8.9630   22.2830 O.3   280  COA280     -0.4371
     27  O3A       14.7320    8.8610   20.3980 O.3   280  COA280     -0.2703
     28  P2A       15.4550    9.4550   19.0950 P.3   280  COA280      0.2188
     29  O4A       16.7100    8.7320   18.7610 O.2   280  COA280     -0.5170
     30  O5A       15.4330   10.9180   19.2400 O.3   280  COA280     -0.4371
     31  O6A       14.4540    9.1460   17.8880 O.3   280  COA280     -0.3138
     32  CBP       12.9010    7.8570   16.6510 C.3   280  COA280      0.0645
     33  CCP       13.9550    7.8640   17.7580 C.3   280  COA280      0.1519
     34  CDP       11.5740    8.4670   17.2090 C.3   280  COA280      0.0056
     35  CEP       13.4160    8.6730   15.4610 C.3   280  COA280      0.0056
     36  CAP       12.6990    6.4130   16.1470 C.3   280  COA280      0.2312
     37  OAP       11.9940    5.8980   17.2750 O.3   280  COA280     -0.2131
     38  C9P       11.8640    6.4250   14.8470 C.2   280  COA280      0.2719
     39  O9P       10.6680    6.7080   14.8670 O.2   280  COA280     -0.2706
     40  N8P       12.4840    6.1420   13.6970 N.am  280  COA280     -0.2028
     41  C7P       11.7550    6.2010   12.4310 C.3   280  COA280      0.1248
     42  C6P       11.8740    4.9610   11.5700 C.3   280  COA280      0.1102
     43  C5P       11.0830    5.0890   10.2720 C.2   280  COA280      0.2432
     44  O5P        9.8890    5.4140   10.2630 O.2   280  COA280     -0.2733
     45  N4P       11.7700    4.8140    9.1680 N.am  280  COA280     -0.2044
     46  C3P       11.1900    4.9570    7.8600 C.3   280  COA280      0.1276
     47  C2P       11.3500    3.8170    6.8740 C.3   280  COA280      0.0920
     48  S1P       10.4020    4.2820    5.3840 S.3   280  COA280     -0.0802
@<TRIPOS>BOND
     1    48    47    1
     2    47    46    1
     3    46    45    1
     4    45    43   am
     5    44    43    2
     6    43    42    1
     7    42    41    1
     8    41    40    1
     9    40    38   am
    10    38    39    2
    11    38    36    1
    12    35    32    1
    13    36    32    1
    14    36    37    1
    15    32    34    1
    16    32    33    1
    17    33    31    1
    18    31    28    1
    19     7     6    1
    20    29    28    2
    21    28    30    1
    22    28    27    1
    23     6     5    1
    24     6     1    2
    25     8     5    2
    26     8     9    1
    27     5     4    1
    28     1     2    1
    29    27    24    1
    30     9    10    1
    31    25    24    2
    32     4    10    1
    33     4     3    2
    34     2     3    1
    35    24    26    1
    36    24    23    1
    37    10    11    1
    38    23    22    1
    39    22    20    1
    40    11    21    1
    41    11    12    1
    42    21    20    1
    43    12    13    1
    44    12    14    1
    45    20    14    1
    46    14    15    1
    47    15    16    1
    48    17    16    2
    49    16    18    1
    50    16    19    1
