@<TRIPOS>MOLECULE
2tdt_NPI_A_1.pdb
 12 11 0 0 0
SMALL
GASTEIGER

@<TRIPOS>ATOM
      1  CA        13.2440    4.6140    1.2620 C.3   281  NPI281      0.1947
      2  CB        13.4180    5.7540    0.3040 C.3   281  NPI281      0.0353
      3  C4        13.9040    5.2160   -1.0080 C.3   281  NPI281      0.0283
      4  C5        13.9940    6.3340   -2.0690 C.2   281  NPI281     -0.0193
      5  C6        14.3950    5.8720   -3.4540 C.2   281  NPI281      0.0816
      6  C         14.5430    3.8020    1.2760 C.2   281  NPI281      0.3819
      7  O         15.5150    4.2450    2.0340 O.co2 281  NPI281     -0.2441
      8  OXT       14.6690    2.7710    0.6020 O.co2 281  NPI281     -0.2441
      9  N         12.9170    5.1070    2.6020 N.3   281  NPI281     -0.1208
     10  C7        14.3980    6.9250   -4.5810 C.2   281  NPI281      0.3876
     11  O71       14.2320    6.6300   -5.7740 O.co2 281  NPI281     -0.2406
     12  O72       14.6130    8.2050   -4.4150 O.co2 281  NPI281     -0.2406
@<TRIPOS>BOND
     1    11    10   ar
     2    10    12   ar
     3    10     5    1
     4     5     4    2
     5     4     3    1
     6     3     2    1
     7     2     1    1
     8     8     6   ar
     9     1     6    1
    10     1     9    1
    11     6     7   ar
