@<TRIPOS>MOLECULE
2tep_GAL_A_1.pdb
 11 11 0 0 0
SMALL
GASTEIGER

@<TRIPOS>ATOM
      1  C1        55.3550   26.4900   63.4480 C.3   239  GAL239      0.1777
      2  C2        53.9890   26.2080   63.0280 C.3   239  GAL239      0.2141
      3  C3        53.6120   24.7590   63.1220 C.3   239  GAL239      0.2173
      4  C4        54.6110   23.9870   62.2520 C.3   239  GAL239      0.2142
      5  C5        56.0260   24.2550   62.9010 C.3   239  GAL239      0.1810
      6  C6        57.2790   23.5460   62.4020 C.3   239  GAL239      0.2141
      7  O2        53.1720   26.8930   63.8990 O.3   239  GAL239     -0.2176
      8  O3        52.2560   24.6770   62.6810 O.3   239  GAL239     -0.2175
      9  O4        54.4700   24.4070   60.9130 O.3   239  GAL239     -0.2176
     10  O5        56.3330   25.6460   62.8340 O.3   239  GAL239     -0.3481
     11  O6        58.3200   23.8990   63.2710 O.3   239  GAL239     -0.2176
@<TRIPOS>BOND
     1     9     4    1
     2     4     5    1
     3     4     3    1
     4     6     5    1
     5     6    11    1
     6     8     3    1
     7    10     5    1
     8    10     1    1
     9     2     3    1
    10     2     1    1
    11     2     7    1
