@<TRIPOS>MOLECULE
2tgd_DFP_A_1.pdb
 10 9 0 0 0
SMALL
GASTEIGER

@<TRIPOS>ATOM
      1  C1        11.7960   24.6830   27.8590 C.3   248  DFP248      0.1236
      2  C2        10.4080   24.8690   27.3020 C.3   248  DFP248      0.0325
      3  C3        12.0380   23.2020   28.0990 C.3   248  DFP248      0.0325
      4  C1'       12.1020   28.0320   26.9960 C.3   248  DFP248      0.1236
      5  C2'       12.7720   29.2210   26.2860 C.3   248  DFP248      0.0325
      6  C3'       10.5990   28.1990   26.7550 C.3   248  DFP248      0.0325
      7  P         13.0010   26.6460   28.9840 P.3   248  DFP248      0.3659
      8  O1P       11.9500   25.4660   29.0600 O.3   248  DFP248     -0.2993
      9  O2P       12.3860   27.9890   28.4490 O.3   248  DFP248     -0.2993
     10  O3P       12.8300   27.1330   30.2620 O.3   248  DFP248     -0.1446
@<TRIPOS>BOND
     1     5     4    1
     2     6     4    1
     3     4     9    1
     4     2     1    1
     5     1     3    1
     6     1     8    1
     7     9     7    1
     8     7     8    1
     9     7    10    1
