@<TRIPOS>MOLECULE
2thf_0G6_B_1.pdb
 30 31 0 0 0
SMALL
GASTEIGER

@<TRIPOS>ATOM
      1  N         31.5770   43.3350   20.6860 N.3   301  0G6301     -0.1228
      2  CA        31.4870   43.9310   22.0450 C.3   301  0G6301      0.1721
      3  C         30.4430   43.1150   22.8140 C.2   301  0G6301      0.2437
      4  O         30.4500   41.8930   22.7400 O.2   301  0G6301     -0.2733
      5  CB        32.9060   43.8940   22.6780 C.3   301  0G6301      0.0547
      6  CG        32.8900   44.4210   24.1140 C.ar  301  0G6301     -0.0202
      7  CD1       32.7160   45.8190   24.3970 C.ar  301  0G6301     -0.0042
      8  CD2       33.0470   43.5330   25.2080 C.ar  301  0G6301     -0.0042
      9  CE1       32.6980   46.3110   25.7280 C.ar  301  0G6301     -0.0003
     10  CE2       33.0320   44.0070   26.5490 C.ar  301  0G6301     -0.0003
     11  CZ        32.8560   45.4070   26.8150 C.ar  301  0G6301     -0.0000
     12  N1        29.5030   43.7840   23.5240 N.am  301  0G6301     -0.2718
     13  CA1       28.4940   43.0200   24.2750 C.3   301  0G6301      0.1535
     14  C1        27.5920   42.1760   23.3670 C.2   301  0G6301      0.2595
     15  O1        27.3030   42.5510   22.2280 O.2   301  0G6301     -0.2716
     16  CB1       27.6860   44.0960   25.0360 C.3   301  0G6301      0.0310
     17  CG1       28.4790   45.3780   24.9150 C.3   301  0G6301      0.0237
     18  CD        29.3000   45.2460   23.6480 C.3   301  0G6301      0.0939
     19  N2        27.1590   41.0270   23.8750 N.am  301  0G6301     -0.2032
     20  CA2       26.2760   40.1600   23.1090 C.3   301  0G6301      0.1257
     21  C2        24.9090   40.0610   23.8010 C.3   301  0G6301      0.1718
     22  O2        23.9750   39.7770   22.9690 O.3   301  0G6301     -0.2213
     23  CB2       26.9410   38.7950   22.8480 C.3   301  0G6301      0.0280
     24  CG2       28.0730   38.8750   21.7940 C.3   301  0G6301      0.0488
     25  CD3       28.8170   37.5540   21.5970 C.3   301  0G6301      0.2205
     26  NE        29.9470   37.5020   20.6580 N.pl3 301  0G6301     -0.0865
     27  CZ1       30.3720   36.3230   20.2500 C.cat 301  0G6301      0.5346
     28  NH1       30.3190   35.2230   20.9970 N.pl3 301  0G6301      0.1354
     29  NH2       30.8790   36.2500   19.0380 N.pl3 301  0G6301      0.1354
     30  C3        24.3440   41.3240   24.5580 C.3   301  0G6301      0.0373
@<TRIPOS>BOND
     1    29    27    1
     2    27    26    2
     3    27    28    1
     4    26    25    1
     5     1     2    1
     6    25    24    1
     7    24    23    1
     8     2     5    1
     9     2     3    1
    10    15    14    2
    11     5     6    1
    12     4     3    2
    13     3    12   am
    14    23    20    1
    15    22    21    1
    16    20    21    1
    17    20    19    1
    18    14    19   am
    19    14    13    1
    20    12    18    1
    21    12    13    1
    22    18    17    1
    23    21    30    1
    24     6     7   ar
    25     6     8   ar
    26    13    16    1
    27     7     9   ar
    28    17    16    1
    29     8    10   ar
    30     9    11   ar
    31    10    11   ar
