@<TRIPOS>MOLECULE
2tlx_LYS_A_1.pdb
 10 9 0 0 0
SMALL
GASTEIGER

@<TRIPOS>ATOM
      1  N         37.7190   40.3100   -3.8920 N.3   318  LYS318     -0.1208
      2  CA        38.8710   39.4580   -4.2350 C.3   318  LYS318      0.1943
      3  C         38.4550   38.2990   -5.1480 C.2   318  LYS318      0.3819
      4  O         37.0000   38.0000   -5.6690 O.co2 318  LYS318     -0.2441
      5  CB        39.4690   38.8630   -2.9650 C.3   318  LYS318      0.0307
      6  CG        38.4540   38.1140   -2.1180 C.3   318  LYS318      0.0036
      7  CD        39.0200   36.7360   -1.7480 C.3   318  LYS318      0.0206
      8  CE        37.9990   36.0430   -0.8610 C.3   318  LYS318      0.1093
      9  NZ        37.7800   34.6280   -1.2370 N.3   318  LYS318     -0.1314
     10  OXT       39.4260   37.7450   -5.7620 O.co2 318  LYS318     -0.2441
@<TRIPOS>BOND
     1    10     3   ar
     2     4     3   ar
     3     3     2    1
     4     2     1    1
     5     2     5    1
     6     5     6    1
     7     6     7    1
     8     7     8    1
     9     9     8    1
