@<TRIPOS>MOLECULE
2tmd_FMN_A_1.pdb
 31 33 0 0 0
SMALL
GASTEIGER

@<TRIPOS>ATOM
      1  N1        33.2630   17.7870   -0.7060 N.2   802  FMN802     -0.2890
      2  C2        32.3690   18.6610   -0.2080 C.1   802  FMN802      0.3669
      3  O2        31.5690   19.2370   -0.9210 O.2   802  FMN802     -0.1744
      4  N3        32.4490   18.8880    1.1360 N.2   802  FMN802     -0.2300
      5  C4        33.3240   18.3170    1.9830 C.1   802  FMN802      0.2513
      6  O4        33.2660   18.7010    3.1520 O.2   802  FMN802     -0.2057
      7  C4A       34.2300   17.3970    1.3430 C.2   802  FMN802      0.2700
      8  N5        35.0920   16.7110    2.1610 N.2   802  FMN802     -0.3878
      9  C5A       36.2510   16.1880    1.6310 C.2   802  FMN802      0.1320
     10  C6        37.3320   15.8480    2.4110 C.2   802  FMN802      0.0250
     11  C7        38.5650   15.6370    1.8300 C.2   802  FMN802     -0.0238
     12  C7M       39.8440   15.4070    2.7010 C.3   802  FMN802      0.0308
     13  C8        38.6870   15.6680    0.4580 C.2   802  FMN802     -0.0280
     14  C8M       40.0630   15.5970   -0.2380 C.3   802  FMN802      0.0304
     15  C9        37.5930   15.8240   -0.2970 C.2   802  FMN802     -0.0041
     16  C9A       36.3940   16.1610    0.2540 C.3   802  FMN802      0.1497
     17  N10       35.3330   16.5390   -0.5710 N.pl3 802  FMN802     -0.2691
     18  C10       34.2330   17.1210   -0.0090 C.2   802  FMN802      0.2416
     19  C1'       35.2840   16.3010   -1.9160 C.3   802  FMN802      0.1294
     20  C2'       36.0800   17.3760   -2.6900 C.3   802  FMN802      0.2044
     21  O2'       35.4740   18.6670   -2.5680 O.3   802  FMN802     -0.2185
     22  C3'       36.2990   16.9880   -4.1550 C.3   802  FMN802      0.2164
     23  O3'       35.0510   16.9820   -4.8520 O.3   802  FMN802     -0.2175
     24  C4'       37.1670   15.6850   -4.2600 C.3   802  FMN802      0.2147
     25  O4'       38.3420   15.7790   -3.4730 O.3   802  FMN802     -0.2176
     26  C5'       37.6020   15.5050   -5.6940 C.3   802  FMN802      0.1892
     27  O5'       38.3720   16.6440   -6.1550 O.3   802  FMN802     -0.2674
     28  P         39.9560   16.5440   -6.4110 P.3   802  FMN802      0.5327
     29  O1P       40.3450   17.8750   -6.8890 O.3   802  FMN802     -0.1145
     30  O2P       40.0250   15.5070   -7.4510 O.2   802  FMN802     -0.2224
     31  O3P       40.4610   16.2370   -5.0760 O.3   802  FMN802     -0.1145
@<TRIPOS>BOND
     1    30    28    2
     2    29    28    1
     3    28    27    1
     4    28    31    1
     5    27    26    1
     6    26    24    1
     7    23    22    1
     8    24    22    1
     9    24    25    1
    10    22    20    1
    11    20    21    1
    12    20    19    1
    13    19    17    1
    14     3     2    2
    15     1     2    2
    16     1    18    2
    17    17    18    1
    18    17    16    1
    19    15    16    1
    20    15    13    2
    21    14    13    1
    22     2     4    2
    23    18     7    1
    24    16     9    1
    25    13    11    1
    26     4     5    2
    27     7     5    1
    28     7     8    2
    29     9     8    2
    30     9    10    1
    31    11    10    2
    32    11    12    1
    33     5     6    2
