@<TRIPOS>MOLECULE
2tmk_ATM_A_1.pdb
 23 24 0 0 0
SMALL
GASTEIGER

@<TRIPOS>ATOM
      1  P          4.0990   36.7760    4.9780 P.3   217  ATM217      0.5327
      2  OP1        5.0780   35.8280    5.5180 O.3   217  ATM217     -0.1145
      3  OP2        3.1950   37.5310    5.9050 O.3   217  ATM217     -0.1145
      4  OP3        5.0040   37.7760    4.1380 O.2   217  ATM217     -0.2224
      5  O5'        3.0430   36.0890    4.0130 O.3   217  ATM217     -0.2676
      6  C5'        3.4120   35.1100    3.0390 C.3   217  ATM217      0.1853
      7  C4'        2.2180   34.7160    2.1650 C.3   217  ATM217      0.1724
      8  O4'        1.4930   33.5750    2.6310 O.3   217  ATM217     -0.3345
      9  C3'        1.2070   35.8450    1.9620 C.3   217  ATM217      0.1731
     10  N3'        1.0630   36.0580    0.5440 N.2   217  ATM217     -0.0969
     11  N4'        1.5770   36.8750   -0.2490 N.2   217  ATM217     -0.1663
     12  N5'        2.0260   37.5880   -0.9400 N.2   217  ATM217      0.0678
     13  C2'       -0.0870   35.2170    2.3500 C.3   217  ATM217      0.0819
     14  C1'        0.1580   33.7520    2.1140 C.3   217  ATM217      0.2085
     15  N1        -0.7390   33.0180    2.9890 N.am  217  ATM217     -0.1794
     16  C2        -1.6260   32.1170    2.4190 C.1   217  ATM217      0.2844
     17  O2        -1.7370   31.9170    1.2130 O.2   217  ATM217     -0.1918
     18  N3        -2.3690   31.3820    3.3230 N.2   217  ATM217     -0.2455
     19  C4        -2.1370   31.2980    4.6940 C.1   217  ATM217      0.2134
     20  O4        -2.7200   30.4630    5.3680 O.2   217  ATM217     -0.2088
     21  C5        -1.1560   32.2340    5.2030 C.2   217  ATM217      0.0891
     22  C5A       -0.9240   32.3270    6.6980 C.3   217  ATM217      0.0462
     23  C6        -0.5340   33.0680    4.3550 C.2   217  ATM217      0.0877
@<TRIPOS>BOND
     1    12    11    2
     2    11    10    2
     3    10     9    1
     4    17    16    2
     5     9     7    1
     6     9    13    1
     7    14    13    1
     8    14     8    1
     9    14    15    1
    10     7     8    1
    11     7     6    1
    12    16    15   am
    13    16    18    2
    14    15    23    1
    15     6     5    1
    16    18    19    2
    17     5     1    1
    18     4     1    2
    19    23    21    2
    20    19    21    1
    21    19    20    2
    22     1     2    1
    23     1     3    1
    24    21    22    1
