@<TRIPOS>MOLECULE
2tmn_0FA_E_1.pdb
 13 12 0 0 0
SMALL
GASTEIGER

@<TRIPOS>ATOM
      1  C         53.6540   17.0160   -4.0170 C.2   322  0FA322      0.2771
      2  N         51.6470   18.3580   -4.5460 N.3   322  0FA322     -0.1104
      3  O         54.8770   17.0990   -3.8570 O.2   322  0FA322     -0.2701
      4  P         51.7110   18.9570   -6.2940 P.3   322  0FA322      0.4795
      5  N1        53.0330   15.9300   -4.3380 N.am  322  0FA322     -0.0866
      6  O1        51.6950   20.5290   -6.1650 O.3   322  0FA322     -0.1243
      7  O2        53.1510   18.5470   -6.8250 O.3   322  0FA322     -0.1243
      8  O3        50.5590   18.3330   -7.0080 O.2   322  0FA322     -0.2336
      9  CA        52.8450   18.2740   -3.7280 C.3   322  0FA322      0.1633
     10  CB        52.5110   18.2580   -2.2300 C.3   322  0FA322      0.0274
     11  CG        53.6580   18.2450   -1.2680 C.3   322  0FA322      0.0019
     12  CD1       54.5690   19.4580   -1.5220 C.3   322  0FA322      0.0001
     13  CD2       52.8570   18.1860    0.0450 C.3   322  0FA322      0.0001
@<TRIPOS>BOND
     1     8     4    2
     2     7     4    1
     3     4     6    1
     4     4     2    1
     5     2     9    1
     6     5     1   am
     7     1     3    2
     8     1     9    1
     9     9    10    1
    10    10    11    1
    11    12    11    1
    12    11    13    1
