@<TRIPOS>MOLECULE
2tod_PLP_A_1.pdb
 15 15 0 0 0
SMALL
GASTEIGER

@<TRIPOS>ATOM
      1  N1        20.9780   30.3260   -2.9070 N.ar  600  PLP600     -0.2452
      2  C2        19.8470   29.7390   -3.3730 C.ar  600  PLP600      0.0978
      3  C2A       18.4970   30.4320   -3.4910 C.3   600  PLP600      0.0555
      4  C3        19.8550   28.3960   -3.8390 C.ar  600  PLP600      0.2049
      5  O3        18.6420   27.8810   -4.3510 O.3   600  PLP600     -0.2857
      6  C4        21.0720   27.6710   -3.7990 C.ar  600  PLP600      0.0182
      7  C4A       21.0720   26.1320   -4.3040 C.3   600  PLP600      0.0342
      8  C5        22.2690   28.4050   -3.2590 C.ar  600  PLP600      0.0261
      9  C6        22.1820   29.6750   -2.8630 C.ar  600  PLP600      0.0965
     10  C5A       23.6330   27.6900   -3.1510 C.3   600  PLP600      0.1815
     11  O4P       23.8550   27.0730   -4.4990 O.3   600  PLP600     -0.2653
     12  P         25.4680   26.5850   -4.6770 P.3   600  PLP600      0.5329
     13  O1P       25.3810   26.1390   -6.1210 O.2   600  PLP600     -0.2224
     14  O2P       25.6840   25.4780   -3.7190 O.3   600  PLP600     -0.1145
     15  O3P       26.3930   27.7540   -4.4870 O.3   600  PLP600     -0.1145
@<TRIPOS>BOND
     1    13    12    2
     2    12    11    1
     3    12    15    1
     4    12    14    1
     5    11    10    1
     6     5     4    1
     7     7     6    1
     8     4     6   ar
     9     4     2   ar
    10     6     8   ar
    11     3     2    1
    12     2     1   ar
    13     8    10    1
    14     8     9   ar
    15     1     9   ar
