@<TRIPOS>MOLECULE
2toh_HBI_A_1.pdb
 17 18 0 0 0
SMALL
GASTEIGER

@<TRIPOS>ATOM
      1  N1        72.5310   59.7590   32.9450 N.2   500  HBI500     -0.2672
      2  N2        70.4320   60.6660   33.2640 N.pl3 500  HBI500     -0.0220
      3  C2        71.5640   60.2190   33.7620 C.1   500  HBI500      0.2609
      4  N3        71.6400   60.2690   35.1280 N.2   500  HBI500     -0.2466
      5  C4        72.7970   59.8120   35.7790 C.1   500  HBI500      0.2569
      6  O4        72.9090   59.8380   37.0320 O.2   500  HBI500     -0.2052
      7  C4A       73.8450   59.2980   34.9840 C.2   500  HBI500      0.2989
      8  C8A       73.6640   59.3000   33.5570 C.1   500  HBI500      0.1401
      9  N8        74.6400   58.8330   32.6740 N.2   500  HBI500     -0.1992
     10  C7        75.6620   57.9310   33.2530 C.3   500  HBI500      0.1940
     11  C6        75.9840   58.1460   34.7270 C.2   500  HBI500      0.1466
     12  N5        75.0360   58.7800   35.5140 N.2   500  HBI500     -0.3830
     13  C9        77.1620   57.4750   35.4060 C.3   500  HBI500      0.2313
     14  O9        78.1810   57.2390   34.4180 O.3   500  HBI500     -0.2130
     15  C10       77.8030   58.2580   36.5870 C.3   500  HBI500      0.1888
     16  O10       77.0820   59.4680   36.8660 O.3   500  HBI500     -0.2200
     17  C11       77.7880   57.4180   37.8630 C.3   500  HBI500      0.0387
@<TRIPOS>BOND
     1     9    10    1
     2     9     8    2
     3     1     8    2
     4     1     3    2
     5    10    11    1
     6     2     3    1
     7     8     7    1
     8     3     4    2
     9    14    13    1
    10    11    13    1
    11    11    12    2
    12     7    12    2
    13     7     5    1
    14     4     5    2
    15    13    15    1
    16     5     6    2
    17    15    16    1
    18    15    17    1
