@<TRIPOS>MOLECULE
2tpl_HPP_B_1.pdb
 12 12 0 0 0
SMALL
GASTEIGER

@<TRIPOS>ATOM
      1  C1       -23.2920   16.6870    4.0400 C.ar  600  HPP600     -0.0214
      2  C2       -23.1310   17.2750    2.7870 C.ar  600  HPP600     -0.0010
      3  C3       -24.2210   17.7080    2.0490 C.ar  600  HPP600      0.0417
      4  C4       -25.4910   17.5500    2.5650 C.ar  600  HPP600      0.1957
      5  O4       -26.6030   17.9730    1.8630 O.3   600  HPP600     -0.2866
      6  C5       -25.6800   16.9710    3.8050 C.ar  600  HPP600      0.0417
      7  C6       -24.5870   16.5400    4.5320 C.ar  600  HPP600     -0.0010
      8  C7       -22.1070   16.2200    4.8420 C.3   600  HPP600      0.0382
      9  C8       -21.4300   17.1900    5.7960 C.3   600  HPP600      0.1187
     10  C9       -20.9780   18.4720    5.1140 C.2   600  HPP600      0.3652
     11  O1       -21.7320   19.4680    5.2230 O.co2 600  HPP600     -0.2456
     12  O2       -19.9090   18.5050    4.4730 O.co2 600  HPP600     -0.2456
@<TRIPOS>BOND
     1     5     4    1
     2     3     4   ar
     3     3     2   ar
     4     4     6   ar
     5     2     1   ar
     6     6     7   ar
     7     1     7   ar
     8     1     8    1
     9    12    10   ar
    10     8     9    1
    11    10    11   ar
    12    10     9    1
