@<TRIPOS>MOLECULE
2tps_TPS_A_1.pdb
 22 23 0 0 0
SMALL
GASTEIGER

@<TRIPOS>ATOM
      1  CM2       17.2440   39.7710   15.6760 C.3   2001  TPS2001     0.1291
      2  N3        13.5380   44.4050   17.6670 N.pl3 2001  TPS2001    -0.2967
      3  C2        12.2800   44.1930   17.2530 C.3   2001  TPS2001     0.1546
      4  S1        11.1600   43.9360   18.4750 S.3   2001  TPS2001    -0.0908
      5  C5        12.4220   44.0650   19.6700 C.2   2001  TPS2001     0.0392
      6  C4        13.6250   44.2590   19.0300 C.2   2001  TPS2001     0.0319
      7  CM4       14.9170   44.5950   19.6940 C.3   2001  TPS2001     0.0476
      8  C6        12.1680   43.9740   21.1520 C.2   2001  TPS2001     0.0477
      9  C7        12.1130   42.5920   21.7060 C.2   2001  TPS2001     0.1837
     10  O7        11.9280   42.4880   23.1380 O.2   2001  TPS2001    -0.3966
     11  N1A       15.5350   41.3800   15.2120 N.2   2001  TPS2001    -0.1861
     12  C2A       16.7180   41.1280   15.8540 C.1   2001  TPS2001     0.0663
     13  N3A       17.3570   41.9890   16.5720 N.2   2001  TPS2001    -0.3368
     14  C4A       16.8170   43.2250   16.7980 C.2   2001  TPS2001     0.2292
     15  N4A       17.5280   44.1330   17.4650 N.pl3 2001  TPS2001    -0.0925
     16  C5A       15.4830   43.4870   16.3100 C.2   2001  TPS2001     0.0654
     17  C6A       14.9660   42.5830   15.4260 C.2   2001  TPS2001     0.1115
     18  C7A       14.7060   44.7170   16.7290 C.3   2001  TPS2001     0.1238
     19  P1        10.9740   41.4890   23.9070 P.3   2001  TPS2001     0.5888
     20  O1         9.5950   41.6830   23.4090 O.2   2001  TPS2001    -0.2114
     21  O2        11.1530   41.8830   25.3430 O.3   2001  TPS2001    -0.1039
     22  O3        11.4550   40.1100   23.6000 O.3   2001  TPS2001    -0.1039
@<TRIPOS>BOND
     1    11    17    1
     2    11    12    2
     3    17    16    2
     4     1    12    1
     5    12    13    2
     6    16    18    1
     7    16    14    1
     8    13    14    2
     9    18     2    1
    10    14    15    1
    11     3     2    1
    12     3     4    1
    13     2     6    1
    14     4     5    1
    15     6     5    2
    16     6     7    1
    17     5     8    1
    18     8     9    2
    19     9    10    1
    20    10    19    1
    21    20    19    2
    22    22    19    1
    23    19    21    1
