@<TRIPOS>MOLECULE
2trs_PLS_B_1.pdb
 22 22 0 0 0
SMALL
GASTEIGER

@<TRIPOS>ATOM
      1  N         80.4250   14.9970   10.4270 N.2   398  PLS398     -0.2610
      2  CA        79.2650   15.8470   10.0420 C.3   398  PLS398      0.2381
      3  CB        78.8790   16.8630   10.9980 C.3   398  PLS398      0.2178
      4  OG        79.4170   18.2180   10.9450 O.3   398  PLS398     -0.2176
      5  C         79.3790   16.5480    8.6180 C.2   398  PLS398      0.3893
      6  O         80.4460   16.9210    8.1170 O.co2 398  PLS398     -0.2434
      7  OXT       78.4320   16.9490    8.0900 O.co2 398  PLS398     -0.2434
      8  N1        84.8140   12.5940   11.8100 N.2   398  PLS398     -0.2505
      9  C2        84.8380   13.4080   10.7340 C.2   398  PLS398      0.0679
     10  C2A       85.9060   13.2280    9.6290 C.3   398  PLS398      0.0499
     11  C3        83.8180   14.4420   10.6300 C.3   398  PLS398      0.1969
     12  O3        83.8920   15.5150    9.7870 O.3   398  PLS398     -0.2163
     13  C4        82.7560   14.4640   11.6310 C.3   398  PLS398      0.0989
     14  C4A       81.4630   15.2240   11.3400 C.2   398  PLS398      0.0742
     15  C5        82.8030   13.5830   12.6910 C.2   398  PLS398      0.0129
     16  C6        83.8690   12.5980   12.7400 C.2   398  PLS398      0.0925
     17  C5A       81.7780   13.6360   13.8350 C.3   398  PLS398      0.1780
     18  O4P       80.7190   12.7640   13.7230 O.3   398  PLS398     -0.2656
     19  P         80.4840   11.4570   14.1350 P.3   398  PLS398      0.5329
     20  O1P       79.3720   11.2580   13.7640 O.2   398  PLS398     -0.2224
     21  O2P       80.3220   11.6820   15.6200 O.3   398  PLS398     -0.1145
     22  O3P       81.0020   10.1610   13.9350 O.3   398  PLS398     -0.1145
@<TRIPOS>BOND
     1     7     5   ar
     2     6     5   ar
     3     5     2    1
     4    10     9    1
     5    12    11    1
     6     2     1    1
     7     2     3    1
     8     1    14    2
     9    11     9    1
    10    11    13    1
    11     9     8    2
    12     4     3    1
    13    14    13    1
    14    13    15    1
    15     8    16    1
    16    15    16    2
    17    15    17    1
    18    18    17    1
    19    18    19    1
    20    20    19    2
    21    22    19    1
    22    19    21    1
