@<TRIPOS>MOLECULE
2trs_IPL_A_1.pdb
 17 18 0 0 0
SMALL
GASTEIGER

@<TRIPOS>ATOM
      1  N1        53.0390   26.8080   15.3370 N.2   273  IPL273     -0.2482
      2  C2        51.8110   27.5150   15.3520 C.2   273  IPL273      0.0942
      3  C3        50.8320   26.6240   15.2390 C.2   273  IPL273     -0.0019
      4  C4        50.9420   23.9770   15.0580 C.2   273  IPL273      0.0006
      5  C5        51.9170   22.9130   15.0160 C.2   273  IPL273     -0.0042
      6  C6        53.2780   23.1720   15.0670 C.2   273  IPL273     -0.0198
      7  C7        53.7600   24.4890   15.1730 C.3   273  IPL273      0.0717
      8  C8        52.8220   25.5310   15.2250 C.2   273  IPL273      0.0631
      9  C9        51.4270   25.3150   15.1680 C.2   273  IPL273      0.0114
     10  C1'       49.3140   27.4540   12.4510 C.3   273  IPL273      0.1541
     11  C2'       48.9410   27.5570   13.8950 C.3   273  IPL273      0.0374
     12  C3'       49.3430   26.9350   15.2180 C.3   273  IPL273      0.0306
     13  P         49.7940   29.2130   10.5510 P.3   273  IPL273      0.5326
     14  O1P       50.9460   30.1340   10.5980 O.3   273  IPL273     -0.1145
     15  O2P       48.4120   29.9850   10.5830 O.3   273  IPL273     -0.1145
     16  O3P       49.7170   28.2820    9.3670 O.2   273  IPL273     -0.2224
     17  O4P       49.9040   28.4370   11.8740 O.3   273  IPL273     -0.2702
@<TRIPOS>BOND
     1    16    13    2
     2    13    15    1
     3    13    14    1
     4    13    17    1
     5    17    10    1
     6    10    11    1
     7    11    12    1
     8     5     4    1
     9     5     6    2
    10     4     9    2
    11     6     7    1
    12     9     8    1
    13     9     3    1
    14     7     8    1
    15    12     3    1
    16     8     1    2
    17     3     2    2
    18     1     2    1
