@<TRIPOS>MOLECULE
2trt_TAC_A_1.pdb
 32 35 0 0 0
SMALL
GASTEIGER

@<TRIPOS>ATOM
      1  C1        19.6100   34.1210   34.3720 C.2   222  TAC222      0.1966
      2  O1        19.0770   34.4440   33.2890 O.2   222  TAC222     -0.2924
      3  C2        19.1300   33.0150   35.1440 C.3   222  TAC222      0.2018
      4  C21       18.0270   32.2310   34.7400 C.2   222  TAC222      0.2749
      5  O21       17.7940   31.1080   35.2800 O.2   222  TAC222     -0.2707
      6  N21       17.2160   32.6010   33.6940 N.am  222  TAC222     -0.0870
      7  C3        19.9120   32.6010   36.2240 C.2   222  TAC222      0.1978
      8  O3        19.8770   31.2910   36.6460 O.2   222  TAC222     -0.2894
      9  C4        21.0480   33.4040   36.6930 C.2   222  TAC222      0.0635
     10  N4        21.9180   32.6800   37.6710 N.pl3 222  TAC222     -0.3051
     11  C42       22.7630   33.6120   38.5260 C.3   222  TAC222      0.1121
     12  C43       22.8930   31.8710   36.8350 C.3   222  TAC222      0.1121
     13  C41       21.4140   34.7330   36.0600 C.3   222  TAC222      0.0761
     14  C5        20.4210   35.8690   36.4690 C.3   222  TAC222      0.0120
     15  C51       20.8280   37.1750   35.8100 C.3   222  TAC222      0.0423
     16  C6        19.9160   38.3820   36.0100 C.3   222  TAC222      0.1460
     17  C62       19.5820   38.7170   37.4460 C.3   222  TAC222      0.0375
     18  O6        18.6910   38.0270   35.3390 O.3   222  TAC222     -0.2212
     19  C61       20.5090   39.6300   35.3360 C.ar  222  TAC222      0.0109
     20  C7        20.1000   40.9020   35.7330 C.ar  222  TAC222     -0.0016
     21  C8        20.6160   42.0460   35.1110 C.ar  222  TAC222      0.0030
     22  C9        21.4860   41.9350   34.0670 C.ar  222  TAC222      0.0421
     23  C10       21.8570   40.6730   33.5950 C.ar  222  TAC222      0.1982
     24  O10       22.7540   40.6160   32.4560 O.3   222  TAC222     -0.2865
     25  C1A       21.3750   39.4990   34.2290 C.ar  222  TAC222      0.0720
     26  C11       21.6520   38.2160   33.6980 C.2   222  TAC222      0.1781
     27  O11       22.3460   38.1190   32.6690 O.2   222  TAC222     -0.2912
     28  C1B       21.2980   37.0500   34.3590 C.3   222  TAC222      0.0980
     29  C12       21.5850   35.7850   33.8640 C.3   222  TAC222      0.1940
     30  O12       22.2890   35.6150   32.6540 O.3   222  TAC222     -0.2196
     31  C1C       21.0970   34.5070   34.5370 C.3   222  TAC222      0.2109
     32  O1C       21.8930   33.4270   34.0440 O.3   222  TAC222     -0.2151
@<TRIPOS>BOND
     1    24    23    1
     2    30    29    1
     3    27    26    2
     4     2     1    2
     5    23    22   ar
     6    23    25   ar
     7     6     4   am
     8    26    25    1
     9    26    28    1
    10    29    28    1
    11    29    31    1
    12    32    31    1
    13    22    21   ar
    14    25    19   ar
    15    28    15    1
    16     1    31    1
    17     1     3    1
    18    31    13    1
    19     4     3    1
    20     4     5    2
    21    21    20   ar
    22     3     7    1
    23    19    20   ar
    24    19    16    1
    25    18    16    1
    26    15    16    1
    27    15    14    1
    28    16    17    1
    29    13    14    1
    30    13     9    1
    31     7     8    1
    32     7     9    2
    33     9    10    1
    34    12    10    1
    35    10    11    1
