@<TRIPOS>MOLECULE
2tsc_CB3_A_1.pdb
 35 37 0 0 0
SMALL
GASTEIGER

@<TRIPOS>ATOM
      1  N1        13.2160   18.5110   30.6230 N.2   266  CB3266     -0.3245
      2  C2        12.9260   19.2350   31.6610 C.1   266  CB3266      0.2518
      3  NA2       11.7940   20.1790   31.5660 N.pl3 266  CB3266     -0.0226
      4  N3        13.6510   19.0950   32.7880 N.2   266  CB3266     -0.2501
      5  C4        14.6680   18.2990   32.9270 C.1   266  CB3266      0.2180
      6  O4        15.3020   18.2220   34.0010 O.2   266  CB3266     -0.2085
      7  C4A       14.7990   17.3820   31.9690 C.2   266  CB3266      0.1220
      8  C5        15.6390   16.3180   32.1890 C.2   266  CB3266     -0.0051
      9  C6        15.7810   15.4020   31.1750 C.3   266  CB3266      0.0646
     10  C7        15.1470   15.6480   29.8770 C.2   266  CB3266     -0.0177
     11  C8        14.4170   16.7340   29.6810 C.2   266  CB3266      0.0296
     12  C8A       14.2020   17.5980   30.7420 C.2   266  CB3266      0.1564
     13  C9        16.6650   14.2020   31.2720 C.3   266  CB3266      0.1004
     14  N10       17.0550   13.6090   32.6120 N.pl3 266  CB3266     -0.2959
     15  C11       13.9700   13.2650   35.4710 C.ar  266  CB3266      0.0551
     16  C12       13.6420   13.2480   34.1480 C.ar  266  CB3266      0.0058
     17  C13       14.6660   13.3550   33.1950 C.ar  266  CB3266      0.0147
     18  C14       15.9810   13.4780   33.6070 C.ar  266  CB3266      0.0486
     19  C15       16.2830   13.5190   34.9630 C.ar  266  CB3266      0.0147
     20  C16       15.2710   13.4180   35.9320 C.ar  266  CB3266      0.0058
     21  C         12.7870   13.0660   36.4630 C.2   266  CB3266      0.2652
     22  O         11.5990   12.8910   36.2160 O.2   266  CB3266     -0.2684
     23  N         13.1550   12.6010   37.6410 N.am  266  CB3266     -0.1918
     24  CA        12.8160   12.1480   38.9520 C.3   266  CB3266      0.1986
     25  CB        12.5660   13.1450   40.1450 C.3   266  CB3266      0.0451
     26  CG        13.8800   13.1780   40.9140 C.3   266  CB3266      0.1164
     27  CD        14.6160   14.4750   40.1030 C.2   266  CB3266      0.3649
     28  OE1       15.8920   13.9440   40.1760 O.co2 266  CB3266     -0.2457
     29  OE2       13.7440   15.5350   39.7550 O.co2 266  CB3266     -0.2457
     30  CT        11.6110   11.1480   38.9190 C.2   266  CB3266      0.3842
     31  O1        10.4580   11.6970   38.7260 O.co2 266  CB3266     -0.2437
     32  O2        12.0660    9.9510   39.1270 O.co2 266  CB3266     -0.2437
     33  CP1       18.4640   13.7440   33.0220 C.3   266  CB3266      0.1695
     34  CP2       18.5970   15.1270   33.7040 C.1   266  CB3266     -0.0557
     35  CP3       18.7370   16.1800   34.1950 C.1   266  CB3266     -0.0124
@<TRIPOS>BOND
     1    11    10    2
     2    11    12    1
     3    10     9    1
     4     1    12    2
     5     1     2    2
     6    12     7    1
     7     9    13    1
     8     9     8    1
     9    13    14    1
    10     3     2    1
    11     2     4    2
    12     7     8    2
    13     7     5    1
    14    14    33    1
    15    14    18    1
    16     4     5    2
    17     5     6    2
    18    33    34    1
    19    17    18   ar
    20    17    16   ar
    21    18    19   ar
    22    34    35    3
    23    16    15   ar
    24    19    20   ar
    25    15    20   ar
    26    15    21    1
    27    22    21    2
    28    21    23   am
    29    23    24    1
    30    31    30   ar
    31    30    24    1
    32    30    32   ar
    33    24    25    1
    34    29    27   ar
    35    27    28   ar
    36    27    26    1
    37    25    26    1
