@<TRIPOS>MOLECULE
2tsc_UMP_A_1.pdb
 20 21 0 0 0
SMALL
GASTEIGER

@<TRIPOS>ATOM
      1  N1        17.3240   20.1550   31.2660 N.am  265  UMP265     -0.2018
      2  C2        18.2980   20.1590   32.2900 C.1   265  UMP265      0.2802
      3  N3        19.1470   19.0960   32.4090 N.2   265  UMP265     -0.2497
      4  C4        19.2210   18.0470   31.5270 C.1   265  UMP265      0.1941
      5  C5        18.2180   18.1630   30.4510 C.3   265  UMP265      0.1579
      6  C6        17.7930   19.5040   30.1100 C.3   265  UMP265      0.1249
      7  O2        18.1560   20.7850   33.2490 O.2   265  UMP265     -0.1922
      8  O4        20.2290   17.3830   31.4150 O.2   265  UMP265     -0.2133
      9  C1'       16.3080   20.9700   31.2040 C.3   265  UMP265      0.2048
     10  C2'       16.4500   22.5960   31.1720 C.3   265  UMP265      0.0871
     11  C3'       15.0850   22.9620   30.5580 C.3   265  UMP265      0.1857
     12  C4'       14.8210   21.8160   29.5540 C.3   265  UMP265      0.1774
     13  O3'       14.0540   23.0120   31.5350 O.3   265  UMP265     -0.2203
     14  O4'       15.2730   20.6350   30.1850 O.3   265  UMP265     -0.3342
     15  C5'       15.1910   21.8800   28.1980 C.3   265  UMP265      0.1858
     16  O5'       14.6300   22.8080   27.4660 O.3   265  UMP265     -0.2675
     17  P         15.1790   23.9080   26.5190 P.3   265  UMP265      0.5327
     18  OP1       14.0520   24.6160   25.8440 O.3   265  UMP265     -0.1145
     19  OP2       16.0210   24.9460   27.3860 O.3   265  UMP265     -0.1145
     20  OP3       16.0700   23.1440   25.4830 O.2   265  UMP265     -0.2224
@<TRIPOS>BOND
     1    20    17    2
     2    18    17    1
     3    17    19    1
     4    17    16    1
     5    16    15    1
     6    15    12    1
     7    12    14    1
     8    12    11    1
     9     6     5    1
    10     6     1    1
    11    14     9    1
    12     5     4    1
    13    11    10    1
    14    11    13    1
    15    10     9    1
    16     9     1    1
    17     1     2   am
    18     8     4    2
    19     4     3    2
    20     2     3    2
    21     2     7    2
