@<TRIPOS>MOLECULE
2tsr_UMP_A_1.pdb
 20 21 0 0 0
SMALL
GASTEIGER

@<TRIPOS>ATOM
      1  N1        33.9640   29.9530    4.6990 N.am  308  UMP308     -0.1790
      2  C2        33.2020   30.8540    5.4310 C.1   308  UMP308      0.2844
      3  N3        32.0690   31.2980    4.7900 N.2   308  UMP308     -0.2452
      4  C4        31.6280   30.9420    3.5250 C.1   308  UMP308      0.2182
      5  C5        32.4600   29.9980    2.8480 C.2   308  UMP308      0.1242
      6  C6        33.5690   29.5490    3.4390 C.2   308  UMP308      0.0928
      7  O2        33.5040   31.2300    6.5590 O.2   308  UMP308     -0.1918
      8  O4        30.6170   31.4720    3.0630 O.2   308  UMP308     -0.2085
      9  C1'       35.2120   29.4420    5.2950 C.3   308  UMP308      0.2090
     10  C2'       35.0210   28.7000    6.6100 C.3   308  UMP308      0.0874
     11  C3'       36.1050   27.6390    6.5770 C.3   308  UMP308      0.1857
     12  C4'       36.2620   27.3320    5.0820 C.3   308  UMP308      0.1774
     13  O3'       37.3380   28.1630    7.0930 O.3   308  UMP308     -0.2203
     14  O4'       35.7650   28.5000    4.3840 O.3   308  UMP308     -0.3339
     15  C5'       35.5170   26.1100    4.6100 C.3   308  UMP308      0.1858
     16  O5'       36.1070   24.9020    5.1640 O.3   308  UMP308     -0.2675
     17  P         35.1760   23.6830    5.7280 P.3   308  UMP308      0.5327
     18  OP1       36.1360   22.5890    6.1630 O.3   308  UMP308     -0.1145
     19  OP2       34.4030   24.2790    6.8880 O.3   308  UMP308     -0.1145
     20  OP3       34.2760   23.2500    4.5850 O.2   308  UMP308     -0.2224
@<TRIPOS>BOND
     1     5     6    2
     2     5     4    1
     3     8     4    2
     4     6     1    1
     5     4     3    2
     6    14    12    1
     7    14     9    1
     8    20    17    2
     9    15    12    1
    10    15    16    1
    11     1     9    1
    12     1     2   am
    13     3     2    2
    14    12    11    1
    15    16    17    1
    16     9    10    1
    17     2     7    2
    18    17    18    1
    19    17    19    1
    20    11    10    1
    21    11    13    1
