@<TRIPOS>MOLECULE
2tsr_D16_A_1.pdb
 32 34 0 0 0
SMALL
GASTEIGER

@<TRIPOS>ATOM
      1  N1        39.1340   30.1890    2.6130 N.2   309  D16309     -0.3420
      2  C2        39.5290   30.4630    3.9750 C.1   309  D16309      0.1269
      3  CM2       40.8200   29.9260    4.5360 C.3   309  D16309      0.1438
      4  N3        38.6750   31.2590    4.7930 N.2   309  D16309     -0.2706
      5  C4        37.4440   31.8000    4.3280 C.1   309  D16309      0.2162
      6  O4        36.7240   32.4780    5.0320 O.2   309  D16309     -0.2085
      7  C4A       37.0770   31.4820    2.8850 C.2   309  D16309      0.1219
      8  C5        35.8940   31.9540    2.2970 C.2   309  D16309     -0.0051
      9  C6        35.5130   31.6780    0.9370 C.3   309  D16309      0.0646
     10  C7        36.4190   30.8610    0.1560 C.2   309  D16309     -0.0177
     11  C8        37.6370   30.3590    0.7200 C.2   309  D16309      0.0296
     12  C8A       37.9400   30.6790    2.0670 C.2   309  D16309      0.1548
     13  C9        34.1590   32.2570    0.3350 C.3   309  D16309      0.1000
     14  N10       33.6280   33.6170    0.9020 N.pl3 309  D16309     -0.3002
     15  C11       35.8940   36.7480    0.0950 C.ar  309  D16309      0.0856
     16  S13       35.7710   35.0630   -0.2660 S.2   309  D16309     -0.0677
     17  C14       34.3880   34.8430    0.7490 C.ar  309  D16309      0.0785
     18  C15       34.1040   36.0420    1.3380 C.ar  309  D16309      0.0219
     19  C16       34.9270   37.1180    0.9620 C.ar  309  D16309      0.0129
     20  C         37.0250   37.5270   -0.5970 C.2   309  D16309      0.2716
     21  O         37.7030   36.9240   -1.4480 O.2   309  D16309     -0.2678
     22  N         37.1470   38.8790   -0.3550 N.am  309  D16309     -0.1868
     23  CA        38.1930   39.6160   -1.1010 C.3   309  D16309      0.2202
     24  CB        37.9850   39.6300   -2.6910 C.2   309  D16309      0.0133
     25  CG        38.8180   38.6710   -3.6730 C.2   309  D16309      0.0838
     26  CD        38.7030   39.0220   -5.2190 C.2   309  D16309      0.3877
     27  OE1       38.9720   38.0970   -6.0100 O.co2 309  D16309     -0.2406
     28  OE2       38.3600   40.1840   -5.5030 O.co2 309  D16309     -0.2406
     29  CT        38.4560   41.0000   -0.3760 C.2   309  D16309      0.3884
     30  O1        38.0770   41.0790    0.8130 O.co2 309  D16309     -0.2434
     31  O2        39.0140   41.8760   -1.0640 O.co2 309  D16309     -0.2434
     32  CP1       32.2070   33.6530    1.2850 C.3   309  D16309      0.1126
@<TRIPOS>BOND
     1    27    26   ar
     2    28    26   ar
     3    26    25    1
     4    25    24    2
     5    24    23    1
     6    21    20    2
     7    23    29    1
     8    23    22    1
     9    31    29   ar
    10    20    22   am
    11    20    15    1
    12    29    30   ar
    13    16    15   ar
    14    16    17   ar
    15    15    19   ar
    16    10    11    2
    17    10     9    1
    18    13    14    1
    19    13     9    1
    20    11    12    1
    21    17    14    1
    22    17    18   ar
    23    14    32    1
    24     9     8    1
    25    19    18   ar
    26    12     1    2
    27    12     7    1
    28     8     7    2
    29     1     2    2
    30     7     5    1
    31     2     3    1
    32     2     4    2
    33     5     4    2
    34     5     6    2
