@<TRIPOS>MOLECULE
2tsy_PLS_B_1.pdb
 22 22 0 0 0
SMALL
GASTEIGER

@<TRIPOS>ATOM
      1  N         81.4770   14.8430   10.3030 N.2   398  PLS398     -0.2610
      2  CA        80.2240   15.5280    9.9690 C.3   398  PLS398      0.2381
      3  CB        79.6990   16.4210   11.0440 C.3   398  PLS398      0.2178
      4  OG        80.2360   17.7460   11.1690 O.3   398  PLS398     -0.2176
      5  C         80.1860   16.3180    8.5960 C.2   398  PLS398      0.3893
      6  O         81.2560   16.6570    7.9700 O.co2 398  PLS398     -0.2434
      7  OXT       79.1390   16.7650    8.1830 O.co2 398  PLS398     -0.2434
      8  N1        85.6810   12.3650   11.8210 N.2   398  PLS398     -0.2505
      9  C2        85.6960   13.2120   10.8180 C.2   398  PLS398      0.0679
     10  C2A       86.8050   13.1740    9.8280 C.3   398  PLS398      0.0499
     11  C3        84.6210   14.1540   10.6690 C.3   398  PLS398      0.1969
     12  O3        84.5250   15.0710    9.6800 O.3   398  PLS398     -0.2163
     13  C4        83.5960   14.1470   11.6650 C.3   398  PLS398      0.0989
     14  C4A       82.2740   14.8450   11.4150 C.2   398  PLS398      0.0742
     15  C5        83.6530   13.2500   12.6900 C.2   398  PLS398      0.0129
     16  C6        84.7410   12.3430   12.7660 C.2   398  PLS398      0.0925
     17  C5A       82.7020   13.3520   13.9250 C.3   398  PLS398      0.1780
     18  O4P       81.5300   12.5910   13.8680 O.3   398  PLS398     -0.2656
     19  P         81.2330   11.2840   14.3380 P.3   398  PLS398      0.5329
     20  O1P       80.0000   11.0710   13.9090 O.2   398  PLS398     -0.2224
     21  O2P       81.0430   11.5710   15.8410 O.3   398  PLS398     -0.1145
     22  O3P       81.8760    9.9790   14.2360 O.3   398  PLS398     -0.1145
@<TRIPOS>BOND
     1     6     5   ar
     2     7     5   ar
     3     5     2    1
     4    12    11    1
     5    10     9    1
     6     2     1    1
     7     2     3    1
     8     1    14    2
     9    11     9    1
    10    11    13    1
    11     9     8    2
    12     3     4    1
    13    14    13    1
    14    13    15    1
    15     8    16    1
    16    15    16    2
    17    15    17    1
    18    18    17    1
    19    18    19    1
    20    20    19    2
    21    22    19    1
    22    19    21    1
