@<TRIPOS>MOLECULE
2tsy_G3P_A_1.pdb
 10 9 0 0 0
SMALL
GASTEIGER

@<TRIPOS>ATOM
      1  O1        49.9330   26.6050   15.7810 O.3   271  G3P271     -0.2175
      2  C1        50.9870   27.7190   15.6470 C.3   271  G3P271      0.2174
      3  C2        51.0560   28.5010   14.7350 C.3   271  G3P271      0.2147
      4  O2        49.7900   29.2530   15.1210 O.3   271  G3P271     -0.2176
      5  C3        51.1400   28.1380   13.1920 C.3   271  G3P271      0.1892
      6  O1P       51.3910   29.5740   12.3610 O.3   271  G3P271     -0.2674
      7  O4P       49.3100   30.0620   10.8120 O.3   271  G3P271     -0.1145
      8  O2P       51.1960   28.3740    9.9690 O.2   271  G3P271     -0.2224
      9  O3P       51.5840   30.6240   10.1300 O.3   271  G3P271     -0.1145
     10  P         50.8200   29.6980   10.8030 P.3   271  G3P271      0.5327
@<TRIPOS>BOND
     1     8    10    2
     2     9    10    1
     3    10     7    1
     4    10     6    1
     5     6     5    1
     6     5     3    1
     7     3     4    1
     8     3     2    1
     9     2     1    1
