@<TRIPOS>MOLECULE
2tys_PLT_B_1.pdb
 30 32 0 0 0
SMALL
GASTEIGER

@<TRIPOS>ATOM
      1  N1        86.1550   13.5300   12.0240 N.ar  399  PLT399     -0.2452
      2  C2        85.9480   14.1530   10.8670 C.ar  399  PLT399      0.0981
      3  C2A       86.9670   14.1550    9.7880 C.3   399  PLT399      0.0555
      4  C3        84.7180   14.8120   10.6880 C.ar  399  PLT399      0.2103
      5  O3        84.4000   15.4370    9.5770 O.3   399  PLT399     -0.2853
      6  C4        83.8060   14.8130   11.7490 C.ar  399  PLT399      0.0587
      7  C4A       82.4930   15.5110   11.5330 C.2   399  PLT399      0.0967
      8  C5        84.0550   14.1480   12.9200 C.ar  399  PLT399      0.0316
      9  C6        85.2800   13.4970   13.0600 C.ar  399  PLT399      0.0968
     10  C5A       83.0810   14.1470   14.0690 C.3   399  PLT399      0.1819
     11  O4P       81.8260   13.4770   13.7360 O.3   399  PLT399     -0.2653
     12  P         81.2520   12.2610   14.4590 P.3   399  PLT399      0.5329
     13  O1P       79.9610   12.0720   13.8930 O.2   399  PLT399     -0.2224
     14  O2P       81.1180   12.6820   15.9710 O.3   399  PLT399     -0.1145
     15  O3P       82.0580   11.0320   14.2940 O.3   399  PLT399     -0.1145
     16  N         81.7670   15.4490   10.3500 N.2   399  PLT399     -0.2589
     17  CA        80.4640   16.0570   10.1320 C.3   399  PLT399      0.2100
     18  C         80.5510   17.3620    9.3850 C.2   399  PLT399      0.3869
     19  O         80.6760   17.3290    8.0780 O.co2 399  PLT399     -0.2435
     20  OXT       80.5310   18.5080    9.9750 O.co2 399  PLT399     -0.2435
     21  CB        79.6970   16.1890   11.4310 C.3   399  PLT399      0.0639
     22  CG        78.1850   16.3540   11.3150 C.2   399  PLT399      0.0006
     23  CD1       77.4220   16.3760   10.2140 C.2   399  PLT399      0.0943
     24  NE1       76.0670   16.5650   10.6420 N.2   399  PLT399     -0.2482
     25  CE2       76.0440   16.6410   11.9520 C.2   399  PLT399      0.0631
     26  CZ2       74.9680   16.8050   12.7580 C.3   399  PLT399      0.0717
     27  CH2       75.1860   16.8690   14.1280 C.2   399  PLT399     -0.0198
     28  CZ3       76.4290   16.7450   14.6490 C.2   399  PLT399     -0.0042
     29  CE3       77.5600   16.5590   13.8230 C.2   399  PLT399      0.0006
     30  CD2       77.3390   16.5130   12.4410 C.2   399  PLT399      0.0115
@<TRIPOS>BOND
     1    19    18   ar
     2    18    20   ar
     3    18    17    1
     4     5     4    1
     5     3     2    1
     6    17    16    1
     7    17    21    1
     8    23    24    1
     9    23    22    2
    10    16     7    2
    11    24    25    2
    12     4     2   ar
    13     4     6   ar
    14     2     1   ar
    15    22    21    1
    16    22    30    1
    17     7     6    1
    18     6     8   ar
    19    25    30    1
    20    25    26    1
    21     1     9   ar
    22    30    29    2
    23    26    27    1
    24     8     9   ar
    25     8    10    1
    26    11    10    1
    27    11    12    1
    28    29    28    1
    29    13    12    2
    30    27    28    2
    31    15    12    1
    32    12    14    1
