@<TRIPOS>MOLECULE
2uag_ADP_A_1.pdb
 27 29 0 0 0
SMALL
GASTEIGER

@<TRIPOS>ATOM
      1  PB        35.1410   -8.0780   21.0250 P.3   451  ADP451      0.5373
      2  O1B       35.6570   -7.2040   22.0660 O.3   451  ADP451     -0.1143
      3  O2B       35.7280   -9.3610   21.0730 O.3   451  ADP451     -0.1143
      4  O3B       35.1250   -7.5580   19.6440 O.2   451  ADP451     -0.2221
      5  PA        32.3550   -7.4420   21.7830 P.3   451  ADP451      0.2231
      6  O1A       32.6660   -6.0230   21.5970 O.2   451  ADP451     -0.5169
      7  O2A       31.8290   -7.6820   23.1220 O.3   451  ADP451     -0.4370
      8  O3A       33.5810   -8.4420   21.4300 O.3   451  ADP451     -0.2261
      9  O5'       31.2760   -7.8700   20.6450 O.3   451  ADP451     -0.3111
     10  C5'       31.6190   -7.6760   19.2350 C.3   451  ADP451      0.1813
     11  C4'       30.6480   -8.5010   18.3810 C.3   451  ADP451      0.1821
     12  O4'       30.5580   -9.8000   18.9610 O.3   451  ADP451     -0.3135
     13  C3'       29.3060   -7.7800   18.4990 C.3   451  ADP451      0.2184
     14  O3'       28.6470   -7.8840   17.2250 O.3   451  ADP451     -0.2174
     15  C2'       28.4970   -8.7360   19.4690 C.3   451  ADP451      0.2570
     16  O2'       27.0770   -8.8560   19.3480 O.3   451  ADP451     -0.2130
     17  C1'       29.1600  -10.0990   19.1800 C.3   451  ADP451      0.3186
     18  N9        29.1950  -11.1810   20.1830 N.pl3 451  ADP451     -0.1439
     19  C8        29.3840  -10.9980   21.5370 C.3   451  ADP451      0.3377
     20  N7        29.7300  -12.0740   22.2110 N.2   451  ADP451     -0.2095
     21  C5        29.7810  -13.0340   21.2100 C.2   451  ADP451      0.2526
     22  C6        30.1110  -14.4420   21.2590 C.2   451  ADP451      0.4393
     23  N6        30.4440  -15.0340   22.4180 N.pl3 451  ADP451      0.2180
     24  N1        30.0570  -15.0670   20.0700 N.2   451  ADP451      0.0021
     25  C2        29.7220  -14.4600   18.8970 C.3   451  ADP451      0.5254
     26  N3        29.4100  -13.1510   18.7730 N.2   451  ADP451     -0.0055
     27  C4        29.4590  -12.5080   19.9670 C.2   451  ADP451      0.3518
@<TRIPOS>BOND
     1    14    13    1
     2    11    13    1
     3    11    12    1
     4    11    10    1
     5    13    15    1
     6    26    25    1
     7    26    27    2
     8    25    24    1
     9    12    17    1
    10    17    15    1
    11    17    18    1
    12    10     9    1
    13    16    15    1
    14     4     1    2
    15    27    18    1
    16    27    21    1
    17    24    22    2
    18    18    19    1
    19     9     5    1
    20     1     3    1
    21     1     8    1
    22     1     2    1
    23    21    22    1
    24    21    20    2
    25    22    23    1
    26     8     5    1
    27    19    20    1
    28     6     5    2
    29     5     7    1
