@<TRIPOS>MOLECULE
2uag_UMA_A_1.pdb
 49 51 0 0 0
SMALL
GASTEIGER

@<TRIPOS>ATOM
      1  N1        49.3950    1.8260   11.6390 N.am  450  UMA450     -0.1766
      2  C2        50.1320    2.1800   10.5120 C.1   450  UMA450      0.2845
      3  N3        51.4710    2.3650   10.7240 N.2   450  UMA450     -0.2452
      4  C4        52.1170    2.2870   11.9320 C.1   450  UMA450      0.2182
      5  C5        51.3000    1.9290   13.0710 C.2   450  UMA450      0.1242
      6  C6        49.9860    1.6830   12.8920 C.2   450  UMA450      0.0929
      7  O2        49.6320    2.3530    9.4030 O.2   450  UMA450     -0.1918
      8  O4        53.3190    2.4980   11.9480 O.2   450  UMA450     -0.2085
      9  C1B       47.9560    1.8270   11.4280 C.3   450  UMA450      0.2401
     10  C2B       47.4460    0.4480   11.0650 C.3   450  UMA450      0.2319
     11  O2'       46.4260    0.7170   10.0180 O.3   450  UMA450     -0.2157
     12  C3B       46.7070    0.0960   12.3340 C.3   450  UMA450      0.2158
     13  C4B       46.1800    1.4070   12.8770 C.3   450  UMA450      0.1799
     14  O4B       47.2550    2.3190   12.5550 O.3   450  UMA450     -0.3320
     15  O3B       45.5250   -0.6000   12.0030 O.3   450  UMA450     -0.2175
     16  C5B       45.9860    1.3220   14.3890 C.3   450  UMA450      0.1813
     17  O5B       47.1410    0.7170   14.9870 O.3   450  UMA450     -0.3112
     18  PA        47.6850    1.1370   16.3880 P.3   450  UMA450      0.2189
     19  O1A       48.4350   -0.0300   16.8810 O.3   450  UMA450     -0.4371
     20  O2A       48.3360    2.4460   16.3690 O.2   450  UMA450     -0.5170
     21  O3A       46.3100    1.2770   17.2320 O.3   450  UMA450     -0.2703
     22  PB        45.9800    2.1110   18.5470 P.3   450  UMA450      0.2208
     23  O1B       45.3550    3.3980   18.1730 O.2   450  UMA450     -0.5170
     24  O2B       47.1310    2.0570   19.4840 O.3   450  UMA450     -0.4371
     25  O1'       44.8040    1.1730   19.1510 O.3   450  UMA450     -0.2864
     26  C1'       45.1770   -0.1460   19.5870 C.3   450  UMA450      0.2632
     27  C2'       44.1080   -1.1500   19.1760 C.3   450  UMA450      0.1813
     28  N2'       44.0070   -1.2000   17.7250 N.am  450  UMA450     -0.1994
     29  C7'       44.6050   -2.1800   17.0500 C.2   450  UMA450      0.2420
     30  O7'       45.1060   -3.1650   17.6060 O.2   450  UMA450     -0.2733
     31  C8'       44.5860   -2.0950   15.5400 C.3   450  UMA450      0.0964
     32  C3'       42.7900   -0.7230   19.8330 C.3   450  UMA450      0.1733
     33  O3'       41.7450   -1.6680   19.5260 O.3   450  UMA450     -0.3449
     34  C4'       42.9780   -0.7060   21.3450 C.3   450  UMA450      0.2103
     35  O4'       41.7710   -0.3120   21.9750 O.3   450  UMA450     -0.2178
     36  C5'       44.0890    0.2540   21.7110 C.3   450  UMA450      0.1833
     37  O5'       45.3170   -0.1320   21.0160 O.3   450  UMA450     -0.3260
     38  C6'       44.4120    0.2430   23.1980 C.3   450  UMA450      0.2142
     39  O6'       44.9660   -1.0090   23.5870 O.3   450  UMA450     -0.2176
     40  C18       40.7220   -1.5730   18.5010 C.3   450  UMA450      0.1926
     41  C19       40.8240   -2.5600   17.3740 C.2   450  UMA450      0.2690
     42  O18       40.3280   -2.3290   16.2660 O.2   450  UMA450     -0.2707
     43  C20       39.3820   -1.1060   19.0410 C.3   450  UMA450      0.0421
     44  N4        41.4810   -3.6730   17.6900 N.am  450  UMA450     -0.1936
     45  C21       41.4660   -4.8810   16.8690 C.3   450  UMA450      0.1979
     46  C22       40.2680   -5.8140   17.1260 C.2   450  UMA450      0.3842
     47  O19       39.5730   -5.6300   18.1630 O.co2 450  UMA450     -0.2437
     48  O20       40.0710   -6.7730   16.3370 O.co2 450  UMA450     -0.2437
     49  C23       42.7760   -5.6370   17.0240 C.3   450  UMA450      0.0356
@<TRIPOS>BOND
     1     7     2    2
     2    11    10    1
     3     2     3    2
     4     2     1   am
     5     3     4    2
     6    10     9    1
     7    10    12    1
     8     9     1    1
     9     9    14    1
    10     1     6    1
    11     4     8    2
    12     4     5    1
    13    15    12    1
    14    12    13    1
    15    14    13    1
    16    13    16    1
    17     6     5    2
    18    16    17    1
    19    17    18    1
    20    31    29    1
    21    42    41    2
    22    48    46   ar
    23    20    18    2
    24    18    19    1
    25    18    21    1
    26    45    49    1
    27    45    46    1
    28    45    44    1
    29    29    30    2
    30    29    28   am
    31    46    47   ar
    32    21    22    1
    33    41    44   am
    34    41    40    1
    35    28    27    1
    36    23    22    2
    37    40    43    1
    38    40    33    1
    39    22    25    1
    40    22    24    1
    41    25    26    1
    42    27    26    1
    43    27    32    1
    44    33    32    1
    45    26    37    1
    46    32    34    1
    47    37    36    1
    48    34    36    1
    49    34    35    1
    50    36    38    1
    51    38    39    1
