@<TRIPOS>MOLECULE
2udp_UPP_A_1.pdb
 31 33 0 0 0
SMALL
GASTEIGER

@<TRIPOS>ATOM
      1  N1        21.6680   59.2570    9.7420 N.am  341  UPP341     -0.1766
      2  C2        22.9130   59.7900    9.9690 C.1   341  UPP341      0.2845
      3  N3        23.6090   59.1680   10.9750 N.2   341  UPP341     -0.2452
      4  C4        23.3000   57.9870   11.6430 C.1   341  UPP341      0.2182
      5  C5        22.0540   57.4480   11.2340 C.2   341  UPP341      0.1242
      6  C6        21.2990   58.0820   10.3650 C.2   341  UPP341      0.0929
      7  O2        23.3790   60.7230    9.3260 O.2   341  UPP341     -0.1918
      8  O4        24.0840   57.4900   12.4400 O.2   341  UPP341     -0.2085
      9  C1B       20.7310   59.8830    8.7620 C.3   341  UPP341      0.2401
     10  C2B       20.2580   58.9370    7.6660 C.3   341  UPP341      0.2319
     11  O2'       21.2110   58.8520    6.5820 O.3   341  UPP341     -0.2157
     12  C3B       18.9470   59.5850    7.1820 C.3   341  UPP341      0.2158
     13  C4B       18.3890   60.1190    8.5070 C.3   341  UPP341      0.1799
     14  O4'       19.5500   60.3960    9.3580 O.3   341  UPP341     -0.3320
     15  O3'       19.1740   60.6200    6.2120 O.3   341  UPP341     -0.2175
     16  C5B       17.4060   59.1940    9.2000 C.3   341  UPP341      0.1813
     17  O5'       17.9790   57.8630    9.1670 O.3   341  UPP341     -0.3112
     18  PA        17.5500   56.7050   10.1990 P.3   341  UPP341      0.2197
     19  O1A       18.4180   55.5060   10.0940 O.2   341  UPP341     -0.5170
     20  O2A       17.4790   57.2120   11.5880 O.3   341  UPP341     -0.4371
     21  O3A       16.0340   56.2970    9.6930 O.3   341  UPP341     -0.2612
     22  PB        15.3790   55.8540    8.3280 P.3   341  UPP341      0.2746
     23  O1B       15.2590   57.2880    7.6370 O.3   341  UPP341     -0.4272
     24  O2B       16.2330   54.9410    7.5150 O.2   341  UPP341     -0.5080
     25  O3B       14.0020   55.2530    8.5190 O.3   341  UPP341     -0.4398
     26  C1'       13.8310   53.9620    9.2510 C.ar  341  UPP341      0.1446
     27  C2'       13.4990   54.0120   10.6260 C.ar  341  UPP341      0.0373
     28  C3'       13.3170   52.8110   11.3520 C.ar  341  UPP341      0.0031
     29  C4'       13.4320   51.5600   10.7000 C.ar  341  UPP341      0.0002
     30  C5'       13.7110   51.5140    9.3150 C.ar  341  UPP341      0.0031
     31  C6'       13.8590   52.7150    8.5790 C.ar  341  UPP341      0.0373
@<TRIPOS>BOND
     1    15    12    1
     2    11    10    1
     3    12    10    1
     4    12    13    1
     5    24    22    2
     6    23    22    1
     7    10     9    1
     8    22    25    1
     9    22    21    1
    10    13    16    1
    11    13    14    1
    12    25    26    1
    13    31    26   ar
    14    31    30   ar
    15     9    14    1
    16     9     1    1
    17    17    16    1
    18    17    18    1
    19    26    27   ar
    20    30    29   ar
    21     7     2    2
    22    21    18    1
    23     1     2   am
    24     1     6    1
    25     2     3    2
    26    19    18    2
    27    18    20    1
    28     6     5    2
    29    27    28   ar
    30    29    28   ar
    31     3     4    2
    32     5     4    1
    33     4     8    2
