@<TRIPOS>MOLECULE
2udp_NAD_A_1.pdb
 44 48 0 0 0
SMALL
GASTEIGER

@<TRIPOS>ATOM
      1  PA        11.3590   47.5460   18.7140 P.3   340  NAD340      0.2189
      2  O1A       12.4280   46.6000   18.3890 O.2   340  NAD340     -0.5170
      3  O2A       11.7020   48.3830   19.8890 O.3   340  NAD340     -0.4371
      4  O5B        9.9450   46.8410   18.9580 O.3   340  NAD340     -0.3112
      5  C5B        9.7340   45.5230   18.4970 C.3   340  NAD340      0.1813
      6  C4B        9.4660   44.6110   19.6550 C.3   340  NAD340      0.1821
      7  O4B        9.2140   43.3560   18.9920 O.3   340  NAD340     -0.3135
      8  C3B       10.6470   44.3360   20.6220 C.3   340  NAD340      0.2184
      9  O3B       10.2230   44.4120   21.9830 O.3   340  NAD340     -0.2174
     10  C2B       11.1250   42.9530   20.1810 C.3   340  NAD340      0.2570
     11  O2B       11.5790   42.2000   21.3080 O.3   340  NAD340     -0.2130
     12  C1B        9.8370   42.3240   19.6580 C.3   340  NAD340      0.3186
     13  N9A        9.9700   41.2080   18.7140 N.pl3 340  NAD340     -0.1439
     14  C8A       10.7290   41.1390   17.5790 C.3   340  NAD340      0.3377
     15  N7A       10.6230   39.9450   16.9770 N.2   340  NAD340     -0.2095
     16  C5A        9.6140   39.2800   17.6700 C.2   340  NAD340      0.2526
     17  C6A        9.0910   37.9530   17.5740 C.2   340  NAD340      0.4393
     18  N6A        9.3100   37.0350   16.6260 N.pl3 340  NAD340      0.2180
     19  N1A        8.1710   37.5430   18.4900 N.2   340  NAD340      0.0021
     20  C2A        7.8810   38.4190   19.5160 C.3   340  NAD340      0.5254
     21  N3A        8.2940   39.6380   19.6780 N.2   340  NAD340     -0.0055
     22  C4A        9.2460   40.0080   18.7720 C.2   340  NAD340      0.3518
     23  O3        10.9320   48.3880   17.4720 O.3   340  NAD340     -0.2703
     24  PN         9.9340   49.6500   17.3120 P.3   340  NAD340      0.2189
     25  O1N       10.6860   50.9030   17.0660 O.2   340  NAD340     -0.5170
     26  O2N        9.0780   49.7360   18.5180 O.3   340  NAD340     -0.4371
     27  O5D        9.0750   49.2030   16.0180 O.3   340  NAD340     -0.3112
     28  C5D        7.9290   48.3560   16.1920 C.3   340  NAD340      0.1813
     29  C4D        7.4170   48.0980   14.8090 C.3   340  NAD340      0.1799
     30  O4D        7.4210   49.3820   14.1420 O.3   340  NAD340     -0.3327
     31  C3D        8.2570   47.1490   13.9790 C.3   340  NAD340      0.2158
     32  O3D        7.4520   46.3240   13.1340 O.3   340  NAD340     -0.2175
     33  C2D        9.0900   48.1420   13.1300 C.3   340  NAD340      0.2309
     34  O2D        9.4200   47.5600   11.8680 O.3   340  NAD340     -0.2158
     35  C1D        8.1220   49.2590   12.9180 C.3   340  NAD340      0.2263
     36  N1N        8.7180   50.5370   12.4850 N.pl3 340  NAD340     -0.2787
     37  C2N        8.4540   50.8820   11.1930 C.3   340  NAD340      0.1244
     38  C3N        9.1150   52.0390   10.6680 C.2   340  NAD340      0.0544
     39  C7N        9.7170   52.1860    9.2730 C.2   340  NAD340      0.2818
     40  O7N       10.0150   51.2340    8.5920 O.2   340  NAD340     -0.2670
     41  N7N        9.8630   53.4750    8.8480 N.am  340  NAD340     -0.0839
     42  C4N        9.9790   52.8050   11.5090 C.2   340  NAD340      0.0033
     43  C5N       10.2280   52.4150   12.8410 C.2   340  NAD340      0.0157
     44  C6N        9.5810   51.2750   13.3400 C.2   340  NAD340      0.0633
@<TRIPOS>BOND
     1    40    39    2
     2    41    39   am
     3    39    38    1
     4    38    37    1
     5    38    42    2
     6    37    36    1
     7    42    43    1
     8    34    33    1
     9    36    35    1
    10    36    44    1
    11    43    44    2
    12    35    33    1
    13    35    30    1
    14    33    31    1
    15    32    31    1
    16    31    29    1
    17    30    29    1
    18    29    28    1
    19    27    28    1
    20    27    24    1
    21    18    17    1
    22    15    14    1
    23    15    16    2
    24    25    24    2
    25    24    23    1
    26    24    26    1
    27    23     1    1
    28    17    16    1
    29    17    19    2
    30    14    13    1
    31    16    22    1
    32     2     1    2
    33    19    20    1
    34     5     4    1
    35     5     6    1
    36     1     4    1
    37     1     3    1
    38    13    22    1
    39    13    12    1
    40    22    21    2
    41     7     6    1
    42     7    12    1
    43    20    21    1
    44     6     8    1
    45    12    10    1
    46    10     8    1
    47    10    11    1
    48     8     9    1
