@<TRIPOS>MOLECULE
2ukd_C5P_A_1.pdb
 21 22 0 0 0
SMALL
GASTEIGER

@<TRIPOS>ATOM
      1  O3P       37.8480   70.3920  -15.1190 O.2   196  C5P196     -0.2224
      2  P         39.0720   71.1950  -14.6900 P.3   196  C5P196      0.5327
      3  O1P       38.9010   71.6260  -13.3080 O.3   196  C5P196     -0.1145
      4  O2P       40.2280   70.4060  -14.9720 O.3   196  C5P196     -0.1145
      5  O5'       39.0590   72.5020  -15.5970 O.3   196  C5P196     -0.2675
      6  C5'       37.9490   73.4540  -15.5960 C.3   196  C5P196      0.1859
      7  C4'       37.9050   74.2580  -16.9110 C.3   196  C5P196      0.1801
      8  O4'       39.1120   75.0130  -16.9630 O.3   196  C5P196     -0.3320
      9  C3'       38.0240   73.4200  -18.1570 C.3   196  C5P196      0.2158
     10  O3'       36.8240   72.8160  -18.5010 O.3   196  C5P196     -0.2175
     11  C2'       38.3940   74.5190  -19.1180 C.3   196  C5P196      0.2319
     12  O2'       37.2830   75.3680  -19.4160 O.3   196  C5P196     -0.2157
     13  C1'       39.4930   75.2130  -18.3180 C.3   196  C5P196      0.2400
     14  N1        40.7990   74.6000  -18.5910 N.am  196  C5P196     -0.1778
     15  C2        41.6140   75.1390  -19.5900 C.1   196  C5P196      0.2756
     16  N3        42.8550   74.6740  -19.8410 N.2   196  C5P196     -0.3024
     17  C4        43.3590   73.6270  -19.1680 C.2   196  C5P196      0.2346
     18  C5        42.6420   73.1810  -18.1400 C.2   196  C5P196      0.0687
     19  C6        41.4680   73.6320  -17.7800 C.2   196  C5P196      0.0836
     20  O2        41.1200   76.1420  -20.3490 O.2   196  C5P196     -0.1925
     21  N4        44.5300   73.1020  -19.4990 N.pl3 196  C5P196     -0.0921
@<TRIPOS>BOND
     1    20    15    2
     2    16    15    2
     3    16    17    2
     4    15    14   am
     5    21    17    1
     6    12    11    1
     7    17    18    1
     8    11    13    1
     9    11     9    1
    10    14    13    1
    11    14    19    1
    12    10     9    1
    13    13     8    1
    14     9     7    1
    15    18    19    2
    16     8     7    1
    17     7     6    1
    18     5     6    1
    19     5     2    1
    20     1     2    2
    21     4     2    1
    22     2     3    1
