@<TRIPOS>MOLECULE
2ukd_ADP_A_1.pdb
 27 29 0 0 0
SMALL
GASTEIGER

@<TRIPOS>ATOM
      1  PB        38.3010   65.6230  -11.8370 P.3   195  ADP195      0.5373
      2  O1B       38.7790   64.5910  -12.7370 O.2   195  ADP195     -0.2221
      3  O2B       39.3090   66.5050  -11.3080 O.3   195  ADP195     -0.1143
      4  O3B       37.2130   66.5000  -12.5510 O.3   195  ADP195     -0.1143
      5  PA        37.5220   65.0210   -9.0290 P.3   195  ADP195      0.2231
      6  O1A       38.7300   64.4400   -8.5100 O.3   195  ADP195     -0.4370
      7  O2A       37.2560   66.4010   -8.6580 O.2   195  ADP195     -0.5169
      8  O3A       37.5580   64.9330  -10.6270 O.3   195  ADP195     -0.2261
      9  O5'       36.2980   64.1220   -8.5970 O.3   195  ADP195     -0.3111
     10  C5'       34.9370   64.3200   -9.0820 C.3   195  ADP195      0.1813
     11  C4'       33.9100   63.8390   -8.0160 C.3   195  ADP195      0.1821
     12  O4'       33.9530   62.4120   -8.0530 O.3   195  ADP195     -0.3135
     13  C3'       34.2080   64.3220   -6.5900 C.3   195  ADP195      0.2184
     14  O3'       33.0480   64.5640   -5.8730 O.3   195  ADP195     -0.2174
     15  C2'       34.8850   63.1040   -6.0670 C.3   195  ADP195      0.2570
     16  O2'       34.7380   63.0410   -4.6720 O.3   195  ADP195     -0.2130
     17  C1'       34.1550   61.9440   -6.7520 C.3   195  ADP195      0.3186
     18  N9        34.9870   60.7770   -6.9510 N.pl3 195  ADP195     -0.1439
     19  C8        36.2830   60.7050   -7.4290 C.3   195  ADP195      0.3377
     20  N7        36.6790   59.5230   -7.7090 N.2   195  ADP195     -0.2095
     21  C5        35.6170   58.7440   -7.3590 C.2   195  ADP195      0.2526
     22  C6        35.4450   57.3610   -7.4230 C.2   195  ADP195      0.4393
     23  N6        36.4740   56.4810   -7.7040 N.pl3 195  ADP195      0.2180
     24  N1        34.2110   56.8740   -7.1100 N.2   195  ADP195      0.0021
     25  C2        33.2610   57.7600   -6.7230 C.3   195  ADP195      0.5254
     26  N3        33.4050   59.0650   -6.4990 N.2   195  ADP195     -0.0055
     27  C4        34.5900   59.4970   -6.8870 C.2   195  ADP195      0.3518
@<TRIPOS>BOND
     1     2     1    2
     2     4     1    1
     3     1     3    1
     4     1     8    1
     5     8     5    1
     6    10     9    1
     7    10    11    1
     8     5     7    2
     9     5     9    1
    10     5     6    1
    11    12    11    1
    12    12    17    1
    13    11    13    1
    14    20    19    1
    15    20    21    2
    16    23    22    1
    17    19    18    1
    18    22    21    1
    19    22    24    2
    20    21    27    1
    21    24    25    1
    22    18    27    1
    23    18    17    1
    24    27    26    2
    25    17    15    1
    26    25    26    1
    27    13    15    1
    28    13    14    1
    29    15    16    1
