@<TRIPOS>MOLECULE
2upj_U02_A_1.pdb
 41 44 0 0 0
SMALL
GASTEIGER

@<TRIPOS>ATOM
      1  CZ8        4.0140   25.4800    1.3280 C.3   100  U02100      0.0437
      2  CZ7        5.3230   24.0290    2.8610 C.3   100  U02100      0.0437
      3  CZ6        6.4610   25.1010    0.9090 C.3   100  U02100      0.0437
      4  CZ5        5.3820   25.2890    1.9860 C.3   100  U02100      0.1379
      5  OZ5        5.7870   26.4810    2.6900 O.3   100  U02100     -0.4408
      6  CZ4        5.1160   26.8180    3.8620 C.2   100  U02100      0.4209
      7  OZ4        4.1610   26.1280    4.2490 O.2   100  U02100     -0.2246
      8  NZ3        5.5360   27.9080    4.4860 N.am  100  U02100     -0.1682
      9  CZ3        5.0140   28.2630    5.8170 C.3   100  U02100      0.1283
     10  CZ2        5.9780   28.9610    6.7900 C.3   100  U02100      0.1107
     11  CZ1        7.3950   28.4150    6.7650 C.2   100  U02100      0.2474
     12  OZ1        8.3630   29.1260    6.4950 O.2   100  U02100     -0.2729
     13  NZ1        7.5380   27.1250    7.0150 N.am  100  U02100     -0.1792
     14  CB5        8.8640   26.6390    6.9340 C.ar  100  U02100      0.0731
     15  CB4        9.7160   26.9400    7.9910 C.ar  100  U02100      0.0166
     16  CB3       11.0270   26.4770    8.0040 C.ar  100  U02100      0.0010
     17  CB2       11.4940   25.6990    6.9530 C.ar  100  U02100     -0.0042
     18  CB1       10.6620   25.4080    5.8760 C.ar  100  U02100     -0.0206
     19  CB6        9.3270   25.8440    5.8740 C.ar  100  U02100      0.0123
     20  CG1       11.3190   24.6560    4.7140 C.3   100  U02100      0.0358
     21  CG2       10.2740   23.9690    3.8860 C.3   100  U02100      0.0047
     22  CG3       10.3680   23.7310    2.3980 C.3   100  U02100      0.0003
     23  CG4        9.2720   24.6160    2.9590 C.3   100  U02100      0.0003
     24  CA        12.4910   23.7470    5.1550 C.3   100  U02100      0.1380
     25  CA2       12.1290   22.5830    5.8630 C.2   100  U02100      0.3238
     26  OA2       11.0030   22.1540    5.9050 O.2   100  U02100     -0.2496
     27  OA3       13.0740   21.7400    6.2300 O.3   100  U02100     -0.4287
     28  CA4       14.3780   21.9500    5.9520 C.2   100  U02100      0.1240
     29  CA5       14.8180   23.1090    5.3040 C.2   100  U02100      0.0397
     30  CA6       13.8540   24.0260    4.8810 C.3   100  U02100      0.1875
     31  OA6       14.3710   25.2190    4.4690 O.3   100  U02100     -0.2176
     32  CD        15.3440   20.8500    6.0810 C.3   100  U02100      0.0616
     33  CD1       16.5300   21.2650    6.9660 C.3   100  U02100      0.0079
     34  CD2       16.0620   22.0760    8.1950 C.3   100  U02100      0.0005
     35  CE        15.6310   20.4160    4.6300 C.3   100  U02100      0.0339
     36  CE1       16.8180   19.5060    4.3900 C.ar  100  U02100     -0.0218
     37  CE2       17.1050   19.1090    3.0910 C.ar  100  U02100     -0.0043
     38  CE3       18.2020   18.2940    2.8400 C.ar  100  U02100     -0.0003
     39  CE4       19.0090   17.8650    3.8860 C.ar  100  U02100     -0.0000
     40  CE5       18.7070   18.2570    5.1840 C.ar  100  U02100     -0.0003
     41  CE6       17.6110   19.0730    5.4380 C.ar  100  U02100     -0.0043
@<TRIPOS>BOND
     1     3     4    1
     2     1     4    1
     3     4     5    1
     4     4     2    1
     5    22    23    1
     6    22    21    1
     7     5     6    1
     8    38    37   ar
     9    38    39   ar
    10    23    21    1
    11    37    36   ar
    12     6     7    2
    13     6     8   am
    14    21    20    1
    15    39    40   ar
    16    36    35    1
    17    36    41   ar
    18    31    30    1
    19     8     9    1
    20    35    32    1
    21    20    24    1
    22    20    18    1
    23    30    24    1
    24    30    29    1
    25    24    25    1
    26    40    41   ar
    27    29    28    2
    28     9    10    1
    29    25    26    2
    30    25    27    1
    31    19    18   ar
    32    19    14   ar
    33    18    17   ar
    34    28    32    1
    35    28    27    1
    36    32    33    1
    37    12    11    2
    38    11    10    1
    39    11    13   am
    40    14    13    1
    41    14    15   ar
    42    17    16   ar
    43    33    34    1
    44    15    16   ar
