@<TRIPOS>MOLECULE
2usn_IN8_A_1.pdb
 28 30 0 0 0
SMALL
GASTEIGER

@<TRIPOS>ATOM
      1  C1        29.5350   45.6860   47.8140 C.2   300  IN8300      0.2156
      2  C2        30.9930   47.5770   48.1550 C.1   300  IN8300      0.0441
      3  C3        27.2250   44.9310   48.4900 C.2   300  IN8300      0.2494
      4  C7        26.7170   44.1230   44.6680 C.ar  300  IN8300     -0.0026
      5  C8        26.5710   45.0420   43.6710 C.ar  300  IN8300     -0.0003
      6  C9        25.9120   46.2050   43.9200 C.ar  300  IN8300     -0.0000
      7  C10       25.2900   46.3920   45.1150 C.ar  300  IN8300     -0.0003
      8  C11       25.3960   45.4530   46.0910 C.ar  300  IN8300     -0.0026
      9  C12       25.0450   41.1560   47.4640 C.2   300  IN8300      0.4217
     10  C13       23.8870   39.2030   47.8560 C.3   300  IN8300      0.2368
     11  C14       22.3150   39.0760   51.7930 C.ar  300  IN8300     -0.0000
     12  C15       21.9770   40.0940   50.9490 C.ar  300  IN8300     -0.0002
     13  C16       22.4810   40.1390   49.6670 C.ar  300  IN8300     -0.0007
     14  C19       23.1560   38.0900   51.3370 C.ar  300  IN8300     -0.0002
     15  S1        29.3870   47.2050   48.7000 S.3   300  IN8300      0.0125
     16  N1        30.6270   45.5220   47.1740 N.2   300  IN8300     -0.1150
     17  N2        31.4840   46.5900   47.3960 N.2   300  IN8300     -0.0966
     18  N3        28.4300   44.7640   47.8390 N.am  300  IN8300     -0.1523
     19  S2        31.9500   49.0240   48.5730 S.2   300  IN8300      0.0199
     20  O1        26.9670   46.0870   49.2150 O.2   300  IN8300     -0.2729
     21  C4        26.1880   43.8090   48.3620 C.3   300  IN8300      0.1134
     22  C5        26.2330   43.2470   46.9260 C.3   300  IN8300      0.1300
     23  C6        26.1450   44.3150   45.8960 C.ar  300  IN8300     -0.0020
     24  O2        23.8090   40.4970   47.3530 O.3   300  IN8300     -0.4285
     25  O3        26.0150   40.7130   48.1080 O.2   300  IN8300     -0.2245
     26  N4        25.0960   42.3480   46.8300 N.am  300  IN8300     -0.1655
     27  C17       23.3440   39.1880   49.2460 C.ar  300  IN8300      0.0213
     28  C18       23.6690   38.1570   50.0620 C.ar  300  IN8300     -0.0007
@<TRIPOS>BOND
     1     5     6   ar
     2     5     4   ar
     3     6     7   ar
     4     4    23   ar
     5     7     8   ar
     6    23     8   ar
     7    23    22    1
     8    26    22    1
     9    26     9   am
    10    22    21    1
    11    16    17    1
    12    16     1    2
    13    24     9    1
    14    24    10    1
    15    17     2    2
    16     9    25    2
    17     1    18    1
    18     1    15    1
    19    18     3   am
    20    10    27    1
    21     2    19    2
    22     2    15    1
    23    21     3    1
    24     3    20    2
    25    27    13   ar
    26    27    28   ar
    27    13    12   ar
    28    28    14   ar
    29    12    11   ar
    30    14    11   ar
