@<TRIPOS>MOLECULE
2uud_PHX_H_1.pdb
 20 21 0 0 0
SMALL
GASTEIGER

@<TRIPOS>ATOM
      1  CAC       61.5520   10.1340   -0.1910 C.ar  1114  PHX1114     0.0058
      2  CAB       62.0040    9.0880    0.9180 C.ar  1114  PHX1114     0.0002
      3  CAM       61.3790    7.6520    0.9850 C.ar  1114  PHX1114     0.0000
      4  CAQ       60.3710    7.2520   -0.1940 C.ar  1114  PHX1114     0.0002
      5  CAR       59.9580    8.2790   -1.3740 C.ar  1114  PHX1114     0.0058
      6  CAN       60.5060    9.7390   -1.3700 C.ar  1114  PHX1114     0.0665
      7  CAO       60.2650   10.5820   -2.0370 C.2   1114  PHX1114     0.2843
      8  NAD       60.6460   12.0150   -1.9650 N.2   1114  PHX1114    -0.3637
      9  OAS       59.3030   10.5530   -3.1440 O.3   1114  PHX1114    -0.3911
     10  CAT       59.1230   11.7550   -3.7720 C.2   1114  PHX1114     0.3750
     11  OAU       58.3630   11.9650   -4.7470 O.2   1114  PHX1114    -0.2418
     12  CAE       60.0190   12.7960   -3.0670 C.2   1114  PHX1114     0.2054
     13  CAF       60.7010   14.0600   -2.7050 C.3   1114  PHX1114     0.1543
     14  NAG       60.8200   15.2110   -3.5840 N.3   1114  PHX1114    -0.2103
     15  CAH       59.8480   16.2490   -3.1950 C.3   1114  PHX1114     0.0895
     16  CAI       58.5000   16.7970   -3.5720 C.3   1114  PHX1114     0.0269
     17  CAJ       57.4390   17.5500   -2.9120 C.3   1114  PHX1114     0.1013
     18  CAK       57.6800   18.5810   -1.8570 C.3   1114  PHX1114     0.4260
     19  OAL       56.6790   19.3240   -2.5630 O.2   1114  PHX1114    -0.2671
     20  OAP       57.0550   18.1270   -0.8940 O.2   1114  PHX1114    -0.2671
@<TRIPOS>BOND
     1    11    10    2
     2    10     9    1
     3    10    12    1
     4    14    15    1
     5    14    13    1
     6    16    15    1
     7    16    17    1
     8     9     7    1
     9    12    13    1
    10    12     8    2
    11    17    18    1
    12    19    18    1
    13     7     8    2
    14     7     6    1
    15    18    20    1
    16     5     6   ar
    17     5     4   ar
    18     6     1   ar
    19     4     3   ar
    20     1     2   ar
    21     2     3   ar
