@<TRIPOS>MOLECULE
2uud_III_S_1.pdb
 29 28 0 0 0
SMALL
GASTEIGER

@<TRIPOS>ATOM
      1  N         39.2380  -21.0050  -17.5850 N.3     1  SER1       -0.1202
      2  CA        39.5420  -21.9390  -18.6690 C.3     1  SER1        0.2020
      3  C         38.5200  -21.8450  -19.8080 C.2     1  SER1        0.2619
      4  O         37.3790  -22.2910  -19.6640 O.2     1  SER1       -0.2717
      5  CB        39.5840  -23.3700  -18.1140 C.3     1  SER1        0.2103
      6  OG        38.4810  -23.6300  -17.2550 O.3     1  SER1       -0.2182
      7  N         38.9320  -21.2810  -20.9440 N.am    2  THR2       -0.1938
      8  CA        38.0210  -21.1290  -22.0810 C.3     2  THR2        0.2028
      9  C         38.5250  -21.5640  -23.4670 C.2     2  THR2        0.2643
     10  O         38.5930  -22.7590  -23.7600 O.2     2  THR2       -0.2714
     11  CB        37.5000  -19.6700  -22.1680 C.3     2  THR2        0.1808
     12  OG1       36.7740  -19.5000  -23.3920 O.3     2  THR2       -0.2208
     13  CG2       38.6510  -18.6710  -22.1080 C.3     2  THR2        0.0379
     14  N         38.8630  -20.5960  -24.3180 N.am    3  SER3       -0.1935
     15  CA        39.3320  -20.8810  -25.6780 C.3     3  SER3        0.2055
     16  C         40.8190  -21.2400  -25.7700 C.2     3  SER3        0.2644
     17  O         41.6810  -20.5400  -25.2250 O.2     3  SER3       -0.2714
     18  CB        39.0410  -19.6880  -26.5980 C.3     3  SER3        0.2130
     19  OG        39.7860  -18.5440  -26.2080 O.3     3  SER3       -0.2179
     20  N         41.0980  -22.3370  -26.4760 N.am    4  SER4       -0.1935
     21  CA        42.4550  -22.8470  -26.6740 C.3     4  SER4        0.2055
     22  C         43.2400  -22.9090  -25.3570 C.2     4  SER4        0.2643
     23  O         44.4730  -22.8910  -25.3510 O.2     4  SER4       -0.2714
     24  CB        43.2020  -21.9820  -27.6980 C.3     4  SER4        0.2130
     25  OG        44.3750  -22.6330  -28.1560 O.3     4  SER4       -0.2179
     26  N         42.5130  -22.9900  -24.2460 N.am    5  GLY5       -0.1954
     27  CA        43.1420  -23.0530  -22.9410 C.3     5  GLY5        0.1869
     28  C         42.3740  -23.9850  -22.0280 C.2     5  GLY5        0.2309
     29  O         41.5030  -24.7230  -22.4890 O.2     5  GLY5       -0.2863
@<TRIPOS>BOND
     1    25    24    1
     2    24    21    1
     3    21    20    1
     4    21    22    1
     5    18    19    1
     6    18    15    1
     7    20    16   am
     8    16    15    1
     9    16    17    2
    10    15    14    1
    11    22    23    2
    12    22    26   am
    13    14     9   am
    14    26    27    1
    15    10     9    2
    16     9     8    1
    17    12    11    1
    18    27    28    1
    19    29    28    2
    20    11    13    1
    21    11     8    1
    22     8     7    1
    23     7     3   am
    24     3     4    2
    25     3     2    1
    26     2     5    1
    27     2     1    1
    28     5     6    1
