@<TRIPOS>MOLECULE
2uue_III_E_1.pdb
 40 40 0 0 0
SMALL
GASTEIGER

@<TRIPOS>ATOM
      1  N         37.9140   21.3100    0.3700 N.3     1  ARG1       -0.1182
      2  CA        38.6880   22.1480    1.2500 C.3     1  ARG1        0.1910
      3  C         39.9080   22.6190    0.5340 C.2     1  ARG1        0.2634
      4  O         40.6880   21.8390    0.0040 O.2     1  ARG1       -0.2714
      5  CB        39.0740   21.4060    2.5100 C.2     1  ARG1        0.0007
      6  CG        39.7930   22.0270    3.4460 C.2     1  ARG1        0.0176
      7  CD        40.2820   21.2350    4.6360 C.3     1  ARG1        0.2464
      8  NE        39.1340   20.9700    5.5100 N.pl3   1  ARG1       -0.0815
      9  CZ        39.0380   20.3750    6.7160 C.cat   1  ARG1        0.5349
     10  NH1       40.0990   19.8080    7.3100 N.pl3   1  ARG1        0.1354
     11  NH2       37.8490   20.3260    7.3290 N.pl3   1  ARG1        0.1354
     12  N         40.0770   23.9330    0.5390 N.am    2  LEU2       -0.1963
     13  CA        41.3060   24.5380    0.0610 C.3     2  LEU2        0.1728
     14  C         42.3160   24.6890    1.1580 C.2     2  LEU2        0.2616
     15  O         42.0740   25.3180    2.1750 O.2     2  LEU2       -0.2715
     16  CB        41.0800   25.8620   -0.6430 C.3     2  LEU2        0.0311
     17  CG        40.0340   25.8800   -1.7350 C.3     2  LEU2        0.0022
     18  CD1       39.6530   27.3260   -1.9970 C.3     2  LEU2        0.0001
     19  CD2       40.5270   25.1870   -3.0090 C.3     2  LEU2        0.0001
     20  N         43.4980   24.1200    0.9620 N.am    3  ILE3       -0.1963
     21  CA        44.4960   24.3280    1.9970 C.3     3  ILE3        0.1727
     22  C         45.5760   25.2320    1.4930 C.2     3  ILE3        0.2616
     23  O         46.1010   25.0340    0.4040 O.2     3  ILE3       -0.2715
     24  CB        45.0060   22.9460    2.4090 C.3     3  ILE3        0.0290
     25  CG1       46.4040   22.9310    3.0270 C.3     3  ILE3        0.0022
     26  CG2       44.7930   21.8590    1.3600 C.3     3  ILE3        0.0023
     27  CD1       46.6010   21.6000    3.7540 C.3     3  ILE3        0.0001
     28  N         45.8760   26.2550    2.2890 N.am    4  TYR4       -0.1959
     29  CA        46.4830   27.4570    1.7100 C.3     4  TYR4        0.1787
     30  C         47.9180   27.6520    2.1060 C.2     4  TYR4        0.2809
     31  O         48.6860   28.1610    1.3080 O.2     4  TYR4       -0.2698
     32  CB        45.7160   28.7230    2.0450 C.3     4  TYR4        0.0575
     33  CG        44.4640   29.0230    1.3250 C.ar    4  TYR4       -0.0198
     34  CD1       43.2620   28.9680    2.0130 C.ar    4  TYR4       -0.0019
     35  CD2       44.5080   29.3310   -0.0420 C.ar    4  TYR4       -0.0019
     36  CE1       42.0870   29.2360    1.3190 C.ar    4  TYR4        0.0293
     37  CE2       43.3280   29.5980   -0.7260 C.ar    4  TYR4        0.0293
     38  CZ        42.1350   29.5590   -0.0320 C.ar    4  TYR4        0.1401
     39  F         41.0020   29.7790   -0.6920 F       4  TYR4       -0.2042
     40  N         48.2830   27.3160    3.3400 N.am    5  NH25       -0.0863
@<TRIPOS>BOND
     1    19    17    1
     2    18    17    1
     3    17    16    1
     4    37    35   ar
     5    37    38   ar
     6    39    38    1
     7    16    13    1
     8    35    33   ar
     9    38    36   ar
    10     4     3    2
    11    13    12    1
    12    13    14    1
    13     1     2    1
    14    23    22    2
    15     3    12   am
    16     3     2    1
    17    20    14   am
    18    20    21    1
    19    14    15    2
    20     2     5    1
    21    31    30    2
    22    36    34   ar
    23    33    34   ar
    24    33    32    1
    25    26    24    1
    26    22    21    1
    27    22    28   am
    28    29    32    1
    29    29    30    1
    30    29    28    1
    31    21    24    1
    32    30    40   am
    33    24    25    1
    34     5     6    2
    35    25    27    1
    36     6     7    1
    37     7     8    1
    38     8     9    2
    39     9    10    1
    40     9    11    1
