@<TRIPOS>MOLECULE
2uue_GVC_E_1.pdb
 16 17 0 0 0
SMALL
GASTEIGER

@<TRIPOS>ATOM
      1  O5        37.8040   22.9440   -1.1120 O.2   1433  GVC1433    -0.2702
      2  C1        37.4720   21.8210   -0.7620 C.2   1433  GVC1433     0.3188
      3  C35       36.5410   20.9810   -1.5670 C.1   1433  GVC1433     0.1481
      4  N10       36.0330   21.3780   -2.7510 N.2   1433  GVC1433    -0.1026
      5  N9        36.0750   19.7540   -1.2130 N.2   1433  GVC1433    -0.3334
      6  C34       35.2510   19.3750   -2.1900 C.2   1433  GVC1433     0.1953
      7  C36       34.4510   18.1170   -2.3070 C.3   1433  GVC1433     0.0868
      8  N8        35.2010   20.3230   -3.0950 N.pl3 1433  GVC1433    -0.1561
      9  C30       34.4620   20.2380   -4.1980 C.ar  1433  GVC1433     0.0786
     10  C31       34.4680   21.2850   -5.1060 C.ar  1433  GVC1433     0.0283
     11  C32       33.6960   21.2020   -6.2490 C.ar  1433  GVC1433     0.0598
     12  C33       32.9240   20.0980   -6.5670 C.ar  1433  GVC1433     0.0229
     13 CL5        33.7780   22.5340   -7.4080 Cl    1433  GVC1433    -0.0822
     14  C29       33.6740   19.1150   -4.5250 C.ar  1433  GVC1433     0.0283
     15  C28       32.8920   19.0160   -5.6900 C.ar  1433  GVC1433     0.0598
     16 CL1        31.8670   17.5750   -6.1220 Cl    1433  GVC1433    -0.0822
@<TRIPOS>BOND
     1    13    11    1
     2    12    11   ar
     3    12    15   ar
     4    11    10   ar
     5    16    15    1
     6    15    14   ar
     7    10     9   ar
     8    14     9   ar
     9     9     8    1
    10     8     4    1
    11     8     6    1
    12     4     3    2
    13     7     6    1
    14     6     5    2
    15     3     5    2
    16     3     2    1
    17     1     2    2
