@<TRIPOS>MOLECULE
2uue_MTZ_A_1.pdb
 26 29 0 0 0
SMALL
GASTEIGER

@<TRIPOS>ATOM
      1  C14       -3.9500   47.8670    2.3880 C.3   1297  MTZ1297     0.1231
      2  C15       -4.8160   46.8960    3.2050 C.3   1297  MTZ1297     0.1636
      3  O         -4.6380   45.5080    2.8070 O.3   1297  MTZ1297    -0.3501
      4  C16       -3.2700   45.0440    2.8960 C.3   1297  MTZ1297     0.1636
      5  C17       -2.3090   45.9310    2.0900 C.3   1297  MTZ1297     0.1231
      6  N5        -2.5490   47.3740    2.3640 N.pl3 1297  MTZ1297    -0.3028
      7  C11       -1.4820   48.2300    2.6990 C.ar  1297  MTZ1297     0.0481
      8  C12       -1.7650   49.5100    3.1620 C.ar  1297  MTZ1297     0.0159
      9  C13       -0.7330   50.3660    3.5200 C.ar  1297  MTZ1297     0.0186
     10  C10       -0.1580   47.7980    2.6280 C.ar  1297  MTZ1297     0.0159
     11  C9         0.8740   48.6540    3.0030 C.ar  1297  MTZ1297     0.0186
     12  C8         0.5900   49.9470    3.4400 C.ar  1297  MTZ1297     0.0827
     13  N4         1.5470   50.7960    3.8290 N.pl3 1297  MTZ1297    -0.1358
     14  C5         2.8080   50.7310    3.4150 C.1   1297  MTZ1297     0.1694
     15  N2         3.3120   49.5710    2.9600 N.2   1297  MTZ1297    -0.3393
     16  N3         3.5760   51.8310    3.4620 N.2   1297  MTZ1297    -0.1683
     17  C6         4.8340   51.8070    3.0410 C.2   1297  MTZ1297     0.1141
     18  C7         5.3880   50.6240    2.5630 C.2   1297  MTZ1297     0.0513
     19  C4         4.5900   49.4810    2.5450 C.2   1297  MTZ1297     0.1398
     20  C3         5.0670   48.2810    2.0160 C.3   1297  MTZ1297     0.1563
     21  S          4.1640   46.8510    1.7580 S.3   1297  MTZ1297    -0.0508
     22  C1         6.3300   48.0680    1.4680 C.2   1297  MTZ1297     0.1063
     23  C2         7.4110   49.1460    1.4830 C.3   1297  MTZ1297     0.0629
     24  N1         6.5330   46.8390    0.9600 N.2   1297  MTZ1297    -0.3852
     25  C          5.4660   46.0260    1.0190 C.2   1297  MTZ1297     0.2461
     26  N          5.4240   44.7650    0.5780 N.pl3 1297  MTZ1297    -0.0867
@<TRIPOS>BOND
     1    26    25    1
     2    24    25    2
     3    24    22    2
     4    25    21    1
     5    22    23    1
     6    22    20    1
     7    21    20    1
     8    20    19    1
     9     5     6    1
    10     5     4    1
    11     6     1    1
    12     6     7    1
    13     1     2    1
    14    19    18    1
    15    19    15    2
    16    18    17    2
    17    10     7   ar
    18    10    11   ar
    19     7     8   ar
    20     3     4    1
    21     3     2    1
    22    15    14    2
    23    11    12   ar
    24    17    16    1
    25     8     9   ar
    26    14    16    2
    27    14    13    1
    28    12     9   ar
    29    12    13    1
