@<TRIPOS>MOLECULE
2uuh_GSH_A_1.pdb
 20 19 0 0 0
SMALL
GASTEIGER

@<TRIPOS>ATOM
      1  N1         7.5830   15.1420   18.2030 N.3   1150  GSH1150    -0.1208
      2  CA1        6.3070   15.4340   18.7730 C.3   1150  GSH1150     0.1948
      3  C1         5.3930   14.2260   18.4970 C.2   1150  GSH1150     0.3819
      4  O11        4.4840   13.7950   19.2260 O.co2 1150  GSH1150    -0.2441
      5  O12        5.5800   13.7360   17.3830 O.co2 1150  GSH1150    -0.2441
      6  CB1        6.3080   16.3290   20.0140 C.3   1150  GSH1150     0.0402
      7  CG1        4.9830   16.5000   20.7080 C.3   1150  GSH1150     0.0889
      8  CD1        5.1570   15.5150   21.8600 C.2   1150  GSH1150     0.2418
      9  OE1        6.3140   15.4220   22.5620 O.2   1150  GSH1150    -0.2733
     10  N2         4.2310   14.5750   22.1630 N.am  1150  GSH1150    -0.1968
     11  CA2        4.3300   13.5620   23.2680 C.3   1150  GSH1150     0.1843
     12  C2         4.9060   12.2620   22.7590 C.2   1150  GSH1150     0.2627
     13  O2         5.1700   11.2340   23.6000 O.2   1150  GSH1150    -0.2714
     14  CB2        2.9060   13.1850   23.7590 C.3   1150  GSH1150     0.0997
     15  SG2        1.8080   12.7510   22.3820 S.3   1150  GSH1150    -0.0797
     16  N3         5.1080   12.0400   21.4610 N.am  1150  GSH1150    -0.1917
     17  CA3        5.3850   10.7200   20.9370 C.3   1150  GSH1150     0.2285
     18  C3         6.5340   10.7450   19.9280 C.2   1150  GSH1150     0.3865
     19  O31        7.2600   11.7670   19.7200 O.co2 1150  GSH1150    -0.2437
     20  O32        6.7940    9.6810   19.3070 O.co2 1150  GSH1150    -0.2437
@<TRIPOS>BOND
     1     5     3   ar
     2     1     2    1
     3     3     2    1
     4     3     4   ar
     5     2     6    1
     6    20    18   ar
     7    19    18   ar
     8    18    17    1
     9     6     7    1
    10     7     8    1
    11    17    16    1
    12    16    12   am
    13     8    10   am
    14     8     9    2
    15    10    11    1
    16    15    14    1
    17    12    11    1
    18    12    13    2
    19    11    14    1
