@<TRIPOS>MOLECULE
2uuj_896_B_1.pdb
 26 27 0 0 0
SMALL
GASTEIGER

@<TRIPOS>ATOM
      1  O2         3.0680   16.5320   47.5040 O.2   1250  8961250    -0.2699
      2  C21        2.4260   17.7310   47.3190 C.2   1250  8961250     0.2491
      3  N2         1.5150   17.9020   46.4560 N.am  1250  8961250    -0.2777
      4  C6         1.2530   16.7520   45.4540 C.3   1250  8961250     0.0937
      5  C5         2.4710   16.5160   44.6280 C.3   1250  8961250     0.0233
      6  C22        0.9080   19.2700   46.1500 C.3   1250  8961250     0.0757
      7  C24        1.2410   19.6320   44.6720 C.3   1250  8961250     0.0215
      8  C23       -0.5010   19.2200   46.4570 C.3   1250  8961250     0.0215
      9  C17        2.8940   18.7330   48.3220 C.ar  1250  8961250     0.0563
     10  C16        4.2520   19.2090   48.3030 C.ar  1250  8961250     0.0414
     11  C14        4.5480   20.1400   49.2410 C.ar  1250  8961250     0.1385
     12  C15        3.7540   20.5630   50.1170 C.ar  1250  8961250     0.0327
     13  C19        2.4570   20.2070   50.2400 C.ar  1250  8961250    -0.0187
     14  C20        1.4600   20.5950   51.2000 C.3   1250  8961250     0.0311
     15  C18        2.0380   19.1730   49.2230 C.ar  1250  8961250     0.0005
     16  O3         5.9100   20.5270   49.0960 O.3   1250  8961250    -0.4736
     17  C1         6.4400   21.2380   50.3060 C.3   1250  8961250     0.2267
     18  C7         7.9320   21.4820   49.9220 C.3   1250  8961250     0.1360
     19  C8         8.6570   21.8830   51.2110 C.3   1250  8961250     0.0273
     20  N3         8.1000   22.5040   48.9730 N.pl3 1250  8961250    -0.2354
     21  C9         9.1750   22.6740   48.1740 C.ar  1250  8961250     0.0685
     22  C10        9.3470   23.7180   47.3340 C.ar  1250  8961250     0.0368
     23  C11       10.5170   23.8830   46.4740 C.ar  1250  8961250     0.1002
     24  N4        11.3350   22.7990   46.6230 N.ar  1250  8961250    -0.2422
     25  C12       11.2470   21.7960   47.3580 C.ar  1250  8961250     0.1002
     26  C13       10.1970   21.6450   48.2560 C.ar  1250  8961250     0.0368
@<TRIPOS>BOND
     1     5     4    1
     2     7     6    1
     3     4     3    1
     4     6     3    1
     5     6     8    1
     6     3     2   am
     7    23    24   ar
     8    23    22   ar
     9    24    25   ar
    10     2     1    2
    11     2     9    1
    12    22    21   ar
    13    25    26   ar
    14    21    26   ar
    15    21    20    1
    16    10     9   ar
    17    10    11   ar
    18     9    15   ar
    19    20    18    1
    20    16    11    1
    21    16    17    1
    22    15    13   ar
    23    11    12   ar
    24    18    17    1
    25    18    19    1
    26    12    13   ar
    27    13    14    1
