@<TRIPOS>MOLECULE
2uuk_897_B_1.pdb
 33 34 0 0 0
SMALL
GASTEIGER

@<TRIPOS>ATOM
      1  C8         8.8930   21.6070   51.1840 C.3   2250  8972250     0.0273
      2  C7         8.1380   21.2800   49.8560 C.3   2250  8972250     0.1360
      3  N3         8.3190   22.3320   48.9040 N.pl3 2250  8972250    -0.2354
      4  C9         9.4340   22.4380   48.0950 C.ar  2250  8972250     0.0685
      5  C10       10.4850   21.4860   48.0910 C.ar  2250  8972250     0.0368
      6  C11       11.5220   21.6940   47.1730 C.ar  2250  8972250     0.1002
      7  N4        11.5070   22.8390   46.4700 N.ar  2250  8972250    -0.2422
      8  C12       10.5580   23.8100   46.3980 C.ar  2250  8972250     0.1002
      9  C13        9.4890   23.5560   47.2480 C.ar  2250  8972250     0.0368
     10  C1         6.6640   21.1020   50.1990 C.3   2250  8972250     0.2267
     11  O3         6.1120   20.4270   49.0280 O.3   2250  8972250    -0.4736
     12  C14        4.8020   20.0280   49.1480 C.ar  2250  8972250     0.1385
     13  C15        3.9080   20.4880   50.0860 C.ar  2250  8972250     0.0327
     14  C19        2.5430   20.0760   50.1330 C.ar  2250  8972250    -0.0187
     15  C20        1.6290   20.5900   51.1570 C.3   2250  8972250     0.0311
     16  C18        2.1780   19.1420   49.1470 C.ar  2250  8972250     0.0005
     17  C16        4.3650   19.0860   48.1960 C.ar  2250  8972250     0.0414
     18  C17        3.0020   18.6730   48.2100 C.ar  2250  8972250     0.0563
     19  C21        2.6100   17.6350   47.2090 C.2   2250  8972250     0.2491
     20  O2         3.2160   16.5030   47.3280 O.2   2250  8972250    -0.2699
     21  N2         1.5650   17.8180   46.3810 N.am  2250  8972250    -0.2772
     22  C22        1.0140   19.1500   46.0840 C.3   2250  8972250     0.0758
     23  C23        1.3720   19.5630   44.6390 C.3   2250  8972250     0.0215
     24  C24       -0.4870   19.2170   46.3490 C.3   2250  8972250     0.0215
     25  C6         1.0850   16.6340   45.6280 C.3   2250  8972250     0.1033
     26  C5         0.2940   15.7620   46.4550 C.3   2250  8972250     0.1083
     27  C4        -0.1550   14.6060   45.7520 C.2   2250  8972250     0.2430
     28  O1        -1.0490   14.6440   44.9570 O.2   2250  8972250    -0.2733
     29  N1         0.4610   13.4620   45.9180 N.am  2250  8972250    -0.2088
     30  C3         0.1210   12.1000   45.3820 C.3   2250  8972250     0.0788
     31  C25        0.2140   12.1520   43.8450 C.3   2250  8972250     0.0217
     32  C26       -1.3300   11.7750   45.7700 C.3   2250  8972250     0.0217
     33  C2         1.1600   11.0730   46.0140 C.3   2250  8972250     0.0217
@<TRIPOS>BOND
     1    31    30    1
     2    23    22    1
     3    28    27    2
     4    30    32    1
     5    30    29    1
     6    30    33    1
     7    25    21    1
     8    25    26    1
     9    27    29   am
    10    27    26    1
    11    22    24    1
    12    22    21    1
    13    21    19   am
    14     8     7   ar
    15     8     9   ar
    16     7     6   ar
    17     6     5   ar
    18    19    20    2
    19    19    18    1
    20     9     4   ar
    21     5     4   ar
    22     4     3    1
    23    17    18   ar
    24    17    12   ar
    25    18    16   ar
    26     3     2    1
    27    11    12    1
    28    11    10    1
    29    16    14   ar
    30    12    13   ar
    31     2    10    1
    32     2     1    1
    33    13    14   ar
    34    14    15    1
