@<TRIPOS>MOLECULE
2uul_BLA_B_1.pdb
 43 46 0 0 0
SMALL
GASTEIGER

@<TRIPOS>ATOM
      1  CHA       74.8030   31.4610   87.8350 C.3   184  BLA184      0.1170
      2  NA        77.0950   31.8100   87.2810 N.2   184  BLA184     -0.4104
      3  C1A       76.1580   31.8690   88.2220 C.2   184  BLA184      0.1114
      4  C2A       76.5310   32.3180   89.5020 C.2   184  BLA184      0.0024
      5  C3A       77.9060   32.5810   89.3920 C.2   184  BLA184      0.0021
      6  C4A       78.1940   32.2250   87.9350 C.2   184  BLA184      0.1114
      7  CMA       78.7800   33.1750   90.4790 C.3   184  BLA184      0.0331
      8  CAA       75.5680   32.4390   90.7010 C.3   184  BLA184      0.0402
      9  CBA       75.6440   33.7050   91.5160 C.3   184  BLA184      0.1188
     10  CGA       75.3120   34.6410   90.3980 C.2   184  BLA184      0.3652
     11  O1A       76.2810   35.3320   89.9420 O.co2 184  BLA184     -0.2456
     12  O2A       74.1160   34.5740   89.9460 O.co2 184  BLA184     -0.2456
     13  CHB       79.3830   32.2370   87.0210 C.3   184  BLA184      0.1181
     14  NB        80.7800   33.1400   88.6430 N.2   184  BLA184     -0.3375
     15  C1B       80.7200   32.6940   87.4020 C.2   184  BLA184      0.1254
     16  C2B       81.9420   32.7550   86.7320 C.2   184  BLA184      0.0128
     17  C3B       82.8570   33.2930   87.6400 C.2   184  BLA184      0.0706
     18  C4B       82.0690   33.4980   88.7750 C.1   184  BLA184      0.2000
     19  CMB       82.2480   32.3820   85.3200 C.3   184  BLA184      0.0339
     20  OB        82.5210   33.9360   89.9170 O.2   184  BLA184     -0.2096
     21  CAB       84.3450   33.5910   87.4820 C.3   184  BLA184      0.0390
     22  CBB       84.6200   35.0310   87.9010 C.3   184  BLA184      0.0058
     23  NC        72.2940   29.1710   82.2990 N.2   184  BLA184     -0.3448
     24  C1C       71.7960   28.6930   81.1650 C.1   184  BLA184      0.1788
     25  C2C       72.8350   28.5810   80.1200 C.3   184  BLA184      0.1246
     26  C3C       74.0590   29.1320   80.7980 C.3   184  BLA184      0.0660
     27  C4C       73.5760   29.4490   82.1920 C.2   184  BLA184      0.1070
     28  CMC       73.0070   27.0800   79.9580 C.3   184  BLA184      0.0192
     29  OC        70.6580   28.3280   80.9790 O.2   184  BLA184     -0.2142
     30  CAC       74.4630   30.3750   80.0290 C.3   184  BLA184      0.0078
     31  CBC       74.8210   30.1050   78.5920 C.3   184  BLA184      0.0005
     32  CHD       74.3130   29.9230   83.2110 C.3   184  BLA184      0.1138
     33  ND        74.8190   30.7210   85.4030 N.2   184  BLA184     -0.4104
     34  C1D       73.8430   30.2620   84.5930 C.2   184  BLA184      0.1111
     35  C2D       72.5080   30.1990   85.2900 C.2   184  BLA184      0.0021
     36  C3D       72.7550   30.6590   86.5710 C.2   184  BLA184      0.0024
     37  C4D       74.1920   30.9570   86.5680 C.2   184  BLA184      0.1114
     38  CMD       71.1890   29.7280   84.7730 C.3   184  BLA184      0.0331
     39  CAD       71.9700   30.8050   87.8770 C.3   184  BLA184      0.0402
     40  CBD       70.6060   31.4880   87.9180 C.3   184  BLA184      0.1188
     41  CGD       69.9850   31.5140   89.3220 C.2   184  BLA184      0.3652
     42  O1D       69.0830   30.7120   89.7070 O.co2 184  BLA184     -0.2456
     43  O2D       70.4050   32.4250   90.0410 O.co2 184  BLA184     -0.2456
@<TRIPOS>BOND
     1    31    30    1
     2    28    25    1
     3    30    26    1
     4    25    26    1
     5    25    24    1
     6    26    27    1
     7    29    24    2
     8    24    23    2
     9    27    23    2
    10    27    32    1
    11    32    34    1
    12    34    35    1
    13    34    33    2
    14    38    35    1
    15    35    36    2
    16    19    16    1
    17    33    37    2
    18    37    36    1
    19    37     1    1
    20    36    39    1
    21    16    15    1
    22    16    17    2
    23    13    15    1
    24    13     6    1
    25     2     6    2
    26     2     3    2
    27    15    14    2
    28    21    17    1
    29    21    22    1
    30    17    18    1
    31     1     3    1
    32    39    40    1
    33    40    41    1
    34     6     5    1
    35     3     4    1
    36    14    18    2
    37    18    20    2
    38    41    42   ar
    39    41    43   ar
    40     5     4    2
    41     5     7    1
    42     4     8    1
    43    11    10   ar
    44    12    10   ar
    45    10     9    1
    46     8     9    1
