@<TRIPOS>MOLECULE
2uum_BLA_B_1.pdb
 43 46 0 0 0
SMALL
GASTEIGER

@<TRIPOS>ATOM
      1  CHA      122.3760   57.6790  178.3640 C.3   1153  BLA1153     0.1170
      2  NA       120.3950   56.4320  179.1250 N.2   1153  BLA1153    -0.4104
      3  C1A      121.5370   56.4870  178.4450 C.2   1153  BLA1153     0.1114
      4  C2A      121.8690   55.3200  177.7990 C.2   1153  BLA1153     0.0024
      5  C3A      120.9210   54.3890  178.0570 C.2   1153  BLA1153     0.0021
      6  C4A      119.9790   55.1550  178.8980 C.2   1153  BLA1153     0.1114
      7  CMA      120.9620   53.0000  177.5270 C.3   1153  BLA1153     0.0331
      8  CAA      123.1100   55.0850  177.0380 C.3   1153  BLA1153     0.0402
      9  CBA      123.8940   54.3250  178.1350 C.3   1153  BLA1153     0.1188
     10  CGA      124.1310   55.0290  179.4880 C.2   1153  BLA1153     0.3652
     11  O1A      124.4220   56.2320  179.5550 O.co2 1153  BLA1153    -0.2456
     12  O2A      124.0530   54.3970  180.5440 O.co2 1153  BLA1153    -0.2456
     13  CHB      118.6920   54.8130  179.5500 C.3   1153  BLA1153     0.1181
     14  NB       118.2060   52.4200  179.0720 N.2   1153  BLA1153    -0.3375
     15  C1B      117.8450   53.5810  179.6060 C.2   1153  BLA1153     0.1254
     16  C2B      116.6550   53.5120  180.3070 C.2   1153  BLA1153     0.0128
     17  C3B      116.1940   52.2300  180.1860 C.2   1153  BLA1153     0.0706
     18  C4B      117.1880   51.6460  179.4530 C.1   1153  BLA1153     0.2000
     19  CMB      116.0390   54.6180  181.1120 C.3   1153  BLA1153     0.0339
     20  OB       117.0600   50.4270  179.1030 O.2   1153  BLA1153    -0.2096
     21  CAB      114.9170   51.5980  180.7190 C.3   1153  BLA1153     0.0390
     22  CBB      114.1870   50.8470  179.6320 C.3   1153  BLA1153     0.0058
     23  NC       121.3380   63.1780  181.0670 N.2   1153  BLA1153    -0.3448
     24  C1C      121.2130   64.3870  181.6010 C.1   1153  BLA1153     0.1788
     25  C2C      120.0370   64.6140  182.4380 C.3   1153  BLA1153     0.1246
     26  C3C      119.3890   63.2870  182.2090 C.3   1153  BLA1153     0.0660
     27  C4C      120.3630   62.4740  181.3720 C.2   1153  BLA1153     0.1070
     28  CMC      120.8500   64.7540  183.7000 C.3   1153  BLA1153     0.0192
     29  OC       122.0240   65.3090  181.4730 O.2   1153  BLA1153    -0.2142
     30  CAC      118.2140   63.8820  181.3850 C.3   1153  BLA1153     0.0078
     31  CBC      117.3320   62.9520  180.5810 C.3   1153  BLA1153     0.0005
     32  CHD      120.3390   61.2570  180.8640 C.3   1153  BLA1153     0.1138
     33  ND       121.1300   59.3390  179.7060 N.2   1153  BLA1153    -0.4104
     34  C1D      121.3740   60.6500  180.0030 C.2   1153  BLA1153     0.1111
     35  C2D      122.6670   61.1730  179.4300 C.2   1153  BLA1153     0.0021
     36  C3D      123.1800   60.1000  178.7200 C.2   1153  BLA1153     0.0024
     37  C4D      122.1880   59.0040  178.9540 C.2   1153  BLA1153     0.1114
     38  CMD      123.3650   62.4980  179.4670 C.3   1153  BLA1153     0.0331
     39  CAD      124.4900   60.0010  177.9360 C.3   1153  BLA1153     0.0402
     40  CBD      124.5290   60.5130  176.5170 C.3   1153  BLA1153     0.1188
     41  CGD      123.5770   59.7000  175.6850 C.2   1153  BLA1153     0.3652
     42  O1D      123.6870   58.4380  175.7500 O.co2 1153  BLA1153    -0.2456
     43  O2D      122.7320   60.3460  174.9850 O.co2 1153  BLA1153    -0.2456
@<TRIPOS>BOND
     1    43    41   ar
     2    41    42   ar
     3    41    40    1
     4    40    39    1
     5     8     4    1
     6     8     9    1
     7     7     5    1
     8     4     5    2
     9     4     3    1
    10    39    36    1
    11     5     6    1
    12     9    10    1
    13     1     3    1
    14     1    37    1
    15     3     2    2
    16    36    37    1
    17    36    35    2
    18     6     2    2
    19     6    13    1
    20    37    33    2
    21    14    18    2
    22    14    15    2
    23    20    18    2
    24    35    38    1
    25    35    34    1
    26    18    17    1
    27    10    11   ar
    28    10    12   ar
    29    13    15    1
    30    15    16    1
    31    22    21    1
    32    33    34    2
    33    34    32    1
    34    17    16    2
    35    17    21    1
    36    16    19    1
    37    31    30    1
    38    32    27    1
    39    23    27    2
    40    23    24    2
    41    27    26    1
    42    30    26    1
    43    29    24    2
    44    24    25    1
    45    26    25    1
    46    25    28    1
