@<TRIPOS>MOLECULE
2uun_BLA_B_1.pdb
 43 46 0 0 0
SMALL
GASTEIGER

@<TRIPOS>ATOM
      1  CHA      101.6050   42.0790   61.4300 C.3   255  BLA255      0.1170
      2  NA       100.2020   42.8040   63.4030 N.2   255  BLA255     -0.4104
      3  C1A      101.1590   43.0690   62.4850 C.2   255  BLA255      0.1114
      4  C2A      101.6510   44.3820   62.6940 C.2   255  BLA255      0.0024
      5  C3A      100.9450   44.9050   63.8010 C.2   255  BLA255      0.0021
      6  C4A      100.0140   43.8390   64.2330 C.2   255  BLA255      0.1114
      7  CMA      101.0790   46.2730   64.4280 C.3   255  BLA255      0.0331
      8  CAA      102.7500   45.1420   61.9290 C.3   255  BLA255      0.0402
      9  CBA      102.9380   44.7300   60.4800 C.3   255  BLA255      0.1188
     10  CGA      101.6480   45.1090   59.8130 C.2   255  BLA255      0.3652
     11  O1A      100.9330   44.2120   59.3360 O.co2 255  BLA255     -0.2456
     12  O2A      101.3220   46.3240   59.7800 O.co2 255  BLA255     -0.2456
     13  CHB       99.0150   43.8220   65.3540 C.3   255  BLA255      0.1181
     14  NB        98.9130   46.4180   65.4570 N.2   255  BLA255     -0.3375
     15  C1B       98.4960   45.1550   65.8580 C.2   255  BLA255      0.1254
     16  C2B       97.4900   45.2440   66.8540 C.2   255  BLA255      0.0128
     17  C3B       97.2610   46.5890   67.0890 C.2   255  BLA255      0.0706
     18  C4B       98.1590   47.2440   66.2370 C.1   255  BLA255      0.2000
     19  CMB       96.7780   44.1240   67.5400 C.3   255  BLA255      0.0339
     20  OB        98.2100   48.5330   66.1650 O.2   255  BLA255     -0.2096
     21  CAB       96.2530   47.1710   68.0440 C.3   255  BLA255      0.0390
     22  CBB       96.2250   48.6780   67.9730 C.3   255  BLA255      0.0058
     23  NC        97.5170   37.6390   59.5570 N.2   255  BLA255     -0.3448
     24  C1C       96.6590   36.8570   58.9250 C.1   255  BLA255      0.1788
     25  C2C       95.7840   36.1600   59.8990 C.3   255  BLA255      0.1246
     26  C3C       96.0020   37.0140   61.1570 C.3   255  BLA255      0.0660
     27  C4C       97.2480   37.7470   60.8330 C.2   255  BLA255      0.1070
     28  CMC       94.3600   36.0390   59.3440 C.3   255  BLA255      0.0192
     29  OC        96.5640   36.7160   57.7250 O.2   255  BLA255     -0.2142
     30  CAC       96.3030   36.2510   62.4230 C.3   255  BLA255      0.0078
     31  CBC       95.1830   36.3250   63.4100 C.3   255  BLA255      0.0005
     32  CHD       97.9980   38.4430   61.7150 C.3   255  BLA255      0.1138
     33  ND        99.5740   40.4310   61.7600 N.2   255  BLA255     -0.4104
     34  C1D       99.2880   39.1400   61.3910 C.2   255  BLA255      0.1111
     35  C2D      100.4110   38.4670   60.6930 C.2   255  BLA255      0.0021
     36  C3D      101.4420   39.5180   60.6010 C.2   255  BLA255      0.0024
     37  C4D      100.8470   40.7440   61.3070 C.2   255  BLA255      0.1114
     38  CMD      100.4550   37.0750   60.1860 C.3   255  BLA255      0.0331
     39  CAD      102.8010   39.3180   59.9080 C.3   255  BLA255      0.0402
     40  CBD      104.0270   40.0810   60.4280 C.3   255  BLA255      0.1188
     41  CGD      104.1420   39.7690   61.9060 C.2   255  BLA255      0.3652
     42  O1D      104.0920   38.5620   62.3460 O.co2 255  BLA255     -0.2456
     43  O2D      104.2470   40.8140   62.6000 O.co2 255  BLA255     -0.2456
@<TRIPOS>BOND
     1    29    24    2
     2    24    23    2
     3    24    25    1
     4    11    10   ar
     5    28    25    1
     6    23    27    2
     7    12    10   ar
     8    10     9    1
     9    25    26    1
    10    39    40    1
    11    39    36    1
    12    38    35    1
    13    40    41    1
    14     9     8    1
    15    36    35    2
    16    36    37    1
    17    35    34    1
    18    27    26    1
    19    27    32    1
    20    26    30    1
    21    37     1    1
    22    37    33    2
    23    34    32    1
    24    34    33    2
    25     1     3    1
    26    41    42   ar
    27    41    43   ar
    28     8     4    1
    29    30    31    1
    30     3     4    1
    31     3     2    2
    32     4     5    2
    33     2     6    2
    34     5     6    1
    35     5     7    1
    36     6    13    1
    37    13    15    1
    38    14    15    2
    39    14    18    2
    40    15    16    1
    41    20    18    2
    42    18    17    1
    43    16    17    2
    44    16    19    1
    45    17    21    1
    46    22    21    1
