@<TRIPOS>MOLECULE
2uuo_LK3_A_1.pdb
 29 30 0 0 0
SMALL
GASTEIGER

@<TRIPOS>ATOM
      1  O28      -22.2820    5.7350   19.3580 O.2   1441  LK31441    -0.1516
      2  S11      -22.2230    4.6440   18.3960 S.O2  1441  LK31441     0.0773
      3  O27      -21.8220    5.1950   17.0650 O.2   1441  LK31441    -0.1516
      4  N        -23.6920    3.9820   18.2340 N.3   1441  LK31441    -0.0677
      5  CA       -24.4920    3.8770   19.4700 C.3   1441  LK31441     0.2007
      6  C        -25.0090    5.2660   19.8740 C.2   1441  LK31441     0.3822
      7  OXT      -25.3130    6.0400   18.9430 O.co2 1441  LK31441    -0.2440
      8  O        -25.0960    5.5670   21.1000 O.co2 1441  LK31441    -0.2440
      9  CB       -25.6110    2.8380   19.2560 C.3   1441  LK31441     0.0427
     10  CG       -26.4690    2.6900   20.5120 C.3   1441  LK31441     0.1161
     11  CD       -27.4470    1.5390   20.4050 C.2   1441  LK31441     0.3649
     12  OE2      -27.4070    0.8430   19.3680 O.co2 1441  LK31441    -0.2457
     13  OE1      -28.2410    1.3710   21.3610 O.co2 1441  LK31441    -0.2457
     14  C12      -21.1420    3.4350   18.9580 C.ar  1441  LK31441     0.1236
     15  C17      -21.0220    3.2250   20.3280 C.ar  1441  LK31441     0.0200
     16  C16      -20.1790    2.2630   20.8740 C.ar  1441  LK31441     0.0015
     17  C15      -19.4210    1.4740   20.0170 C.ar  1441  LK31441     0.0031
     18  C21      -18.5810    0.4860   20.5430 C.ar  1441  LK31441     0.0369
     19  C20      -17.8160   -0.3320   19.6900 C.ar  1441  LK31441     0.1386
     20  C19      -17.8730   -0.1460   18.3020 C.ar  1441  LK31441     0.0369
     21  C18      -18.7130    0.8620   17.7800 C.ar  1441  LK31441     0.0032
     22  C14      -19.4980    1.6710   18.6300 C.ar  1441  LK31441     0.0015
     23  C13      -20.3560    2.6430   18.1010 C.ar  1441  LK31441     0.0200
     24  O22      -17.0540   -1.3520   20.2100 O.3   1441  LK31441    -0.4755
     25  C23      -16.6440   -1.1910   21.5730 C.3   1441  LK31441     0.2054
     26  C24      -15.2800   -0.4910   21.5280 C.3   1441  LK31441     0.0473
     27  C25      -14.2550   -1.4170   20.8690 C.3   1441  LK31441     0.0038
     28  C26      -12.8900   -0.7390   20.9050 C.3   1441  LK31441     0.0001
     29  C30      -11.8540   -1.6240   20.2470 C.3   1441  LK31441     0.0000
@<TRIPOS>BOND
     1     3     2    2
     2    21    20   ar
     3    21    22   ar
     4    23    22   ar
     5    23    14   ar
     6     4     2    1
     7     4     5    1
     8    20    19   ar
     9     2    14    1
    10     2     1    2
    11    22    17   ar
    12     7     6   ar
    13    14    15   ar
    14     9     5    1
    15     9    10    1
    16    12    11   ar
    17     5     6    1
    18    19    24    1
    19    19    18   ar
    20     6     8   ar
    21    17    18   ar
    22    17    16   ar
    23    24    25    1
    24    29    28    1
    25    15    16   ar
    26    11    10    1
    27    11    13   ar
    28    27    28    1
    29    27    26    1
    30    26    25    1
