@<TRIPOS>MOLECULE
2uup_LK4_A_1.pdb
 33 35 0 0 0
SMALL
GASTEIGER

@<TRIPOS>ATOM
      1  N31      -10.6970    1.6870  -22.5910 N.1   1440  LK41440    -0.1908
      2  C30      -11.8280    1.4560  -22.4440 C.1   1440  LK41440     0.1004
      3  C27      -13.0960    1.4150  -22.2830 C.ar  1440  LK41440     0.0684
      4  C28      -13.5040    1.1500  -20.9910 C.ar  1440  LK41440     0.0101
      5  C29      -14.8430    1.1120  -20.6920 C.ar  1440  LK41440    -0.0000
      6  C26      -14.0370    1.6330  -23.3070 C.ar  1440  LK41440     0.0101
      7  C25      -15.4040    1.5780  -23.0130 C.ar  1440  LK41440    -0.0000
      8  C24      -15.7690    1.2990  -21.6930 C.ar  1440  LK41440     0.0212
      9  C23      -17.1660    1.2960  -21.1720 C.3   1440  LK41440     0.2320
     10  O22      -18.0820    0.4510  -21.7780 O.3   1440  LK41440    -0.4706
     11  C20      -18.7980   -0.2900  -20.8750 C.ar  1440  LK41440     0.1391
     12  C19      -18.7920   -0.1240  -19.4660 C.ar  1440  LK41440     0.0369
     13  C18      -19.5730   -0.9960  -18.6660 C.ar  1440  LK41440     0.0032
     14  C21      -19.5260   -1.2750  -21.4680 C.ar  1440  LK41440     0.0369
     15  C15      -20.2770   -2.1100  -20.6910 C.ar  1440  LK41440     0.0031
     16  C16      -20.3280   -1.9980  -19.3020 C.ar  1440  LK41440     0.0015
     17  C17      -21.1300   -2.9060  -18.6090 C.ar  1440  LK41440     0.0200
     18  C14      -20.9630   -3.0590  -21.4080 C.ar  1440  LK41440     0.0015
     19  C13      -21.7400   -3.9400  -20.7210 C.ar  1440  LK41440     0.0200
     20  C12      -21.8300   -3.8810  -19.3500 C.ar  1440  LK41440     0.1236
     21  S11      -22.8060   -4.9850  -18.7290 S.O2  1440  LK41440     0.0773
     22  O33      -22.4680   -5.3570  -17.3410 O.2   1440  LK41440    -0.1516
     23  O32      -22.8200   -6.1180  -19.6730 O.2   1440  LK41440    -0.1516
     24  N        -24.2830   -4.3120  -18.6650 N.3   1440  LK41440    -0.0677
     25  CA       -25.0410   -4.1410  -19.9040 C.3   1440  LK41440     0.2007
     26  C        -25.6660   -5.4470  -20.3740 C.2   1440  LK41440     0.3822
     27  O        -25.6800   -5.7220  -21.5820 O.co2 1440  LK41440    -0.2440
     28  OXT      -26.1720   -6.2240  -19.5470 O.co2 1440  LK41440    -0.2440
     29  CB       -26.1390   -3.0710  -19.7110 C.3   1440  LK41440     0.0427
     30  CG       -26.7980   -2.7480  -21.0460 C.3   1440  LK41440     0.1161
     31  CD       -27.7430   -1.5740  -20.9390 C.2   1440  LK41440     0.3649
     32  OE1      -28.5510   -1.4010  -21.8760 O.co2 1440  LK41440    -0.2457
     33  OE2      -27.7050   -0.8340  -19.9300 O.co2 1440  LK41440    -0.2457
@<TRIPOS>BOND
     1     6     7   ar
     2     6     3   ar
     3     7     8   ar
     4     1     2    3
     5     2     3    1
     6     3     4   ar
     7    32    31   ar
     8    10     9    1
     9    10    11    1
    10     8     9    1
    11     8     5   ar
    12    27    26   ar
    13    14    11   ar
    14    14    15   ar
    15    18    19   ar
    16    18    15   ar
    17    30    31    1
    18    30    29    1
    19     4     5   ar
    20    31    33   ar
    21    11    12   ar
    22    19    20   ar
    23    15    16   ar
    24    26    25    1
    25    26    28   ar
    26    25    29    1
    27    25    24    1
    28    23    21    2
    29    12    13   ar
    30    20    21    1
    31    20    17   ar
    32    16    13   ar
    33    16    17   ar
    34    21    24    1
    35    21    22    2
