@<TRIPOS>MOLECULE
2uuq_HEM_A_1.pdb
 43 50 0 0 0
SMALL
GASTEIGER

@<TRIPOS>ATOM
      1 FE         60.2090   20.2110    8.4000 Fe    1405  HEM1405     0.0000
      2  CHA       62.0410   19.9720   11.3070 C.2   1405  HEM1405     0.0000
      3  CHB       59.0930   16.9960    8.8670 C.2   1405  HEM1405     0.0000
      4  CHC       58.3150   20.4320    5.5250 C.2   1405  HEM1405     0.0000
      5  CHD       61.6230   23.2510    7.6880 C.2   1405  HEM1405     0.0000
      6  NA        60.5280   18.7720    9.8110 N.2   1405  HEM1405     0.0000
      7  C1A       61.2750   18.8790   10.9740 C.2   1405  HEM1405     0.0000
      8  C2A       61.1170   17.6720   11.7530 C.2   1405  HEM1405     0.0000
      9  C3A       60.3090   16.8570   11.0510 C.2   1405  HEM1405     0.0000
     10  C4A       59.9120   17.5360    9.8350 C.2   1405  HEM1405     0.0000
     11  CMA       59.8310   15.4320   11.4110 C.3   1405  HEM1405     0.0000
     12  CAA       61.7930   17.3710   13.1170 C.3   1405  HEM1405     0.0000
     13  CBA       63.0230   16.4880   12.8710 C.3   1405  HEM1405     0.0000
     14  CGA       63.3910   15.5520   14.0000 C.2   1405  HEM1405     0.0000
     15  O1A       64.6000   15.4460   14.3370 O.co2 1405  HEM1405     0.0000
     16  O2A       62.5120   14.8640   14.5510 O.co2 1405  HEM1405     0.0000
     17  NB        59.0060   18.9370    7.3780 N.ar  1405  HEM1405     0.0000
     18  C1B       58.6340   17.6550    7.7580 C.ar  1405  HEM1405     0.0000
     19  C2B       57.6560   17.1550    6.8190 C.ar  1405  HEM1405     0.0000
     20  C3B       57.4430   18.1210    5.9130 C.ar  1405  HEM1405     0.0000
     21  C4B       58.2790   19.2510    6.2430 C.ar  1405  HEM1405     0.0000
     22  CMB       56.9930   15.7610    6.8880 C.3   1405  HEM1405     0.0000
     23  CAB       56.5140   18.1220    4.6900 C.2   1405  HEM1405     0.0000
     24  CBB       55.4080   17.4080    4.6020 C.2   1405  HEM1405     0.0000
     25  NC        60.0300   21.5460    6.8880 N.2   1405  HEM1405     0.0000
     26  C1C       59.1320   21.5010    5.8440 C.2   1405  HEM1405     0.0000
     27  C2C       59.1690   22.7680    5.1370 C.2   1405  HEM1405     0.0000
     28  C3C       60.0990   23.5460    5.7280 C.2   1405  HEM1405     0.0000
     29  C4C       60.6520   22.7880    6.8390 C.2   1405  HEM1405     0.0000
     30  CMC       58.2800   23.0830    3.9140 C.3   1405  HEM1405     0.0000
     31  CAC       60.5540   24.9770    5.3540 C.2   1405  HEM1405     0.0000
     32  CBC       59.7400   25.8720    4.7940 C.2   1405  HEM1405     0.0000
     33  ND        61.5710   21.3790    9.3290 N.ar  1405  HEM1405     0.0000
     34  C1D       62.0340   22.6110    8.8360 C.ar  1405  HEM1405     0.0000
     35  C2D       63.0360   23.1320    9.7350 C.ar  1405  HEM1405     0.0000
     36  C3D       63.1520   22.1210   10.8470 C.ar  1405  HEM1405     0.0000
     37  C4D       62.2180   21.0830   10.5270 C.ar  1405  HEM1405     0.0000
     38  CMD       63.8260   24.4450    9.5910 C.3   1405  HEM1405     0.0000
     39  CAD       64.0910   22.1890   12.0610 C.3   1405  HEM1405     0.0000
     40  CBD       63.3390   22.6680   13.3000 C.3   1405  HEM1405     0.0000
     41  CGD       64.1980   22.5030   14.5340 C.2   1405  HEM1405     0.0000
     42  O1D       63.9790   23.2500   15.5270 O.co2 1405  HEM1405     0.0000
     43  O2D       65.0800   21.6120   14.5370 O.co2 1405  HEM1405     0.0000
@<TRIPOS>BOND
     1    30    27    1
     2    24    23    2
     3    23    20    1
     4    32    31    2
     5    27    28    2
     6    27    26    1
     7    31    28    1
     8     4    26    2
     9     4    21    1
    10    28    29    1
    11    26    25    1
    12    20    21   ar
    13    20    19   ar
    14    21    17   ar
    15    19    22    1
    16    19    18   ar
    17    29    25    2
    18    29     5    1
    19    25     1    1
    20    17    18   ar
    21    17     1    1
    22     5    34    2
    23    18     3    1
    24     1    33    1
    25     1     6    1
    26    34    33   ar
    27    34    35   ar
    28     3    10    2
    29    33    37   ar
    30    38    35    1
    31    35    36   ar
    32     6    10    1
    33     6     7    2
    34    10     9    1
    35    37    36   ar
    36    37     2    2
    37    36    39    1
    38     7     2    1
    39     7     8    1
    40     9    11    1
    41     9     8    2
    42     8    12    1
    43    39    40    1
    44    13    12    1
    45    13    14    1
    46    40    41    1
    47    14    15   ar
    48    14    16   ar
    49    41    43   ar
    50    41    42   ar
