@<TRIPOS>MOLECULE
2uuu_PL3_A_1.pdb
 17 16 0 0 0
SMALL
GASTEIGER

@<TRIPOS>ATOM
      1  C1        35.2170  -22.1770    8.9640 C.2   1588  PL31588     0.2074
      2  O1        34.3270  -21.3370    9.0940 O.2   1588  PL31588    -0.2883
      3  C2        35.1880  -23.4260    9.7980 C.3   1588  PL31588     0.0722
      4  C3        33.7610  -23.9730    9.8790 C.3   1588  PL31588     0.0082
      5  C4        33.2670  -23.9970   11.3140 C.3   1588  PL31588     0.0005
      6  C5        31.7530  -24.0390   11.3420 C.3   1588  PL31588     0.0000
      7  C6        31.2740  -25.2500   10.5740 C.3   1588  PL31588     0.0000
      8  C7        30.1500  -25.9210   11.3430 C.3   1588  PL31588     0.0000
      9  C8        29.0820  -26.4250   10.3980 C.3   1588  PL31588     0.0000
     10  C9        28.1970  -27.3890   11.1650 C.3   1588  PL31588     0.0000
     11  CA        27.3940  -28.3060   10.2730 C.3   1588  PL31588     0.0000
     12  CB        27.5530  -29.7280   10.7650 C.3   1588  PL31588     0.0000
     13  CC        26.2880  -30.5230   10.4960 C.3   1588  PL31588     0.0000
     14  CD        26.3410  -31.8810   11.1700 C.3   1588  PL31588     0.0000
     15  CE        26.4100  -33.0140   10.1500 C.3   1588  PL31588     0.0000
     16  CF        25.2490  -33.9570   10.3940 C.3   1588  PL31588     0.0000
     17  CG        25.1690  -35.0380    9.3380 C.3   1588  PL31588     0.0000
@<TRIPOS>BOND
     1     1     2    2
     2     1     3    1
     3    17    16    1
     4     3     4    1
     5     4     5    1
     6    15    16    1
     7    15    14    1
     8    11    12    1
     9    11    10    1
    10     9    10    1
    11     9     8    1
    12    13    12    1
    13    13    14    1
    14     7     6    1
    15     7     8    1
    16     5     6    1
