@<TRIPOS>MOLECULE
2uuv_PL3_A_1.pdb
 17 16 0 0 0
SMALL
GASTEIGER

@<TRIPOS>ATOM
      1  C1        11.6620   41.1830   15.8930 C.2   1586  PL31586     0.2074
      2  O1        12.8520   41.2720   15.5240 O.2   1586  PL31586    -0.2883
      3  C2        10.7110   42.3660   16.1440 C.3   1586  PL31586     0.0722
      4  C3         9.4890   42.0210   17.0180 C.3   1586  PL31586     0.0082
      5  C4         8.2210   42.7960   16.6670 C.3   1586  PL31586     0.0005
      6  C5         7.7000   42.3550   15.2910 C.3   1586  PL31586     0.0000
      7  C6         6.1910   42.4520   15.1350 C.3   1586  PL31586     0.0000
      8  C7         5.8530   42.2490   13.6770 C.3   1586  PL31586     0.0000
      9  C8         4.8290   43.2590   13.1800 C.3   1586  PL31586     0.0000
     10  C9         4.1770   42.7320   11.9120 C.3   1586  PL31586     0.0000
     11  CA         3.6610   43.8800   11.0810 C.3   1586  PL31586     0.0000
     12  CB         2.8490   43.3430    9.9010 C.3   1586  PL31586     0.0000
     13  CC         2.9440   44.2110    8.6580 C.3   1586  PL31586     0.0000
     14  CD         2.0740   43.6600    7.5330 C.3   1586  PL31586     0.0000
     15  CE         2.6480   44.0030    6.1550 C.3   1586  PL31586     0.0000
     16  CF         1.5790   44.0160    5.0670 C.3   1586  PL31586     0.0000
     17  CG         2.1910   44.1720    3.6840 C.3   1586  PL31586     0.0000
@<TRIPOS>BOND
     1    17    16    1
     2    16    15    1
     3    15    14    1
     4    14    13    1
     5    13    12    1
     6    12    11    1
     7    11    10    1
     8    10     9    1
     9     9     8    1
    10     8     7    1
    11     7     6    1
    12     6     5    1
    13     2     1    2
    14     1     3    1
    15     3     4    1
    16     5     4    1
