@<TRIPOS>MOLECULE
2uv0_OHN_E_1.pdb
 21 21 0 0 0
SMALL
GASTEIGER

@<TRIPOS>ATOM
      1  C21       28.3160   19.0630   77.6520 C.3   1169  OHN1169     0.0000
      2  C20       27.3120   19.9330   76.8880 C.3   1169  OHN1169     0.0000
      3  C19       26.3990   19.0520   76.0360 C.3   1169  OHN1169     0.0000
      4  C18       25.3050   19.8500   75.3250 C.3   1169  OHN1169     0.0000
      5  C17       24.1130   20.0650   76.2440 C.3   1169  OHN1169     0.0000
      6  C16       23.3810   18.7550   76.5110 C.3   1169  OHN1169     0.0000
      7  C15       22.3840   18.9340   77.6430 C.3   1169  OHN1169     0.0004
      8  C14       21.9100   17.5700   78.1350 C.3   1169  OHN1169     0.0078
      9  C13       23.0430   16.8370   78.8470 C.3   1169  OHN1169     0.0650
     10  C11       22.5280   15.7240   79.7620 C.2   1169  OHN1169     0.1599
     11  O12       21.3300   15.4480   79.8300 O.2   1169  OHN1169    -0.2955
     12  C10       23.5630   14.9560   80.5950 C.3   1169  OHN1169     0.1510
     13  C8        22.9080   13.7010   81.1810 C.2   1169  OHN1169     0.2493
     14  O9        22.7820   12.6780   80.5170 O.2   1169  OHN1169    -0.2729
     15  N7        22.5000   13.8170   82.4370 N.am  1169  OHN1169    -0.1952
     16  C1        21.8560   12.7200   83.1570 C.3   1169  OHN1169     0.1971
     17  C5        22.4170   12.6120   84.5690 C.3   1169  OHN1169     0.0805
     18  C4        21.2090   12.0350   85.3040 C.3   1169  OHN1169     0.2109
     19  C2        20.4030   13.0490   83.4380 C.2   1169  OHN1169     0.3371
     20  O6        19.6790   13.6880   82.6790 O.2   1169  OHN1169    -0.2482
     21  OAP       20.0100   12.5480   84.6380 O.3   1169  OHN1169    -0.4473
@<TRIPOS>BOND
     1     4     3    1
     2     4     5    1
     3     3     2    1
     4     5     6    1
     5     6     7    1
     6     2     1    1
     7     7     8    1
     8     8     9    1
     9     9    10    1
    10    10    11    2
    11    10    12    1
    12    14    13    2
    13    12    13    1
    14    13    15   am
    15    15    16    1
    16    20    19    2
    17    16    19    1
    18    16    17    1
    19    19    21    1
    20    17    18    1
    21    21    18    1
