@<TRIPOS>MOLECULE
2uv2_GVD_A_1.pdb
 29 33 0 0 0
SMALL
GASTEIGER

@<TRIPOS>ATOM
      1  CAL      -31.4650   44.6280   -6.2290 C.3   1316  GVD1316     0.0061
      2  CAM      -32.3880   45.7320   -6.7790 C.3   1316  GVD1316     0.0061
      3  CBB      -32.1830   45.5780   -5.2640 C.3   1316  GVD1316     0.0406
      4  CAX      -31.2930   46.6440   -4.5760 C.2   1316  GVD1316     0.0951
      5  CAK      -30.5230   47.5740   -5.1690 C.3   1316  GVD1316     0.1690
      6  NAS      -31.2220   46.7500   -3.2450 N.2   1316  GVD1316    -0.0426
      7  NAN      -30.4570   47.6810   -3.0100 N.2   1316  GVD1316     0.0793
      8  CAV      -29.9900   48.2320   -4.1300 C.2   1316  GVD1316     0.3768
      9  NAR      -29.0930   49.2540   -4.0550 N.pl3 1316  GVD1316     0.0227
     10  C6       -28.5700   49.9950   -5.0570 C.2   1316  GVD1316     0.3131
     11  N1       -28.6560   49.5970   -6.3290 N.2   1316  GVD1316    -0.2868
     12  C5       -27.8950   51.2090   -4.8010 C.3   1316  GVD1316     0.1716
     13  CAJ      -27.7310   51.6970   -3.5050 C.2   1316  GVD1316    -0.0084
     14  CAD      -27.0620   52.9040   -3.2850 C.2   1316  GVD1316    -0.0036
     15  CAC      -26.5500   53.6370   -4.3470 C.2   1316  GVD1316     0.0020
     16  CAI      -26.7020   53.1530   -5.6400 C.2   1316  GVD1316     0.0294
     17  C4       -27.3710   51.9450   -5.8700 C.2   1316  GVD1316     0.1369
     18  N3       -27.5150   51.4930   -7.1320 N.2   1316  GVD1316    -0.3303
     19  C2       -28.1450   50.3200   -7.3490 C.1   1316  GVD1316     0.2272
     20  NAQ      -28.2950   49.8610   -8.5900 N.pl3 1316  GVD1316    -0.1254
     21  CAU      -28.6420   48.5790   -8.8060 C.ar  1316  GVD1316     0.0835
     22  CAG      -27.8940   47.5270   -8.2690 C.ar  1316  GVD1316     0.0171
     23  CAE      -28.2650   46.2020   -8.4990 C.ar  1316  GVD1316    -0.0019
     24  CAB      -30.8520   44.4330  -10.5850 C.1   1316  GVD1316     0.0780
     25  NAA      -31.5290   44.4710  -11.5160 N.1   1316  GVD1316    -0.1955
     26  CAF      -30.1340   46.9800   -9.8170 C.ar  1316  GVD1316    -0.0019
     27  CAH      -29.7640   48.2990   -9.5840 C.ar  1316  GVD1316     0.0171
     28  CA0      -29.8070   44.4670   -9.5420 C.3   1316  GVD1316     0.1316
     29  CAT      -29.3860   45.9270   -9.2790 C.ar  1316  GVD1316    -0.0070
@<TRIPOS>BOND
     1    25    24    3
     2    24    28    1
     3    26    27   ar
     4    26    29   ar
     5    27    21   ar
     6    28    29    1
     7    29    23   ar
     8    21    20    1
     9    21    22   ar
    10    20    19    1
    11    23    22   ar
    12    19    18    2
    13    19    11    2
    14    18    17    2
    15     2     1    1
    16     2     3    1
    17    11    10    2
    18     1     3    1
    19    17    16    1
    20    17    12    1
    21    16    15    2
    22     3     4    1
    23     5     4    1
    24     5     8    1
    25    10    12    1
    26    10     9    1
    27    12    13    1
    28     4     6    2
    29    15    14    1
    30     8     9    1
    31     8     7    2
    32    13    14    2
    33     6     7    1
