@<TRIPOS>MOLECULE
2uv4_AMP_A_1.pdb
 23 25 0 0 0
SMALL
GASTEIGER

@<TRIPOS>ATOM
      1  P         18.6890   22.1240   28.5130 P.3   1324  AMP1324     0.5327
      2  O1P       18.2870   20.7210   28.6780 O.3   1324  AMP1324    -0.1145
      3  O2P       17.7520   22.5700   27.3460 O.2   1324  AMP1324    -0.2224
      4  O3P       20.0920   22.5550   28.0210 O.3   1324  AMP1324    -0.1145
      5  O5'       18.1230   23.0660   29.6340 O.3   1324  AMP1324    -0.2675
      6  C5'       18.4240   24.4830   29.6360 C.3   1324  AMP1324     0.1860
      7  C4'       17.6610   25.1100   30.7740 C.3   1324  AMP1324     0.1823
      8  O4'       16.2310   25.0080   30.4860 O.3   1324  AMP1324    -0.3135
      9  C3'       17.8790   24.4270   32.1380 C.3   1324  AMP1324     0.2184
     10  O3'       18.0750   25.3930   33.1550 O.3   1324  AMP1324    -0.2174
     11  C2'       16.5900   23.6000   32.3190 C.3   1324  AMP1324     0.2570
     12  O2'       16.2870   23.3640   33.6890 O.3   1324  AMP1324    -0.2130
     13  C1'       15.5670   24.5180   31.6350 C.3   1324  AMP1324     0.3186
     14  N9        14.3620   23.8190   31.1820 N.pl3 1324  AMP1324    -0.1439
     15  C8        14.2850   22.5880   30.5570 C.3   1324  AMP1324     0.3377
     16  N7        13.0390   22.2490   30.2370 N.2   1324  AMP1324    -0.2095
     17  C5        12.2670   23.3520   30.6900 C.2   1324  AMP1324     0.2526
     18  C6        10.9060   23.6120   30.6730 C.2   1324  AMP1324     0.4393
     19  N6         9.9810   22.7260   30.1880 N.pl3 1324  AMP1324     0.2180
     20  N1        10.4700   24.7810   31.1780 N.2   1324  AMP1324     0.0021
     21  C2        11.3800   25.6180   31.6780 C.3   1324  AMP1324     0.5254
     22  N3        12.7010   25.4730   31.7600 N.2   1324  AMP1324    -0.0055
     23  C4        13.0840   24.3060   31.2390 C.2   1324  AMP1324     0.3518
@<TRIPOS>BOND
     1     3     1    2
     2     4     1    1
     3     1     2    1
     4     1     5    1
     5     5     6    1
     6     6     7    1
     7    19    18    1
     8    16    15    1
     9    16    17    2
    10     8     7    1
    11     8    13    1
    12    15    14    1
    13    18    17    1
    14    18    20    2
    15    17    23    1
    16     7     9    1
    17    20    21    1
    18    14    23    1
    19    14    13    1
    20    23    22    2
    21    13    11    1
    22    21    22    1
    23     9    11    1
    24     9    10    1
    25    11    12    1
