@<TRIPOS>MOLECULE
2uv5_AMZ_A_1.pdb
 22 23 0 0 0
SMALL
GASTEIGER

@<TRIPOS>ATOM
      1  O5        10.7020   24.8840   31.2730 O.2   1324  AMZ1324    -0.2653
      2  C6        11.2320   23.8280   31.0700 C.2   1324  AMZ1324     0.3002
      3  N2        10.5830   22.7310   30.6870 N.am  1324  AMZ1324    -0.0826
      4  C3A       12.6490   23.7160   31.2350 C.2   1324  AMZ1324     0.1445
      5  C7A       13.4990   24.6910   31.7430 C.3   1324  AMZ1324     0.1990
      6  N3        13.2300   25.9330   32.2090 N.3   1324  AMZ1324    -0.1080
      7  N1        13.3480   22.5890   30.8700 N.2   1324  AMZ1324    -0.2490
      8  C5        14.6130   22.8830   31.1700 C.3   1324  AMZ1324     0.2039
      9  N         14.7510   24.1290   31.7190 N.3   1324  AMZ1324    -0.2080
     10  C1        15.9970   24.7470   32.1180 C.3   1324  AMZ1324     0.2123
     11  C2        17.0090   23.7550   32.7220 C.3   1324  AMZ1324     0.2272
     12  C3        18.3320   24.5050   32.4290 C.3   1324  AMZ1324     0.2155
     13  O2        18.6810   25.4230   33.4580 O.3   1324  AMZ1324    -0.2176
     14  O1        16.7770   23.5600   34.1140 O.3   1324  AMZ1324    -0.2161
     15  O         16.6290   25.2240   30.9120 O.3   1324  AMZ1324    -0.3353
     16  C         18.0530   25.2470   31.1030 C.3   1324  AMZ1324     0.1798
     17  C4        18.6930   24.6340   29.8850 C.3   1324  AMZ1324     0.1859
     18  O3        18.3790   23.2280   29.9270 O.3   1324  AMZ1324    -0.2675
     19  P         18.8700   22.2720   28.7750 P.3   1324  AMZ1324     0.5327
     20  OP1       18.1470   22.6770   27.5350 O.2   1324  AMZ1324    -0.2224
     21  O4        20.3960   22.4860   28.5800 O.3   1324  AMZ1324    -0.1145
     22  OP2       18.5590   20.7980   29.0980 O.3   1324  AMZ1324    -0.1145
@<TRIPOS>BOND
     1    20    19    2
     2    21    19    1
     3    19    22    1
     4    19    18    1
     5    17    18    1
     6    17    16    1
     7     3     2   am
     8     7     8    1
     9     7     4    2
    10    15    16    1
    11    15    10    1
    12     2     4    1
    13     2     1    2
    14    16    12    1
    15     8     9    1
    16     4     5    1
    17     9     5    1
    18     9    10    1
    19     5     6    1
    20    10    11    1
    21    12    11    1
    22    12    13    1
    23    11    14    1
