@<TRIPOS>MOLECULE
2uv6_AMP_A_1.pdb
 35 37 0 0 0
SMALL
GASTEIGER

@<TRIPOS>ATOM
      1  P         18.5250   22.3750   28.3360 P.3   1324  AMP1324     0.5320
      2  O1P       18.3870   20.9230   28.5360 O.3   1324  AMP1324    -0.1145
      3  O2P       17.6640   22.9860   27.2020 O.2   1324  AMP1324    -0.2224
      4  O3P       20.0050   22.7710   28.0650 O.3   1324  AMP1324    -0.1145
      5  O5'       18.1310   23.2270   29.5980 O.3   1324  AMP1324    -0.2809
      6  C5'       18.3460   24.6450   29.6600 C.3   1324  AMP1324     0.0880
      7  C4'       17.4980   25.2060   30.7740 C.3   1324  AMP1324     0.1132
      8  O4'       16.1060   25.0660   30.4110 O.3   1324  AMP1324    -0.3474
      9  C3'       17.6690   24.4730   32.1320 C.3   1324  AMP1324     0.1133
     10  O3'       17.8800   25.3670   33.2150 O.3   1324  AMP1324    -0.3864
     11  C2'       16.3620   23.6650   32.2670 C.3   1324  AMP1324     0.1266
     12  O2'       15.9440   23.4770   33.6130 O.3   1324  AMP1324    -0.3849
     13  C1'       15.3740   24.6020   31.5480 C.3   1324  AMP1324     0.1617
     14  N9        14.1540   23.9350   31.0890 N.pl3 1324  AMP1324    -0.2234
     15  C8        14.0610   22.6880   30.5000 C.2   1324  AMP1324     0.1451
     16  N7        12.8190   22.3490   30.1890 N.2   1324  AMP1324    -0.3871
     17  C5        12.0620   23.4200   30.6100 C.2   1324  AMP1324     0.2211
     18  C6        10.6990   23.6600   30.5900 C.2   1324  AMP1324     0.2227
     19  N6         9.8210   22.8040   30.0950 N.pl3 1324  AMP1324    -0.3300
     20  N1        10.2300   24.8370   31.0620 N.2   1324  AMP1324    -0.3296
     21  C2        11.1200   25.7030   31.5600 C.1   1324  AMP1324     0.0930
     22  N3        12.4460   25.5750   31.6660 N.2   1324  AMP1324    -0.3287
     23  C4        12.8660   24.4000   31.1680 C.2   1324  AMP1324     0.2354
     24 H5'1       18.0630   25.1070   28.7140 H     1324  AMP1324     0.0592
     25 H5'2       19.3980   24.8540   29.8570 H     1324  AMP1324     0.0592
     26  H4'       17.7380   26.2630   30.8870 H     1324  AMP1324     0.0647
     27  H3'       18.5190   23.7930   32.0850 H     1324  AMP1324     0.0647
     28 HO3'       18.6980   25.8610   33.0500 H     1324  AMP1324     0.2100
     29  H2'       16.4560   22.6990   31.7730 H     1324  AMP1324     0.0663
     30 HO2'       15.6600   22.5590   33.7210 H     1324  AMP1324     0.2101
     31  H1'       15.0860   25.4420   32.1780 H     1324  AMP1324     0.0841
     32  H8        14.9140   22.0590   30.3040 H     1324  AMP1324     0.1149
     33 HN61       10.1120   21.9070   29.8930 H     1324  AMP1324     0.1448
     34 HN62        8.9200   23.1030   29.9160 H     1324  AMP1324     0.1448
     35  H2        10.7080   26.6210   31.9520 H     1324  AMP1324     0.1751
@<TRIPOS>BOND
     1     3     1    2
     2     4     1    1
     3     1     2    1
     4     1     5    1
     5    24     6    1
     6     5     6    1
     7     6    25    1
     8     6     7    1
     9    33    19    1
    10    34    19    1
    11    19    18    1
    12    16    15    2
    13    16    17    2
    14    32    15    1
    15     8     7    1
    16     8    13    1
    17    15    14    1
    18    18    17    1
    19    18    20    2
    20    17    23    1
    21     7    26    1
    22     7     9    1
    23    20    21    2
    24    14    23    1
    25    14    13    1
    26    23    22    2
    27    13    31    1
    28    13    11    1
    29    21    22    2
    30    21    35    1
    31    29    11    1
    32    27     9    1
    33     9    11    1
    34     9    10    1
    35    11    12    1
    36    28    10    1
    37    12    30    1
