@<TRIPOS>MOLECULE
2uv7_AMP_A_1.pdb
 35 37 0 0 0
SMALL
GASTEIGER

@<TRIPOS>ATOM
      1  P         18.6640   23.4880   28.4010 P.3   1324  AMP1324     0.5320
      2  O1P       18.3950   22.0560   28.5030 O.3   1324  AMP1324    -0.1145
      3  O2P       17.8000   24.1910   27.3140 O.2   1324  AMP1324    -0.2224
      4  O3P       20.1570   23.8380   28.1540 O.3   1324  AMP1324    -0.1145
      5  O5'       18.2900   24.3180   29.6920 O.3   1324  AMP1324    -0.2809
      6  C5'       18.4860   25.7370   29.7790 C.3   1324  AMP1324     0.0880
      7  C4'       17.6290   26.2420   30.9160 C.3   1324  AMP1324     0.1132
      8  O4'       16.2320   26.0970   30.5390 O.3   1324  AMP1324    -0.3474
      9  C3'       17.8160   25.4610   32.2390 C.3   1324  AMP1324     0.1133
     10  O3'       18.0240   26.3060   33.3610 O.3   1324  AMP1324    -0.3864
     11  C2'       16.5090   24.6450   32.3610 C.3   1324  AMP1324     0.1266
     12  O2'       16.1350   24.3940   33.7080 O.3   1324  AMP1324    -0.3849
     13  C1'       15.5060   25.5740   31.6480 C.3   1324  AMP1324     0.1617
     14  N9        14.3180   24.8780   31.1590 N.pl3 1324  AMP1324    -0.2234
     15  C8        14.2510   23.6440   30.5440 C.2   1324  AMP1324     0.1451
     16  N7        12.9860   23.2880   30.2380 N.2   1324  AMP1324    -0.3871
     17  C5        12.2180   24.3610   30.6790 C.2   1324  AMP1324     0.2211
     18  C6        10.8490   24.5980   30.6800 C.2   1324  AMP1324     0.2227
     19  N6         9.9690   23.7440   30.1770 N.pl3 1324  AMP1324    -0.3300
     20  N1        10.3800   25.7700   31.1790 N.2   1324  AMP1324    -0.3296
     21  C2        11.2730   26.6250   31.6900 C.1   1324  AMP1324     0.0930
     22  N3        12.6020   26.5040   31.7630 N.2   1324  AMP1324    -0.3287
     23  C4        13.0240   25.3400   31.2380 C.2   1324  AMP1324     0.2354
     24 H5'1       18.1850   26.2160   28.8480 H     1324  AMP1324     0.0592
     25 H5'2       19.5340   25.9580   29.9770 H     1324  AMP1324     0.0592
     26  H4'       17.8540   27.2980   31.0680 H     1324  AMP1324     0.0647
     27  H3'       18.6680   24.7860   32.1630 H     1324  AMP1324     0.0647
     28 HO3'       18.8150   26.8450   33.1950 H     1324  AMP1324     0.2100
     29  H2'       16.6140   23.6960   31.8390 H     1324  AMP1324     0.0663
     30 HO2'       15.7120   23.5260   33.7520 H     1324  AMP1324     0.2101
     31  H1'       15.1820   26.3860   32.2980 H     1324  AMP1324     0.0841
     32  H8        15.1100   23.0230   30.3390 H     1324  AMP1324     0.1149
     33 HN61       10.2750   22.8860   29.8720 H     1324  AMP1324     0.1448
     34 HN62        9.0450   24.0130   30.1030 H     1324  AMP1324     0.1448
     35  H2        10.8650   27.5390   32.0950 H     1324  AMP1324     0.1751
@<TRIPOS>BOND
     1     3     1    2
     2     4     1    1
     3     1     2    1
     4     1     5    1
     5    24     6    1
     6     5     6    1
     7     6    25    1
     8     6     7    1
     9    33    19    1
    10    34    19    1
    11    19    18    1
    12    16    15    2
    13    16    17    2
    14    32    15    1
    15     8     7    1
    16     8    13    1
    17    15    14    1
    18    17    18    1
    19    17    23    1
    20    18    20    2
    21     7    26    1
    22     7     9    1
    23    14    23    1
    24    14    13    1
    25    20    21    2
    26    23    22    2
    27    13    31    1
    28    13    11    1
    29    21    22    2
    30    21    35    1
    31    29    11    1
    32    27     9    1
    33     9    11    1
    34     9    10    1
    35    11    12    1
    36    28    10    1
    37    12    30    1
