@<TRIPOS>MOLECULE
2uv8_FMN_G_1.pdb
 31 33 0 0 0
SMALL
GASTEIGER

@<TRIPOS>ATOM
      1  N1        59.8200   22.0690 -101.0330 N.2   3051  FMN3051    -0.2887
      2  C2        59.0000   21.0080 -100.2950 C.1   3051  FMN3051     0.3669
      3  O2        59.6750   19.9230  -99.7180 O.2   3051  FMN3051    -0.1744
      4  N3        57.4880   21.1380 -100.1850 N.2   3051  FMN3051    -0.2300
      5  C4        56.7600   22.3000 -100.7910 C.1   3051  FMN3051     0.2513
      6  O4        55.3470   22.4000 -100.6840 O.2   3051  FMN3051    -0.2057
      7  C4A       57.5820   23.3630 -101.5240 C.2   3051  FMN3051     0.2703
      8  N5        56.9110   24.5580 -102.1580 N.2   3051  FMN3051    -0.3882
      9  C5A       57.7370   25.5860 -102.8920 C.2   3051  FMN3051     0.1277
     10  C6        57.0180   26.8280 -103.5600 C.3   3051  FMN3051     0.0820
     11  C7        57.8830   27.8980 -104.3260 C.2   3051  FMN3051    -0.0408
     12  C7M       57.1780   29.1100 -104.9710 C.3   3051  FMN3051     0.0265
     13  C8        59.4480   27.7360 -104.4260 C.2   3051  FMN3051    -0.0280
     14  C8M       60.3190   28.7730 -105.1590 C.3   3051  FMN3051     0.0304
     15  C9        60.1440   26.5120 -103.7690 C.2   3051  FMN3051     0.0123
     16  C9A       59.2720   25.4260 -102.9980 C.2   3051  FMN3051     0.0793
     17  N10       59.9450   24.2520 -102.3560 N.pl3 3051  FMN3051    -0.2545
     18  C10       59.1170   23.2200 -101.6260 C.2   3051  FMN3051     0.2449
     19  C1'       61.3980   24.0430 -102.4450 C.3   3051  FMN3051     0.1336
     20  C2'       61.7140   23.5260 -103.8870 C.3   3051  FMN3051     0.2048
     21  O2'       61.0120   22.3180 -104.0990 O.3   3051  FMN3051    -0.2185
     22  C3'       63.2280   23.2560 -104.0670 C.3   3051  FMN3051     0.2165
     23  O3'       63.7520   22.5390 -102.9670 O.3   3051  FMN3051    -0.2175
     24  C4'       63.9300   24.6180 -104.2210 C.3   3051  FMN3051     0.2147
     25  O4'       63.0030   25.5070 -104.8170 O.3   3051  FMN3051    -0.2176
     26  C5'       65.0900   24.4820 -105.2170 C.3   3051  FMN3051     0.1892
     27  O5'       65.7390   25.7220 -105.1810 O.3   3051  FMN3051    -0.2674
     28  P         65.7740   26.6240 -106.5540 P.3   3051  FMN3051     0.5327
     29  O1P       66.7210   27.7380 -106.3910 O.3   3051  FMN3051    -0.1145
     30  O2P       66.1730   25.6170 -107.8070 O.2   3051  FMN3051    -0.2224
     31  O3P       64.2600   27.2300 -106.7630 O.3   3051  FMN3051    -0.1145
@<TRIPOS>BOND
     1    30    28    2
     2    31    28    1
     3    28    29    1
     4    28    27    1
     5    26    27    1
     6    26    24    1
     7    14    13    1
     8    12    11    1
     9    25    24    1
    10    13    11    2
    11    13    15    1
    12    11    10    1
    13    24    22    1
    14    21    20    1
    15    22    20    1
    16    22    23    1
    17    20    19    1
    18    15    16    2
    19    10     9    1
    20    16     9    1
    21    16    17    1
    22     9     8    2
    23    19    17    1
    24    17    18    1
    25     8     7    2
    26    18     7    1
    27    18     1    2
    28     7     5    1
    29     1     2    2
    30     5     6    2
    31     5     4    2
    32     2     4    2
    33     2     3    2
