@<TRIPOS>MOLECULE
2uva_FMN_G_1.pdb
 31 33 0 0 0
SMALL
GASTEIGER

@<TRIPOS>ATOM
      1  N1        50.4550  -55.4840  -25.1600 N.2   3079  FMN3079    -0.2887
      2  C2        49.0570  -54.8550  -24.9570 C.1   3079  FMN3079     0.3669
      3  O2        47.9500  -55.6340  -24.5550 O.2   3079  FMN3079    -0.1744
      4  N3        48.8740  -53.3690  -25.1900 N.2   3079  FMN3079    -0.2300
      5  C4        50.0350  -52.5300  -25.6080 C.1   3079  FMN3079     0.2513
      6  O4        49.8380  -51.1580  -25.8270 O.2   3079  FMN3079    -0.2057
      7  C4A       51.4150  -53.1490  -25.8050 C.2   3079  FMN3079     0.2703
      8  N5        52.5730  -52.2840  -26.2280 N.2   3079  FMN3079    -0.3882
      9  C5A       53.9350  -52.8880  -26.4380 C.2   3079  FMN3079     0.1277
     10  C6        55.1620  -51.9990  -26.8870 C.3   3079  FMN3079     0.0820
     11  C7        56.5770  -52.6520  -27.0970 C.2   3079  FMN3079    -0.0408
     12  C7M       57.7840  -51.7950  -27.5450 C.3   3079  FMN3079     0.0265
     13  C8        56.7710  -54.1880  -26.8610 C.2   3079  FMN3079    -0.0280
     14  C8M       58.1640  -54.8270  -27.0740 C.3   3079  FMN3079     0.0304
     15  C9        55.5660  -55.0670  -26.4190 C.2   3079  FMN3079     0.0123
     16  C9A       54.1400  -54.3960  -26.2020 C.2   3079  FMN3079     0.0793
     17  N10       53.0010  -55.2600  -25.7720 N.pl3 3079  FMN3079    -0.2545
     18  C10       51.6140  -54.6580  -25.5860 C.2   3079  FMN3079     0.2449
     19  C1'       53.2810  -56.6890  -25.5950 C.3   3079  FMN3079     0.1336
     20  C2'       52.6690  -57.4470  -26.8070 C.3   3079  FMN3079     0.2048
     21  O2'       51.3110  -57.1300  -27.0250 O.3   3079  FMN3079    -0.2185
     22  C3'       52.8620  -58.9820  -26.7150 C.3   3079  FMN3079     0.2165
     23  O3'       52.0010  -59.5130  -25.7290 O.3   3079  FMN3079    -0.2175
     24  C4'       54.3500  -59.3510  -26.4120 C.3   3079  FMN3079     0.2147
     25  O4'       55.2280  -58.3380  -26.8660 O.3   3079  FMN3079    -0.2176
     26  C5'       54.7700  -60.6530  -27.1330 C.3   3079  FMN3079     0.1892
     27  O5'       56.0020  -61.0380  -26.5760 O.3   3079  FMN3079    -0.2674
     28  P         57.3440  -61.0270  -27.5290 P.3   3079  FMN3079     0.5327
     29  O1P       58.4280  -61.7910  -26.8920 O.3   3079  FMN3079    -0.1145
     30  O2P       56.9540  -61.6300  -29.0280 O.2   3079  FMN3079    -0.2224
     31  O3P       57.8200  -59.4520  -27.6400 O.3   3079  FMN3079    -0.1145
@<TRIPOS>BOND
     1    30    28    2
     2    31    28    1
     3    12    11    1
     4    28    29    1
     5    28    27    1
     6    26    27    1
     7    26    24    1
     8    11    10    1
     9    11    13    2
    10    14    13    1
    11    21    20    1
    12    10     9    1
    13    25    24    1
    14    13    15    1
    15    20    22    1
    16    20    19    1
    17    22    24    1
    18    22    23    1
    19     9     8    2
    20     9    16    1
    21    15    16    2
    22     8     7    2
    23    16    17    1
    24     6     5    2
    25     7     5    1
    26     7    18    1
    27    17    19    1
    28    17    18    1
    29     5     4    2
    30    18     1    2
    31     4     2    2
    32     1     2    2
    33     2     3    2
