@<TRIPOS>MOLECULE
2uvb_NAP_A_1.pdb
 48 52 0 0 0
SMALL
GASTEIGER

@<TRIPOS>ATOM
      1  PA        41.9690   30.2380   -9.5300 P.3   2716  NAP2716     0.2189
      2  O1A       41.9110   28.8050   -9.9310 O.2   2716  NAP2716    -0.5170
      3  O2A       40.6150   30.8500   -9.4960 O.3   2716  NAP2716    -0.4371
      4  O5B       42.7540   30.4590   -8.1380 O.3   2716  NAP2716    -0.3112
      5  C5B       42.0530   30.6170   -6.9300 C.3   2716  NAP2716     0.1813
      6  C4B       43.0160   30.6690   -5.7560 C.3   2716  NAP2716     0.1820
      7  O4B       42.3870   31.3510   -4.6950 O.3   2716  NAP2716    -0.3136
      8  C3B       43.3440   29.2840   -5.2190 C.3   2716  NAP2716     0.2157
      9  O3B       44.5810   28.8250   -5.7110 O.3   2716  NAP2716    -0.2175
     10  C2B       43.3690   29.4220   -3.7050 C.3   2716  NAP2716     0.2314
     11  O2B       44.6880   29.4830   -3.2030 O.3   2716  NAP2716    -0.2630
     12  C1B       42.6860   30.7580   -3.4450 C.3   2716  NAP2716     0.3158
     13  N9A       41.4640   30.5360   -2.6430 N.pl3 2716  NAP2716    -0.1439
     14  C8A       40.3910   29.7470   -2.9800 C.3   2716  NAP2716     0.3377
     15  N7A       39.4900   29.8010   -1.9710 N.2   2716  NAP2716    -0.2095
     16  C5A       39.9700   30.6100   -0.9970 C.2   2716  NAP2716     0.2526
     17  C6A       39.4600   31.0080    0.2390 C.2   2716  NAP2716     0.4393
     18  N6A       38.2710   30.5720    0.6590 N.pl3 2716  NAP2716     0.2180
     19  N1A       40.1940   31.8640    1.0420 N.2   2716  NAP2716     0.0021
     20  C2A       41.4280   32.3090    0.6130 C.3   2716  NAP2716     0.5254
     21  N3A       41.9330   31.9100   -0.6120 N.2   2716  NAP2716    -0.0055
     22  C4A       41.2140   31.0750   -1.4050 C.2   2716  NAP2716     0.3518
     23  O3        42.9640   31.0010  -10.5350 O.3   2716  NAP2716    -0.2703
     24  PN        42.7860   32.4250  -11.2580 P.3   2716  NAP2716     0.2189
     25  O1N       44.1080   32.8460  -11.7740 O.3   2716  NAP2716    -0.4371
     26  O2N       41.6000   32.3650  -12.1460 O.2   2716  NAP2716    -0.5170
     27  O5D       42.4250   33.3840  -10.0190 O.3   2716  NAP2716    -0.3112
     28  C5D       43.2280   34.5000   -9.7230 C.3   2716  NAP2716     0.1813
     29  C4D       42.4380   35.7810   -9.9680 C.3   2716  NAP2716     0.1799
     30  O4D       42.2880   36.0230  -11.3520 O.3   2716  NAP2716    -0.3327
     31  C3D       41.0220   35.7400   -9.4110 C.3   2716  NAP2716     0.2158
     32  O3D       40.7970   36.8990   -8.6380 O.3   2716  NAP2716    -0.2175
     33  C2D       40.1680   35.7810  -10.6630 C.3   2716  NAP2716     0.2309
     34  O2D       38.8860   36.3360  -10.4820 O.3   2716  NAP2716    -0.2158
     35  C1D       41.0380   36.6320  -11.5630 C.3   2716  NAP2716     0.2263
     36  N1N       40.5500   36.4960  -12.9360 N.pl3 2716  NAP2716    -0.2787
     37  C2N       41.0910   35.5290  -13.7940 C.3   2716  NAP2716     0.1244
     38  C3N       40.6110   35.4090  -15.0960 C.2   2716  NAP2716     0.0544
     39  C7N       41.1880   34.3450  -16.0320 C.2   2716  NAP2716     0.2818
     40  O7N       40.7890   34.2030  -17.1910 O.2   2716  NAP2716    -0.2670
     41  N7N       42.1090   33.5410  -15.5000 N.am  2716  NAP2716    -0.0839
     42  C4N       39.5950   36.2700  -15.5200 C.2   2716  NAP2716     0.0033
     43  C5N       39.0610   37.2300  -14.6670 C.2   2716  NAP2716     0.0157
     44  C6N       39.5360   37.3430  -13.3670 C.2   2716  NAP2716     0.0633
     45  P2B       45.2770   28.3760   -2.1840 P.3   2716  NAP2716     0.5328
     46  O1X       46.6490   28.8180   -1.7320 O.3   2716  NAP2716    -0.1145
     47  O2X       45.3840   27.0470   -2.9000 O.2   2716  NAP2716    -0.2224
     48  O3X       44.3540   28.2480   -0.9890 O.3   2716  NAP2716    -0.1145
@<TRIPOS>BOND
     1    40    39    2
     2    39    41   am
     3    39    38    1
     4    42    38    2
     5    42    43    1
     6    38    37    1
     7    43    44    2
     8    37    36    1
     9    44    36    1
    10    36    35    1
    11    26    24    2
    12    25    24    1
    13    35    30    1
    14    35    33    1
    15    30    29    1
    16    24    23    1
    17    24    27    1
    18    33    34    1
    19    33    31    1
    20    23     1    1
    21    27    28    1
    22    29    28    1
    23    29    31    1
    24     2     1    2
    25     1     3    1
    26     1     4    1
    27    31    32    1
    28     4     5    1
    29     5     6    1
    30     6     8    1
    31     6     7    1
    32     9     8    1
    33     8    10    1
    34     7    12    1
    35    10    12    1
    36    10    11    1
    37    12    13    1
    38    11    45    1
    39    14    13    1
    40    14    15    1
    41    47    45    2
    42    13    22    1
    43    45    46    1
    44    45    48    1
    45    15    16    2
    46    22    16    1
    47    22    21    2
    48    16    17    1
    49    21    20    1
    50    17    18    1
    51    17    19    2
    52    20    19    1
