@<TRIPOS>MOLECULE
2uvc_FMN_G_1.pdb
 31 33 0 0 0
SMALL
GASTEIGER

@<TRIPOS>ATOM
      1  N1        50.7750  -55.4190  -24.5410 N.2   3079  FMN3079    -0.2887
      2  C2        49.3780  -54.8270  -24.3090 C.1   3079  FMN3079     0.3669
      3  O2        48.3200  -55.6340  -23.8530 O.2   3079  FMN3079    -0.1744
      4  N3        49.1480  -53.3590  -24.5800 N.2   3079  FMN3079    -0.2300
      5  C4        50.2500  -52.4780  -25.0510 C.1   3079  FMN3079     0.2513
      6  O4        50.0170  -51.1090  -25.2840 O.2   3079  FMN3079    -0.2057
      7  C4A       51.6220  -53.0720  -25.2830 C.2   3079  FMN3079     0.2703
      8  N5        52.7280  -52.1870  -25.7640 N.2   3079  FMN3079    -0.3882
      9  C5A       54.0950  -52.7560  -26.0100 C.2   3079  FMN3079     0.1277
     10  C6        55.2700  -51.8300  -26.5200 C.3   3079  FMN3079     0.0820
     11  C7        56.6920  -52.4390  -26.7690 C.2   3079  FMN3079    -0.0408
     12  C7M       57.8380  -51.5480  -27.2750 C.3   3079  FMN3079     0.0265
     13  C8        56.9470  -53.9630  -26.5080 C.2   3079  FMN3079    -0.0280
     14  C8M       58.3520  -54.5600  -26.7490 C.3   3079  FMN3079     0.0304
     15  C9        55.7880  -54.8840  -26.0010 C.2   3079  FMN3079     0.0123
     16  C9A       54.3490  -54.2530  -25.7470 C.2   3079  FMN3079     0.0793
     17  N10       53.2510  -55.1290  -25.2580 N.pl3 3079  FMN3079    -0.2545
     18  C10       51.8710  -54.5610  -25.0320 C.2   3079  FMN3079     0.2449
     19  C1'       53.5360  -56.5450  -25.0470 C.3   3079  FMN3079     0.1336
     20  C2'       52.8270  -57.2900  -26.2160 C.3   3079  FMN3079     0.2048
     21  O2'       51.4690  -56.9490  -26.3490 O.3   3079  FMN3079    -0.2185
     22  C3'       52.9580  -58.8290  -26.1670 C.3   3079  FMN3079     0.2165
     23  O3'       52.1530  -59.3170  -25.1040 O.3   3079  FMN3079    -0.2175
     24  C4'       54.4600  -59.2570  -26.0340 C.3   3079  FMN3079     0.2147
     25  O4'       55.3380  -58.2400  -26.4810 O.3   3079  FMN3079    -0.2176
     26  C5'       54.8090  -60.4960  -26.8950 C.3   3079  FMN3079     0.1892
     27  O5'       55.9710  -61.0420  -26.3290 O.3   3079  FMN3079    -0.2674
     28  P         57.4180  -60.9170  -27.0900 P.3   3079  FMN3079     0.5327
     29  O1P       58.3860  -61.8890  -26.5500 O.3   3079  FMN3079    -0.1145
     30  O2P       57.1760  -61.0980  -28.7250 O.2   3079  FMN3079    -0.2224
     31  O3P       57.9870  -59.4150  -26.7280 O.3   3079  FMN3079    -0.1145
@<TRIPOS>BOND
     1    30    28    2
     2    12    11    1
     3    28    31    1
     4    28    29    1
     5    28    27    1
     6    26    27    1
     7    26    24    1
     8    11    10    1
     9    11    13    2
    10    14    13    1
    11    10     9    1
    12    13    15    1
    13    25    24    1
    14    21    20    1
    15    20    22    1
    16    20    19    1
    17    22    24    1
    18    22    23    1
    19     9     8    2
    20     9    16    1
    21    15    16    2
    22     8     7    2
    23    16    17    1
    24     6     5    2
    25     7     5    1
    26     7    18    1
    27    17    19    1
    28    17    18    1
    29     5     4    2
    30    18     1    2
    31     4     2    2
    32     1     2    2
    33     2     3    2
