@<TRIPOS>MOLECULE
2uvc_NAP_G_1.pdb
 48 52 0 0 0
SMALL
GASTEIGER

@<TRIPOS>ATOM
      1  PA        53.7190  -41.8700  -19.9540 P.3   3080  NAP3080     0.2189
      2  O1A       55.1840  -41.9480  -19.7470 O.2   3080  NAP3080    -0.5170
      3  O2A       52.9720  -42.3100  -18.7550 O.3   3080  NAP3080    -0.4371
      4  O5B       53.2500  -40.3830  -20.3700 O.3   3080  NAP3080    -0.3112
      5  C5B       52.9190  -40.0800  -21.7200 C.3   3080  NAP3080     0.1813
      6  C4B       52.2360  -38.7140  -21.7300 C.3   3080  NAP3080     0.1820
      7  O4B       53.0070  -37.7220  -22.3770 O.3   3080  NAP3080    -0.3136
      8  C3B       50.8840  -38.6780  -22.4380 C.3   3080  NAP3080     0.2157
      9  O3B       49.8620  -39.3080  -21.6890 O.3   3080  NAP3080    -0.2175
     10  C2B       50.7020  -37.1830  -22.7000 C.3   3080  NAP3080     0.2314
     11  O2B       50.0860  -36.3840  -21.6920 O.3   3080  NAP3080    -0.2630
     12  C1B       52.1440  -36.6730  -22.7840 C.3   3080  NAP3080     0.3158
     13  N9A       52.4420  -36.2000  -24.1530 N.pl3 3080  NAP3080    -0.1439
     14  C8A       53.3690  -36.6950  -25.0340 C.3   3080  NAP3080     0.3377
     15  N7A       53.3040  -35.9590  -26.1700 N.2   3080  NAP3080    -0.2095
     16  C5A       52.3550  -35.0090  -26.0310 C.2   3080  NAP3080     0.2526
     17  C6A       51.8790  -34.0080  -26.8670 C.2   3080  NAP3080     0.4393
     18  N6A       52.3720  -33.8450  -28.0820 N.pl3 3080  NAP3080     0.2180
     19  N1A       50.8780  -33.1660  -26.4390 N.2   3080  NAP3080     0.0021
     20  C2A       50.3440  -33.3220  -25.1760 C.3   3080  NAP3080     0.5254
     21  N3A       50.8190  -34.3210  -24.3490 N.2   3080  NAP3080    -0.0055
     22  C4A       51.8080  -35.1490  -24.7670 C.2   3080  NAP3080     0.3518
     23  O3        53.2650  -42.7090  -21.2570 O.3   3080  NAP3080    -0.2703
     24  PN        53.8370  -44.0630  -21.9040 P.3   3080  NAP3080     0.2189
     25  O1N       53.9860  -43.7960  -23.3540 O.2   3080  NAP3080    -0.5170
     26  O2N       55.0050  -44.4490  -21.0670 O.3   3080  NAP3080    -0.4371
     27  O5D       52.6510  -45.1500  -21.6840 O.3   3080  NAP3080    -0.3112
     28  C5D       51.4690  -45.1690  -22.4750 C.3   3080  NAP3080     0.1813
     29  C4D       50.4550  -46.1700  -21.9090 C.3   3080  NAP3080     0.1799
     30  O4D       50.7070  -47.4770  -22.3900 O.3   3080  NAP3080    -0.3327
     31  C3D       50.5490  -46.2630  -20.3920 C.3   3080  NAP3080     0.2158
     32  O3D       49.2520  -46.4910  -19.8940 O.3   3080  NAP3080    -0.2175
     33  C2D       51.4540  -47.4590  -20.1530 C.3   3080  NAP3080     0.2309
     34  O2D       51.2380  -48.1150  -18.9210 O.3   3080  NAP3080    -0.2158
     35  C1D       51.0750  -48.3430  -21.3260 C.3   3080  NAP3080     0.2263
     36  N1N       52.1620  -49.2540  -21.7320 N.pl3 3080  NAP3080    -0.2787
     37  C2N       51.9630  -50.6310  -21.5930 C.3   3080  NAP3080     0.1244
     38  C3N       52.9510  -51.5330  -21.9830 C.2   3080  NAP3080     0.0544
     39  C7N       52.7660  -53.0260  -21.8210 C.2   3080  NAP3080     0.2818
     40  O7N       53.6270  -53.8160  -22.2000 O.2   3080  NAP3080    -0.2670
     41  N7N       51.6730  -53.4110  -21.1680 N.am  3080  NAP3080    -0.0839
     42  C4N       54.1460  -51.0410  -22.5000 C.2   3080  NAP3080     0.0033
     43  C5N       54.3600  -49.6720  -22.6400 C.2   3080  NAP3080     0.0157
     44  C6N       53.3750  -48.7670  -22.2540 C.2   3080  NAP3080     0.0633
     45  P2B       48.6570  -36.5760  -20.9530 P.3   3080  NAP3080     0.5328
     46  O1X       47.9640  -35.2270  -20.9150 O.3   3080  NAP3080    -0.1145
     47  O2X       48.9360  -37.0320  -19.5330 O.3   3080  NAP3080    -0.1145
     48  O3X       47.7850  -37.5930  -21.6750 O.2   3080  NAP3080    -0.2224
@<TRIPOS>BOND
     1    18    17    1
     2    17    19    2
     3    17    16    1
     4    19    20    1
     5    15    16    2
     6    15    14    1
     7    16    22    1
     8    20    21    1
     9    14    13    1
    10    22    21    2
    11    22    13    1
    12    13    12    1
    13    25    24    2
    14    12    10    1
    15    12     7    1
    16    10     8    1
    17    10    11    1
    18    43    42    1
    19    43    44    2
    20    42    38    2
    21    28    29    1
    22    28    27    1
    23     8     6    1
    24     8     9    1
    25    30    29    1
    26    30    35    1
    27     7     6    1
    28    44    36    1
    29    40    39    2
    30    38    39    1
    31    38    37    1
    32    29    31    1
    33    24    27    1
    34    24    23    1
    35    24    26    1
    36    39    41   am
    37    36    37    1
    38    36    35    1
    39     6     5    1
    40     5     4    1
    41    11    45    1
    42    48    45    2
    43    35    33    1
    44    23     1    1
    45    45    46    1
    46    45    47    1
    47    31    33    1
    48    31    32    1
    49     4     1    1
    50    33    34    1
    51     1     2    2
    52     1     3    1
