@<TRIPOS>MOLECULE
2uvf_AD0_A_1.pdb
 25 26 0 0 0
SMALL
GASTEIGER

@<TRIPOS>ATOM
      1  C1        -4.6680   14.2110   98.1180 C.3   1617  AD01617     0.2700
      2  C2        -3.6290   15.1210   97.4310 C.3   1617  AD01617     0.2406
      3  C3        -2.3710   14.2720   97.1630 C.3   1617  AD01617     0.2203
      4  C4        -1.8130   13.6990   98.5030 C.3   1617  AD01617     0.2229
      5  C5        -2.9040   12.8570   99.2010 C.3   1617  AD01617     0.2529
      6  C6        -2.5750   12.2130  100.5760 C.2   1617  AD01617     0.3941
      7  O1        -4.9710   13.1530   97.1770 O.3   1617  AD01617    -0.3252
      8  O2        -4.1570   15.7030   96.2230 O.3   1617  AD01617    -0.2149
      9  O3        -1.3900   15.0270   96.4570 O.3   1617  AD01617    -0.2174
     10  O4        -1.3570   14.7430   99.3700 O.3   1617  AD01617    -0.2171
     11  O5        -4.1390   13.6220   99.3500 O.3   1617  AD01617    -0.3169
     12  O6        -3.4230   12.3750  101.4810 O.co2 1617  AD01617    -0.2429
     13  C1'       -6.4470   11.0650   94.8570 C.3   1617  AD01617     0.3028
     14  O60       -1.5090   11.5630  100.7080 O.co2 1617  AD01617    -0.2429
     15  C2'       -5.1720   10.8950   95.7090 C.3   1617  AD01617     0.2434
     16  C3'       -5.6290   10.8270   97.1840 C.3   1617  AD01617     0.2173
     17  C4'       -6.0460   12.2590   97.5600 C.3   1617  AD01617     0.1889
     18  C5'       -7.2570   12.6030   96.6740 C.3   1617  AD01617     0.2498
     19  C6'       -7.7260   14.0570   96.9120 C.2   1617  AD01617     0.3940
     20  O1'       -7.4420   10.0250   95.0870 O.3   1617  AD01617    -0.1869
     21  O2'       -4.3920    9.7870   95.3210 O.3   1617  AD01617    -0.2148
     22  O3'       -4.6400   10.2480   98.0710 O.3   1617  AD01617    -0.2175
     23  O5'       -6.9800   12.3750   95.2240 O.3   1617  AD01617    -0.3149
     24  O6'       -7.1490   14.9740   96.2730 O.co2 1617  AD01617    -0.2429
     25  OAP       -8.6640   14.2460   97.7280 O.co2 1617  AD01617    -0.2429
@<TRIPOS>BOND
     1    13    20    1
     2    13    23    1
     3    13    15    1
     4    23    18    1
     5    21    15    1
     6    15    16    1
     7     8     2    1
     8    24    19   ar
     9     9     3    1
    10    18    19    1
    11    18    17    1
    12    19    25   ar
    13     3     2    1
    14     3     4    1
    15     7    17    1
    16     7     1    1
    17    16    17    1
    18    16    22    1
    19     2     1    1
    20     1    11    1
    21     4     5    1
    22     4    10    1
    23     5    11    1
    24     5     6    1
    25     6    14   ar
    26     6    12   ar
