@<TRIPOS>MOLECULE
2uvh_ADA_A_1.pdb
 13 13 0 0 0
SMALL
GASTEIGER

@<TRIPOS>ATOM
      1  C1         7.7520   17.4280   44.5800 C.3   1431  ADA1431     0.3028
      2  C2         9.0360   17.0110   43.8510 C.3   1431  ADA1431     0.2435
      3  C3         8.7500   16.1660   42.6160 C.3   1431  ADA1431     0.2204
      4  C4         7.5940   15.2100   42.8000 C.3   1431  ADA1431     0.2229
      5  C5         6.3210   15.9370   43.2350 C.3   1431  ADA1431     0.2530
      6  C6         5.3450   14.8420   43.5770 C.2   1431  ADA1431     0.3941
      7  O1         7.3270   18.6590   44.1050 O.3   1431  ADA1431    -0.1869
      8  O2         9.8250   18.1510   43.4560 O.3   1431  ADA1431    -0.2148
      9  O3         9.9110   15.4530   42.2400 O.3   1431  ADA1431    -0.2174
     10  O4         7.8360   14.2820   43.8550 O.3   1431  ADA1431    -0.2171
     11  O5         6.5770   16.6230   44.4550 O.3   1431  ADA1431    -0.3149
     12  O6B        5.1360   14.7130   44.7660 O.co2 1431  ADA1431    -0.2429
     13  O6A        4.8060   14.0800   42.7330 O.co2 1431  ADA1431    -0.2429
@<TRIPOS>BOND
     1     9     3    1
     2     3     4    1
     3     3     2    1
     4    13     6   ar
     5     4     5    1
     6     4    10    1
     7     5     6    1
     8     5    11    1
     9     8     2    1
    10     6    12   ar
    11     2     1    1
    12     7     1    1
    13    11     1    1
