@<TRIPOS>MOLECULE
2uvi_UNG_A_1.pdb
 24 25 0 0 0
SMALL
GASTEIGER

@<TRIPOS>ATOM
      1  C1         8.3240   12.6840   43.8910 C.3   1431  UNG1431     0.2698
      2  C2         7.7200   11.8170   44.9860 C.3   1431  UNG1431     0.2380
      3  C3         8.3070   12.1490   46.3900 C.3   1431  UNG1431     0.1902
      4  C4         9.8170   12.1920   46.4140 C.3   1431  UNG1431     0.0771
      5  C5        10.4500   12.5790   45.0750 C.3   1431  UNG1431     0.2227
      6  C6        11.9430   12.7580   44.9870 C.2   1431  UNG1431     0.3915
      7  O1         7.8520   13.9570   44.1190 O.3   1431  UNG1431    -0.3252
      8  O2         6.2840   11.9220   44.9520 O.3   1431  UNG1431    -0.2150
      9  O3         7.9220   11.0710   47.2730 O.3   1431  UNG1431    -0.2201
     10  O5         9.7540   12.7660   43.8780 O.3   1431  UNG1431    -0.3193
     11  O6        12.3830   13.0840   43.8620 O.co2 1431  UNG1431    -0.2430
     12  C1'        7.7720   17.4180   44.2850 C.3   1431  UNG1431     0.3028
     13  C2'        9.0730   16.7740   43.7890 C.3   1431  UNG1431     0.2434
     14  C3'        8.8130   15.7530   42.6470 C.3   1431  UNG1431     0.2173
     15  C4'        7.7010   14.7400   42.9460 C.3   1431  UNG1431     0.1889
     16  C5'        6.4770   15.6050   43.1970 C.3   1431  UNG1431     0.2498
     17  C6'        5.3730   14.7180   43.7140 C.2   1431  UNG1431     0.3940
     18  O1'        7.4140   18.2190   43.2960 O.3   1431  UNG1431    -0.1869
     19  O2'        9.9530   17.7900   43.3300 O.3   1431  UNG1431    -0.2148
     20  O3'        9.9720   15.0250   42.3330 O.3   1431  UNG1431    -0.2175
     21  O5'        6.5880   16.5560   44.3010 O.3   1431  UNG1431    -0.3149
     22  O6'        4.7900   14.0020   42.8970 O.co2 1431  UNG1431    -0.2429
     23  OAC        5.1090   14.7630   44.9270 O.co2 1431  UNG1431    -0.2429
     24  OAN       12.6470   12.6120   46.0180 O.co2 1431  UNG1431    -0.2430
@<TRIPOS>BOND
     1    20    14    1
     2    14    15    1
     3    14    13    1
     4    22    17   ar
     5    15    16    1
     6    15     7    1
     7    16    17    1
     8    16    21    1
     9    18    12    1
    10    19    13    1
    11    17    23   ar
    12    13    12    1
    13    11     6   ar
    14    10     1    1
    15    10     5    1
    16     1     7    1
    17     1     2    1
    18    12    21    1
    19     8     2    1
    20     2     3    1
    21     6     5    1
    22     6    24   ar
    23     5     4    1
    24     3     4    1
    25     3     9    1
