@<TRIPOS>MOLECULE
2uvj_ADA_A_1.pdb
 13 13 0 0 0
SMALL
GASTEIGER

@<TRIPOS>ATOM
      1  C1         5.3930   19.4960   40.4380 C.3   1431  ADA1431     0.3028
      2  C2         5.0090   19.1300   41.9110 C.3   1431  ADA1431     0.2435
      3  C3         5.9090   19.8610   42.9430 C.3   1431  ADA1431     0.2204
      4  C4         7.3850   19.6160   42.6120 C.3   1431  ADA1431     0.2229
      5  C5         7.6850   20.1340   41.1780 C.3   1431  ADA1431     0.2530
      6  C6         9.1050   19.7010   40.7980 C.2   1431  ADA1431     0.3941
      7  O1         4.9110   20.8100   40.1600 O.3   1431  ADA1431    -0.1869
      8  O2         3.6220   19.4110   42.1530 O.3   1431  ADA1431    -0.2148
      9  O3         5.6130   19.4860   44.3050 O.3   1431  ADA1431    -0.2174
     10  O4         7.6630   18.2280   42.5470 O.3   1431  ADA1431    -0.2171
     11  O5         6.8090   19.5840   40.1700 O.3   1431  ADA1431    -0.3149
     12  O6B        9.9930   19.8820   41.6490 O.co2 1431  ADA1431    -0.2429
     13  O6A        9.2900   19.1800   39.6770 O.co2 1431  ADA1431    -0.2429
@<TRIPOS>BOND
     1    13     6   ar
     2     7     1    1
     3    11     1    1
     4    11     5    1
     5     1     2    1
     6     6     5    1
     7     6    12   ar
     8     5     4    1
     9     2     8    1
    10     2     3    1
    11    10     4    1
    12     4     3    1
    13     3     9    1
