@<TRIPOS>MOLECULE
2uvm_GVF_A_1.pdb
 26 26 0 0 0
SMALL
GASTEIGER

@<TRIPOS>ATOM
      1  OAE       12.5660    7.7940   13.1920 O.2   1116  GVF1116    -0.2114
      2  PAH       12.7030    8.4780   14.6410 P.3   1116  GVF1116     0.5889
      3  OAG       13.8580    7.6460   15.3930 O.3   1116  GVF1116    -0.1039
      4  OAI       11.4170    8.4320   15.3710 O.3   1116  GVF1116    -0.1039
      5  OAM       13.2120    9.9850   14.3780 O.3   1116  GVF1116    -0.3934
      6  CAL       14.2580   10.4060   15.1400 C.ar  1116  GVF1116     0.2203
      7  CAP       14.0830   10.8990   16.4350 C.ar  1116  GVF1116     0.2203
      8  OAQ       12.9350   10.6600   17.1290 O.3   1116  GVF1116    -0.3934
      9  PAT       11.6730   11.5580   16.6820 P.3   1116  GVF1116     0.5889
     10  OAS       12.1490   12.5800   15.5330 O.2   1116  GVF1116    -0.2114
     11  OAY       10.6600   10.5060   16.0030 O.3   1116  GVF1116    -0.1039
     12  OAU       11.0240   12.2430   17.8200 O.3   1116  GVF1116    -0.1039
     13  CAO       15.1320   11.5510   17.0780 C.ar  1116  GVF1116     0.1865
     14  OAR       14.9060   12.2560   18.2230 O.3   1116  GVF1116    -0.3965
     15  PAW       14.7850   11.4020   19.5850 P.3   1116  GVF1116     0.5888
     16  OAV       13.2230   11.2560   19.9350 O.3   1116  GVF1116    -0.1039
     17  OAZ       15.3020    9.9110   19.2670 O.2   1116  GVF1116    -0.2114
     18  OAX       15.5170   12.0560   20.6920 O.3   1116  GVF1116    -0.1039
     19  CAN       16.3640   11.6710   16.4430 C.ar  1116  GVF1116     0.0439
     20  CAJ       16.5520   11.1620   15.1580 C.ar  1116  GVF1116     0.0439
     21  CAK       15.4940   10.5340   14.5100 C.ar  1116  GVF1116     0.1865
     22  OAF       15.5530   10.0930   13.2240 O.3   1116  GVF1116    -0.3965
     23  PAC       16.9930    9.7090   12.6140 P.3   1116  GVF1116     0.5888
     24  OAB       17.8560   11.0640   12.5190 O.3   1116  GVF1116    -0.1039
     25  OAA       16.6350    9.2520   11.1140 O.2   1116  GVF1116    -0.2114
     26  OAD       17.6850    8.6350   13.3590 O.3   1116  GVF1116    -0.1039
@<TRIPOS>BOND
     1    25    23    2
     2    24    23    1
     3    23    22    1
     4    23    26    1
     5     1     2    2
     6    22    21    1
     7     5     2    1
     8     5     6    1
     9    21     6   ar
    10    21    20   ar
    11     2     4    1
    12     2     3    1
    13     6     7   ar
    14    20    19   ar
    15    10     9    2
    16    11     9    1
    17     7    13   ar
    18     7     8    1
    19    19    13   ar
    20     9     8    1
    21     9    12    1
    22    13    14    1
    23    14    15    1
    24    17    15    2
    25    15    16    1
    26    15    18    1
