@<TRIPOS>MOLECULE
2uvn_HEM_A_1.pdb
 43 50 0 0 0
SMALL
GASTEIGER

@<TRIPOS>ATOM
      1 FE        -53.5430   55.0830  -25.8790 Fe    1408  HEM1408     0.0000
      2  CHA      -51.1660   55.5520  -28.3340 C.2   1408  HEM1408     0.0000
      3  CHB      -52.0470   52.1440  -25.0540 C.2   1408  HEM1408     0.0000
      4  CHC      -55.8760   54.6390  -23.4200 C.2   1408  HEM1408     0.0000
      5  CHD      -55.0590   57.9650  -26.8060 C.2   1408  HEM1408     0.0000
      6  NA       -52.0320   54.0450  -26.5980 N.2   1408  HEM1408     0.0000
      7  C1A      -51.1660   54.3610  -27.6370 C.2   1408  HEM1408     0.0000
      8  C2A      -50.1200   53.3830  -27.7840 C.2   1408  HEM1408     0.0000
      9  C3A      -50.3160   52.4630  -26.8040 C.2   1408  HEM1408     0.0000
     10  C4A      -51.5150   52.8590  -26.1100 C.2   1408  HEM1408     0.0000
     11  CMA      -49.4050   51.2790  -26.4770 C.3   1408  HEM1408     0.0000
     12  CAA      -48.9910   53.3490  -28.8160 C.3   1408  HEM1408     0.0000
     13  CBA      -49.0240   52.0460  -29.5870 C.3   1408  HEM1408     0.0000
     14  CGA      -47.7470   51.7670  -30.3520 C.2   1408  HEM1408     0.0000
     15  O1A      -47.5310   52.3880  -31.4180 O.co2 1408  HEM1408     0.0000
     16  O2A      -46.9590   50.9200  -29.8820 O.co2 1408  HEM1408     0.0000
     17  NB       -53.8670   53.7280  -24.5340 N.ar  1408  HEM1408     0.0000
     18  C1B      -53.1420   52.5570  -24.3130 C.ar  1408  HEM1408     0.0000
     19  C2B      -53.6480   51.8170  -23.1950 C.ar  1408  HEM1408     0.0000
     20  C3B      -54.7290   52.5160  -22.7070 C.ar  1408  HEM1408     0.0000
     21  C4B      -54.8590   53.6970  -23.5570 C.ar  1408  HEM1408     0.0000
     22  CMB      -53.0600   50.5080  -22.6730 C.3   1408  HEM1408     0.0000
     23  CAB      -55.5910   52.1790  -21.6480 C.3   1408  HEM1408     0.0000
     24  CBB      -55.1760   51.5650  -20.4050 C.3   1408  HEM1408     0.0000
     25  NC       -55.1200   56.0660  -25.2570 N.2   1408  HEM1408     0.0000
     26  C1C      -56.0040   55.7450  -24.2290 C.2   1408  HEM1408     0.0000
     27  C2C      -57.0730   56.7300  -24.0980 C.2   1408  HEM1408     0.0000
     28  C3C      -56.8490   57.6580  -25.0760 C.2   1408  HEM1408     0.0000
     29  C4C      -55.6240   57.2600  -25.7500 C.2   1408  HEM1408     0.0000
     30  CMC      -58.2120   56.7330  -23.0680 C.3   1408  HEM1408     0.0000
     31  CAC      -57.6380   58.7540  -25.4130 C.3   1408  HEM1408     0.0000
     32  CBC      -58.4590   59.5780  -24.4950 C.3   1408  HEM1408     0.0000
     33  ND       -53.2070   56.4520  -27.2730 N.ar  1408  HEM1408     0.0000
     34  C1D      -53.9650   57.5760  -27.5730 C.ar  1408  HEM1408     0.0000
     35  C2D      -53.3750   58.3760  -28.6640 C.ar  1408  HEM1408     0.0000
     36  C3D      -52.2140   57.7630  -29.0170 C.ar  1408  HEM1408     0.0000
     37  C4D      -52.1160   56.5630  -28.1550 C.ar  1408  HEM1408     0.0000
     38  CMD      -53.9430   59.6240  -29.3250 C.3   1408  HEM1408     0.0000
     39  CAD      -51.3300   58.0730  -30.2350 C.3   1408  HEM1408     0.0000
     40  CBD      -50.0530   58.8060  -29.8640 C.3   1408  HEM1408     0.0000
     41  CGD      -49.0480   58.8910  -31.0070 C.2   1408  HEM1408     0.0000
     42  O1D      -49.2220   58.1960  -32.0310 O.co2 1408  HEM1408     0.0000
     43  O2D      -48.0690   59.6560  -30.8700 O.co2 1408  HEM1408     0.0000
@<TRIPOS>UNITY_ATOM_ATTR
1 1
charge 3
@<TRIPOS>BOND
     1    42    41   ar
     2    15    14   ar
     3    41    43   ar
     4    41    40    1
     5    14    16   ar
     6    14    13    1
     7    39    40    1
     8    39    36    1
     9    13    12    1
    10    38    35    1
    11    36    35   ar
    12    36    37   ar
    13    12     8    1
    14    35    34   ar
    15     2    37    2
    16     2     7    1
    17    37    33   ar
    18     8     7    1
    19     8     9    2
    20     7     6    2
    21    34    33   ar
    22    34     5    2
    23    33     1    1
    24     5    29    1
    25     9    11    1
    26     9    10    1
    27     6    10    1
    28     6     1    1
    29    10     3    2
    30     1    25    1
    31     1    17    1
    32    29    25    2
    33    29    28    1
    34    31    28    1
    35    31    32    1
    36    25    26    1
    37    28    27    2
    38     3    18    1
    39    17    18   ar
    40    17    21   ar
    41    18    19   ar
    42    26    27    1
    43    26     4    2
    44    27    30    1
    45    21     4    1
    46    21    20   ar
    47    19    20   ar
    48    19    22    1
    49    20    23    1
    50    23    24    1
