@<TRIPOS>MOLECULE
2uvn_ECN_A_1.pdb
 24 26 0 0 0
SMALL
GASTEIGER

@<TRIPOS>ATOM
      1  C1       -53.2600   53.6270  -31.6650 C.ar  1409  ECN1409     0.0073
      2  C2       -53.2630   53.7040  -33.0770 C.ar  1409  ECN1409    -0.0010
      3 CL8       -56.5450   45.6400  -33.4630 Cl    1409  ECN1409    -0.0822
      4  C6       -56.2090   54.0430  -28.4650 C.ar  1409  ECN1409     0.1193
      5  C7       -56.1950   52.9820  -29.3040 C.ar  1409  ECN1409     0.0981
      6  C9       -53.8700   56.0190  -31.5250 C.ar  1409  ECN1409     0.0111
      7  C10      -53.5630   54.7850  -30.9150 C.ar  1409  ECN1409    -0.0010
      8  C11      -53.8800   56.1280  -32.8900 C.ar  1409  ECN1409     0.0577
      9 CL2       -54.2540   57.6540  -33.5740 Cl    1409  ECN1409    -0.0822
     10  C16      -56.1150   47.1310  -32.7130 C.ar  1409  ECN1409     0.0585
     11  C15      -57.0180   48.2470  -32.6970 C.ar  1409  ECN1409     0.0225
     12  C14      -56.6340   49.4830  -32.0850 C.ar  1409  ECN1409     0.0568
     13  C5       -55.3450   49.5830  -31.4980 C.ar  1409  ECN1409     0.0171
     14 CL4       -57.7360   50.8370  -32.0770 Cl    1409  ECN1409    -0.0825
     15  N19      -55.3570   53.7720  -27.4800 N.ar  1409  ECN1409    -0.2223
     16  C19      -54.9210   50.7530  -29.3370 C.3   1409  ECN1409     0.1416
     17  C20      -54.8730   50.8660  -30.8660 C.3   1409  ECN1409     0.1612
     18  O20      -53.5150   51.1330  -31.4030 O.3   1409  ECN1409    -0.3451
     19  C17      -54.8500   47.2470  -32.1160 C.ar  1409  ECN1409     0.0112
     20  N1       -55.2940   52.0600  -28.7840 N.ar  1409  ECN1409    -0.3050
     21  C3       -54.8120   52.5910  -27.6670 C.ar  1409  ECN1409     0.1787
     22  C8       -52.9300   52.3480  -30.8880 C.3   1409  ECN1409     0.1690
     23  C13      -53.5780   54.9750  -33.6960 C.ar  1409  ECN1409     0.0111
     24  C21      -54.4650   48.4620  -31.5140 C.ar  1409  ECN1409    -0.0002
@<TRIPOS>BOND
     1    23     2   ar
     2    23     8   ar
     3     9     8    1
     4     3    10    1
     5     2     1   ar
     6     8     6   ar
     7    10    11   ar
     8    10    19   ar
     9    11    12   ar
    10    19    24   ar
    11    12    14    1
    12    12    13   ar
    13     1     7   ar
    14     1    22    1
    15     6     7   ar
    16    24    13   ar
    17    13    17    1
    18    18    22    1
    19    18    17    1
    20    17    16    1
    21    16    20    1
    22     5    20   ar
    23     5     4   ar
    24    20    21   ar
    25     4    15   ar
    26    21    15   ar
