@<TRIPOS>MOLECULE
2uvq_ADP_A_1.pdb
 27 29 0 0 0
SMALL
GASTEIGER

@<TRIPOS>ATOM
      1  PB        -3.7750  -18.8890  -25.8230 P.3   1236  ADP1236     0.5373
      2  O1B       -3.4880  -19.5980  -24.5410 O.3   1236  ADP1236    -0.1143
      3  O2B       -5.2180  -18.9430  -26.1920 O.3   1236  ADP1236    -0.1143
      4  O3B       -2.8290  -19.2340  -26.9430 O.2   1236  ADP1236    -0.2221
      5  PA        -4.4760  -16.3150  -24.8770 P.3   1236  ADP1236     0.2231
      6  O1A       -3.7680  -15.2730  -24.0370 O.3   1236  ADP1236    -0.4370
      7  O2A       -5.6420  -17.0420  -24.2540 O.2   1236  ADP1236    -0.5169
      8  O3A       -3.4210  -17.3660  -25.4770 O.3   1236  ADP1236    -0.2261
      9  O5'       -4.8830  -15.5750  -26.2400 O.3   1236  ADP1236    -0.3111
     10  C5'       -6.2000  -15.0760  -26.3850 C.3   1236  ADP1236     0.1813
     11  C4'       -6.1430  -13.6760  -26.9470 C.3   1236  ADP1236     0.1821
     12  O4'       -7.4680  -13.2540  -27.2670 O.3   1236  ADP1236    -0.3135
     13  C3'       -5.6410  -12.7010  -25.9120 C.3   1236  ADP1236     0.2184
     14  O3'       -4.9070  -11.6730  -26.5830 O.3   1236  ADP1236    -0.2174
     15  C2'       -6.9200  -12.1960  -25.2610 C.3   1236  ADP1236     0.2570
     16  O2'       -6.7760  -10.9000  -24.6720 O.3   1236  ADP1236    -0.2130
     17  C1'       -7.8940  -12.1800  -26.4230 C.3   1236  ADP1236     0.3186
     18  N9        -9.3200  -12.3800  -26.0630 N.pl3 1236  ADP1236    -0.1439
     19  C8       -10.3340  -11.5280  -26.3410 C.3   1236  ADP1236     0.3377
     20  N7       -11.5050  -12.0340  -25.8900 N.2   1236  ADP1236    -0.2095
     21  C5       -11.2310  -13.2300  -25.3320 C.2   1236  ADP1236     0.2526
     22  C6       -11.9980  -14.3100  -24.6650 C.2   1236  ADP1236     0.4393
     23  N6       -13.3320  -14.1600  -24.5240 N.pl3 1236  ADP1236     0.2180
     24  N1       -11.3480  -15.4190  -24.2080 N.2   1236  ADP1236     0.0021
     25  C2       -10.0150  -15.5540  -24.3570 C.3   1236  ADP1236     0.5254
     26  N3        -9.2500  -14.6090  -24.9570 N.2   1236  ADP1236    -0.0055
     27  C4        -9.7900  -13.4590  -25.4510 C.2   1236  ADP1236     0.3518
@<TRIPOS>BOND
     1    12    11    1
     2    12    17    1
     3    11    10    1
     4    11    13    1
     5     4     1    2
     6    14    13    1
     7    17    18    1
     8    17    15    1
     9    10     9    1
    10    19    18    1
    11    19    20    1
    12     9     5    1
    13     3     1    1
    14    18    27    1
    15    13    15    1
    16    20    21    2
    17     1     8    1
    18     1     2    1
    19     8     5    1
    20    27    21    1
    21    27    26    2
    22    21    22    1
    23    15    16    1
    24    26    25    1
    25     5     7    2
    26     5     6    1
    27    22    23    1
    28    22    24    2
    29    25    24    1
