@<TRIPOS>MOLECULE
2uvr_DGT_A_1.pdb
 31 33 0 0 0
SMALL
GASTEIGER

@<TRIPOS>ATOM
      1  PG        23.5790   40.0920    2.6150 P.3   1000  DGT1000     0.5373
      2  O1G       24.0740   38.7280    1.9150 O.3   1000  DGT1000    -0.1143
      3  O2G       21.9780   39.9550    2.7060 O.3   1000  DGT1000    -0.1143
      4  O3G       23.9780   41.3000    1.8620 O.2   1000  DGT1000    -0.2221
      5  O3B       24.1010   40.0460    4.1410 O.3   1000  DGT1000    -0.2258
      6  PB        25.5480   40.5750    4.6080 P.3   1000  DGT1000     0.2277
      7  O1B       26.3900   40.7310    3.4030 O.2   1000  DGT1000    -0.5168
      8  O2B       25.3790   41.7510    5.4930 O.3   1000  DGT1000    -0.4368
      9  O3A       26.0940   39.3290    5.4690 O.3   1000  DGT1000    -0.2700
     10  PA        25.0760   38.3900    6.2870 P.3   1000  DGT1000     0.2189
     11  O1A       23.7020   39.1080    6.7190 O.3   1000  DGT1000    -0.4371
     12  O2A       25.1930   36.9140    6.2590 O.2   1000  DGT1000    -0.5170
     13  O5'       25.8070   38.6530    7.7010 O.3   1000  DGT1000    -0.3112
     14  C5'       25.4860   39.7770    8.5240 C.3   1000  DGT1000     0.1812
     15  C4'       26.7560   40.4700    9.0290 C.3   1000  DGT1000     0.1772
     16  O4'       27.6450   39.4720    9.5640 O.3   1000  DGT1000    -0.3347
     17  C3'       27.5060   41.1130    7.8590 C.3   1000  DGT1000     0.1857
     18  O3'       28.3360   42.1660    8.3370 O.3   1000  DGT1000    -0.2203
     19  C2'       28.4080   39.9530    7.4190 C.3   1000  DGT1000     0.0865
     20  C1'       28.8640   39.5110    8.8050 C.3   1000  DGT1000     0.1981
     21  N9        29.5170   38.1800    8.7500 N.pl3 1000  DGT1000    -0.2374
     22  C8        29.0410   37.1010    8.1270 C.3   1000  DGT1000     0.2245
     23  N7        29.9420   36.1200    8.1860 N.2   1000  DGT1000    -0.2322
     24  C5        30.9990   36.5750    8.8590 C.2   1000  DGT1000     0.2182
     25  C6        32.2240   36.0130    9.2000 C.1   1000  DGT1000     0.2372
     26  O6        32.4950   34.8630    8.8610 O.2   1000  DGT1000    -0.2069
     27  N1        33.1490   36.7850    9.9120 N.2   1000  DGT1000    -0.2485
     28  C2        32.8150   38.1000   10.2590 C.1   1000  DGT1000     0.2531
     29  N2        33.6930   38.8540   10.9090 N.pl3 1000  DGT1000    -0.0226
     30  N3        31.6190   38.6050    9.9110 N.2   1000  DGT1000    -0.3074
     31  C4        30.7210   37.8860    9.2260 C.2   1000  DGT1000     0.2299
@<TRIPOS>BOND
     1     4     1    2
     2     2     1    1
     3     1     3    1
     4     1     5    1
     5     7     6    2
     6     5     6    1
     7     6     9    1
     8     6     8    1
     9     9    10    1
    10    12    10    2
    11    10    11    1
    12    10    13    1
    13    19    17    1
    14    19    20    1
    15    13    14    1
    16    17    18    1
    17    17    15    1
    18    22    23    1
    19    22    21    1
    20    23    24    2
    21    14    15    1
    22    21    20    1
    23    21    31    1
    24    20    16    1
    25    24    25    1
    26    24    31    1
    27    26    25    2
    28    15    16    1
    29    25    27    2
    30    31    30    2
    31    30    28    2
    32    27    28    2
    33    28    29    1
