@<TRIPOS>MOLECULE
2uvu_DGT_A_1.pdb
 31 33 0 0 0
SMALL
GASTEIGER

@<TRIPOS>ATOM
      1  PG        23.6490   39.8920    2.7150 P.3   1000  DGT1000     0.5373
      2  O1G       23.7900   38.5540    1.8180 O.2   1000  DGT1000    -0.2221
      3  O2G       22.8160   39.4100    4.0010 O.3   1000  DGT1000    -0.1143
      4  O3G       22.9720   40.9780    1.9790 O.3   1000  DGT1000    -0.1143
      5  O3B       25.1450   40.2840    3.1720 O.3   1000  DGT1000    -0.2258
      6  PB        25.5780   40.4430    4.7160 P.3   1000  DGT1000     0.2277
      7  O1B       26.8920   41.1320    4.7200 O.2   1000  DGT1000    -0.5168
      8  O2B       24.4770   41.0790    5.4710 O.3   1000  DGT1000    -0.4368
      9  O3A       25.8290   38.9250    5.2100 O.3   1000  DGT1000    -0.2700
     10  PA        24.9550   38.1040    6.2920 P.3   1000  DGT1000     0.2189
     11  O1A       23.6040   38.8630    6.7360 O.3   1000  DGT1000    -0.4371
     12  O2A       25.1330   36.6450    6.4550 O.2   1000  DGT1000    -0.5170
     13  O5'       25.8390   38.6160    7.5410 O.3   1000  DGT1000    -0.3112
     14  C5'       25.5940   39.8690    8.1890 C.3   1000  DGT1000     0.1812
     15  C4'       26.8910   40.4260    8.7870 C.3   1000  DGT1000     0.1772
     16  O4'       27.5000   39.5230    9.7210 O.3   1000  DGT1000    -0.3347
     17  C3'       27.9480   40.6020    7.7000 C.3   1000  DGT1000     0.1857
     18  O3'       27.6910   41.8200    6.9940 O.3   1000  DGT1000    -0.2203
     19  C2'       29.1610   40.7850    8.6070 C.3   1000  DGT1000     0.0865
     20  C1'       28.9330   39.6620    9.6220 C.3   1000  DGT1000     0.1981
     21  N9        29.4930   38.3690    9.1580 N.pl3 1000  DGT1000    -0.2374
     22  C8        28.8720   37.4670    8.4010 C.3   1000  DGT1000     0.2245
     23  N7        29.6730   36.4260    8.1790 N.2   1000  DGT1000    -0.2322
     24  C5        30.8190   36.6650    8.8070 C.2   1000  DGT1000     0.2182
     25  C6        32.0080   35.9430    8.9350 C.1   1000  DGT1000     0.2372
     26  O6        32.1610   34.8810    8.3360 O.2   1000  DGT1000    -0.2069
     27  N1        33.0470   36.4810    9.7060 N.2   1000  DGT1000    -0.2485
     28  C2        32.8750   37.7280   10.3230 C.1   1000  DGT1000     0.2531
     29  N2        33.8510   38.2520   11.0570 N.pl3 1000  DGT1000    -0.0226
     30  N3        31.7160   38.3980   10.1720 N.2   1000  DGT1000    -0.3074
     31  C4        30.7140   37.9010    9.4390 C.2   1000  DGT1000     0.2299
@<TRIPOS>BOND
     1     2     1    2
     2     4     1    1
     3     1     5    1
     4     1     3    1
     5     5     6    1
     6     6     7    2
     7     6     9    1
     8     6     8    1
     9     9    10    1
    10    10    12    2
    11    10    11    1
    12    10    13    1
    13    18    17    1
    14    13    14    1
    15    17    19    1
    16    17    15    1
    17    23    22    1
    18    23    24    2
    19    14    15    1
    20    26    25    2
    21    22    21    1
    22    19    20    1
    23    15    16    1
    24    24    25    1
    25    24    31    1
    26    25    27    2
    27    21    31    1
    28    21    20    1
    29    31    30    2
    30    20    16    1
    31    27    28    2
    32    30    28    2
    33    28    29    1
