@<TRIPOS>MOLECULE
2uvv_DGT_A_1.pdb
 31 33 0 0 0
SMALL
GASTEIGER

@<TRIPOS>ATOM
      1  PG        23.8070   39.7720    2.5130 P.3   1000  DGT1000     0.5373
      2  O1G       23.8390   38.4040    1.6670 O.2   1000  DGT1000    -0.2221
      3  O2G       22.8900   39.4350    3.7900 O.3   1000  DGT1000    -0.1143
      4  O3G       23.2630   40.9050    1.7310 O.3   1000  DGT1000    -0.1143
      5  O3B       25.3290   40.0030    2.9970 O.3   1000  DGT1000    -0.2258
      6  PB        25.7920   40.2040    4.5280 P.3   1000  DGT1000     0.2277
      7  O1B       27.1710   40.7410    4.4800 O.2   1000  DGT1000    -0.5168
      8  O2B       24.7860   41.0120    5.2490 O.3   1000  DGT1000    -0.4368
      9  O3A       25.8890   38.6890    5.0710 O.3   1000  DGT1000    -0.2700
     10  PA        25.0120   37.9710    6.2190 P.3   1000  DGT1000     0.2189
     11  O1A       23.7230   38.7940    6.7170 O.3   1000  DGT1000    -0.4371
     12  O2A       25.1330   36.5150    6.4490 O.2   1000  DGT1000    -0.5170
     13  O5'       25.9610   38.4640    7.4230 O.3   1000  DGT1000    -0.3112
     14  C5'       25.8060   39.7300    8.0700 C.3   1000  DGT1000     0.1812
     15  C4'       27.1490   40.2400    8.5980 C.3   1000  DGT1000     0.1772
     16  O4'       27.7880   39.2800    9.4590 O.3   1000  DGT1000    -0.3347
     17  C3'       28.1400   40.4410    7.4500 C.3   1000  DGT1000     0.1857
     18  O3'       27.9080   41.7180    6.8520 O.3   1000  DGT1000    -0.2203
     19  C2'       29.4310   40.5000    8.2640 C.3   1000  DGT1000     0.0865
     20  C1'       29.2120   39.3410    9.2410 C.3   1000  DGT1000     0.1981
     21  N9        29.6740   38.0480    8.6790 N.pl3 1000  DGT1000    -0.2374
     22  C8        28.9740   37.2300    7.8960 C.3   1000  DGT1000     0.2245
     23  N7        29.7010   36.1510    7.6150 N.2   1000  DGT1000    -0.2322
     24  C5        30.8790   36.2780    8.2200 C.2   1000  DGT1000     0.2182
     25  C6        32.0160   35.4790    8.2800 C.1   1000  DGT1000     0.2372
     26  O6        32.0460   34.3820    7.7230 O.2   1000  DGT1000    -0.2069
     27  N1        33.1180   35.9240    9.0210 N.2   1000  DGT1000    -0.2485
     28  C2        33.0460   37.1530    9.6890 C.1   1000  DGT1000     0.2531
     29  N2        34.0690   37.5720   10.4270 N.pl3 1000  DGT1000    -0.0226
     30  N3        31.9290   37.8920    9.6070 N.2   1000  DGT1000    -0.3074
     31  C4        30.8620   37.4910    8.8990 C.2   1000  DGT1000     0.2299
@<TRIPOS>BOND
     1     2     1    2
     2     4     1    1
     3     1     5    1
     4     1     3    1
     5     5     6    1
     6     7     6    2
     7     6     9    1
     8     6     8    1
     9     9    10    1
    10    10    12    2
    11    10    11    1
    12    10    13    1
    13    18    17    1
    14    13    14    1
    15    17    19    1
    16    17    15    1
    17    23    22    1
    18    23    24    2
    19    26    25    2
    20    22    21    1
    21    14    15    1
    22    24    25    1
    23    24    31    1
    24    19    20    1
    25    25    27    2
    26    15    16    1
    27    21    31    1
    28    21    20    1
    29    31    30    2
    30    27    28    2
    31    20    16    1
    32    30    28    2
    33    28    29    1
