@<TRIPOS>MOLECULE
2uvw_DGT_A_1.pdb
 31 33 0 0 0
SMALL
GASTEIGER

@<TRIPOS>ATOM
      1  PG        23.9120   39.8760    2.8710 P.3   1000  DGT1000     0.5373
      2  O1G       23.9390   38.5320    1.9880 O.2   1000  DGT1000    -0.2221
      3  O2G       23.0970   39.4710    4.1950 O.3   1000  DGT1000    -0.1143
      4  O3G       23.2620   40.9920    2.1490 O.3   1000  DGT1000    -0.1143
      5  O3B       25.4420   40.1750    3.2910 O.3   1000  DGT1000    -0.2258
      6  PB        25.9380   40.5030    4.7910 P.3   1000  DGT1000     0.2277
      7  O1B       27.2520   41.1680    4.6570 O.2   1000  DGT1000    -0.5168
      8  O2B       24.8790   41.2270    5.5290 O.3   1000  DGT1000    -0.4368
      9  O3A       26.2310   39.0530    5.4310 O.3   1000  DGT1000    -0.2700
     10  PA        25.3610   38.2650    6.5350 P.3   1000  DGT1000     0.2189
     11  O1A       23.9690   38.9590    6.9340 O.3   1000  DGT1000    -0.4371
     12  O2A       25.6080   36.8290    6.7940 O.2   1000  DGT1000    -0.5170
     13  O5'       26.1590   38.8630    7.7990 O.3   1000  DGT1000    -0.3112
     14  C5'       25.9560   40.1870    8.2990 C.3   1000  DGT1000     0.1812
     15  C4'       27.2720   40.7130    8.8790 C.3   1000  DGT1000     0.1772
     16  O4'       27.8380   39.7800    9.8150 O.3   1000  DGT1000    -0.3347
     17  C3'       28.3290   40.8240    7.7810 C.3   1000  DGT1000     0.1857
     18  O3'       28.1550   42.0670    7.0940 O.3   1000  DGT1000    -0.2203
     19  C2'       29.5660   40.9270    8.6700 C.3   1000  DGT1000     0.0865
     20  C1'       29.2730   39.8430    9.7100 C.3   1000  DGT1000     0.1981
     21  N9        29.7960   38.5310    9.2620 N.pl3 1000  DGT1000    -0.2374
     22  C8        29.1570   37.6420    8.5040 C.3   1000  DGT1000     0.2245
     23  N7        29.9590   36.6090    8.2580 N.2   1000  DGT1000    -0.2322
     24  C5        31.1190   36.8390    8.8650 C.2   1000  DGT1000     0.2182
     25  C6        32.3190   36.1390    8.9280 C.1   1000  DGT1000     0.2372
     26  O6        32.4600   35.0790    8.3200 O.2   1000  DGT1000    -0.2069
     27  N1        33.3850   36.6800    9.6560 N.2   1000  DGT1000    -0.2485
     28  C2        33.2200   37.9130   10.2990 C.1   1000  DGT1000     0.2531
     29  N2        34.2350   38.4350   10.9800 N.pl3 1000  DGT1000    -0.0226
     30  N3        32.0480   38.5650   10.2110 N.2   1000  DGT1000    -0.3074
     31  C4        31.0150   38.0630    9.5160 C.2   1000  DGT1000     0.2299
@<TRIPOS>BOND
     1     2     1    2
     2     4     1    1
     3     1     5    1
     4     1     3    1
     5     5     6    1
     6     7     6    2
     7     6     9    1
     8     6     8    1
     9     9    10    1
    10    10    12    2
    11    10    11    1
    12    10    13    1
    13    18    17    1
    14    17    19    1
    15    17    15    1
    16    13    14    1
    17    23    22    1
    18    23    24    2
    19    14    15    1
    20    26    25    2
    21    22    21    1
    22    19    20    1
    23    24    25    1
    24    24    31    1
    25    15    16    1
    26    25    27    2
    27    21    31    1
    28    21    20    1
    29    31    30    2
    30    27    28    2
    31    20    16    1
    32    30    28    2
    33    28    29    1
