@<TRIPOS>MOLECULE
2uvy_GVI_A_1.pdb
 18 20 0 0 0
SMALL
GASTEIGER

@<TRIPOS>ATOM
      1  N1         4.8380    9.6110    5.2480 N.2   1351  GVI1351    -0.2414
      2  C2         3.5180    9.6380    5.2550 C.3   1351  GVI1351     0.2610
      3  N3         2.8180    9.7150    4.1420 N.2   1351  GVI1351    -0.1916
      4  C4         3.4170    9.7700    2.9580 C.1   1351  GVI1351     0.0496
      5  C5         4.8290    9.7490    2.8940 C.2   1351  GVI1351     0.1567
      6  C9        11.3010    9.3880    4.4880 C.3   1351  GVI1351     0.1150
      7  N7         5.1520    9.8200    1.5830 N.2   1351  GVI1351    -0.2319
      8  C8         4.0760    9.8820    0.8630 C.3   1351  GVI1351     0.2617
      9  N9         2.9800    9.8530    1.6660 N.2   1351  GVI1351    -0.1916
     10  C10        9.8060    9.4750    4.3840 C.ar  1351  GVI1351    -0.0048
     11  C11        9.0320    9.3890    5.5280 C.ar  1351  GVI1351    -0.0028
     12  C12        7.6550    9.4610    5.4330 C.ar  1351  GVI1351     0.0013
     13  C13        7.0300    9.6230    4.1860 C.ar  1351  GVI1351     0.0194
     14  C14        7.8290    9.6970    3.0400 C.ar  1351  GVI1351     0.0013
     15  C15        9.2070    9.6260    3.1420 C.ar  1351  GVI1351    -0.0028
     16  N10       11.6450    7.9690    4.6890 N.3   1351  GVI1351    -0.2118
     17  C16        5.5450    9.6750    4.1160 C.2   1351  GVI1351     0.1050
     18  C1        13.0530    7.6970    4.3400 C.3   1351  GVI1351     0.1079
@<TRIPOS>BOND
     1     8     7    1
     2     8     9    1
     3     7     5    2
     4     9     4    2
     5     5     4    1
     6     5    17    1
     7     4     3    2
     8    14    15   ar
     9    14    13   ar
    10    15    10   ar
    11    17    13    1
    12    17     1    2
    13     3     2    1
    14    13    12   ar
    15    18    16    1
    16    10     6    1
    17    10    11   ar
    18     6    16    1
    19     1     2    1
    20    12    11   ar
