@<TRIPOS>MOLECULE
2uvz_GVJ_A_1.pdb
 23 26 0 0 0
SMALL
GASTEIGER

@<TRIPOS>ATOM
      1  N1        11.7140    7.5170    2.9130 N.3   1351  GVJ1351    -0.1233
      2  C2        11.4220    8.8230    3.6330 C.3   1351  GVJ1351     0.1362
      3  C3        12.1910    9.9890    3.0390 C.ar  1351  GVJ1351    -0.0008
      4  C4        13.3320   10.4660    3.6690 C.ar  1351  GVJ1351    -0.0026
      5  C5        14.0310   11.5290    3.1350 C.ar  1351  GVJ1351    -0.0003
      6  C6        13.5990   12.1240    1.9690 C.ar  1351  GVJ1351    -0.0000
      7  C7        12.4730   11.6550    1.3310 C.ar  1351  GVJ1351    -0.0003
      8  C8        11.7720   10.5930    1.8600 C.ar  1351  GVJ1351    -0.0026
      9  C9         9.9240    9.0690    3.6400 C.ar  1351  GVJ1351    -0.0008
     10  C10        9.1530    8.7470    2.5320 C.ar  1351  GVJ1351    -0.0025
     11  C11        7.7910    8.9630    2.5400 C.ar  1351  GVJ1351     0.0013
     12  C12        7.1710    9.5310    3.6470 C.ar  1351  GVJ1351     0.0194
     13  C13        7.9430    9.8390    4.7620 C.ar  1351  GVJ1351     0.0013
     14  C14        9.3050    9.6150    4.7560 C.ar  1351  GVJ1351    -0.0025
     15  C15        5.6930    9.7070    3.6780 C.2   1351  GVJ1351     0.1050
     16  N16        5.1240    9.7880    4.8950 N.2   1351  GVJ1351    -0.2414
     17  C17        3.7920    9.8940    4.9560 C.3   1351  GVJ1351     0.2610
     18  N18        2.9090    9.8970    3.9550 N.2   1351  GVJ1351    -0.1916
     19  C19        3.5110    9.7800    2.7610 C.1   1351  GVJ1351     0.0496
     20  N20        2.9410    9.7460    1.5230 N.2   1351  GVJ1351    -0.1916
     21  C21        3.9360    9.6180    0.6100 C.3   1351  GVJ1351     0.2617
     22  N22        5.1400    9.5670    1.1820 N.2   1351  GVJ1351    -0.2319
     23  C23        4.8750    9.6630    2.5500 C.2   1351  GVJ1351     0.1567
@<TRIPOS>BOND
     1    21    22    1
     2    21    20    1
     3    22    23    2
     4     7     8   ar
     5     7     6   ar
     6    20    19    2
     7     8     3   ar
     8     6     5   ar
     9    10    11   ar
    10    10     9   ar
    11    11    12   ar
    12    23    19    1
    13    23    15    1
    14    19    18    2
    15     1     2    1
    16     3     2    1
    17     3     4   ar
    18     5     4   ar
    19     2     9    1
    20     9    14   ar
    21    12    15    1
    22    12    13   ar
    23    15    16    2
    24    18    17    1
    25    14    13   ar
    26    16    17    1
