@<TRIPOS>MOLECULE
2uw0_GVK_A_1.pdb
 28 32 0 0 0
SMALL
GASTEIGER

@<TRIPOS>ATOM
      1 CL1        13.5680   13.7150   -0.4550 Cl    1351  GVK1351    -0.0822
      2  C2        12.9930   12.4950    0.6220 C.ar  1351  GVK1351     0.0577
      3  C3        12.5300   12.8440    1.8770 C.ar  1351  GVK1351     0.0111
      4  C4        12.0640   11.8740    2.7340 C.ar  1351  GVK1351    -0.0031
      5  C5        12.0410   10.5420    2.3410 C.ar  1351  GVK1351    -0.0189
      6  C6        12.5180   10.2000    1.0790 C.ar  1351  GVK1351    -0.0031
      7  C7        12.9900   11.1710    0.2270 C.ar  1351  GVK1351     0.0111
      8  C8        11.5430    9.4670    3.3110 C.3   1351  GVK1351     0.0405
      9  C9        11.9940    8.0940    2.7760 C.3   1351  GVK1351     0.0270
     10  C10       11.8190    6.9810    3.7840 C.3   1351  GVK1351     0.0893
     11  N11       12.6260    7.2940    4.9950 N.3   1351  GVK1351    -0.2180
     12  C14       12.1440    8.5600    5.6160 C.3   1351  GVK1351     0.0893
     13  C15       12.2900    9.7050    4.6340 C.3   1351  GVK1351     0.0270
     14  C16       10.0020    9.5250    3.4300 C.ar  1351  GVK1351    -0.0189
     15  C17        9.3610   10.0190    4.5650 C.ar  1351  GVK1351    -0.0039
     16  C18        7.9810   10.0460    4.6440 C.ar  1351  GVK1351     0.0012
     17  C19        7.2000    9.5910    3.5850 C.ar  1351  GVK1351     0.0194
     18  C20        7.8400    9.0810    2.4620 C.ar  1351  GVK1351     0.0012
     19  C21        9.2180    9.0590    2.3810 C.ar  1351  GVK1351    -0.0039
     20  C22        5.7120    9.5840    3.6790 C.2   1351  GVK1351     0.1050
     21  N23        5.1860    9.5540    4.9170 N.2   1351  GVK1351    -0.2414
     22  C24        3.8540    9.5290    5.0330 C.3   1351  GVK1351     0.2610
     23  N25        2.9320    9.4850    4.0690 N.2   1351  GVK1351    -0.1916
     24  C26        3.4880    9.4840    2.8510 C.1   1351  GVK1351     0.0496
     25  N27        2.8640    9.4480    1.6410 N.2   1351  GVK1351    -0.1916
     26  C29        3.8150    9.4770    0.6790 C.3   1351  GVK1351     0.2617
     27  N30        5.0510    9.5250    1.1890 N.2   1351  GVK1351    -0.2319
     28  C31        4.8460    9.5270    2.5790 C.2   1351  GVK1351     0.1567
@<TRIPOS>BOND
     1     1     2    1
     2     7     2   ar
     3     7     6   ar
     4     2     3   ar
     5    26    27    1
     6    26    25    1
     7     6     5   ar
     8    27    28    2
     9    25    24    2
    10     3     4   ar
    11     5     4   ar
    12     5     8    1
    13    19    18   ar
    14    19    14   ar
    15    18    17   ar
    16    28    24    1
    17    28    20    1
    18     9     8    1
    19     9    10    1
    20    24    23    2
    21     8    14    1
    22     8    13    1
    23    14    15   ar
    24    17    20    1
    25    17    16   ar
    26    20    21    2
    27    10    11    1
    28    23    22    1
    29    15    16   ar
    30    13    12    1
    31    21    22    1
    32    11    12    1
