@<TRIPOS>MOLECULE
2uw1_GVM_A_1.pdb
 11 10 0 0 0
SMALL
GASTEIGER

@<TRIPOS>ATOM
      1  C1       -13.1840  -16.0100   16.5530 C.2   1362  GVM1362     0.3674
      2  O1A      -12.4840  -15.0340   16.9010 O.co2 1362  GVM1362    -0.2456
      3  O1B      -13.1010  -16.5320   15.4150 O.co2 1362  GVM1362    -0.2456
      4  C2       -14.1500  -16.5880   17.5590 C.3   1362  GVM1362     0.1468
      5  C3       -15.4330  -17.0430   16.8770 C.3   1362  GVM1362     0.1633
      6  O3       -16.0820  -15.8960   16.2910 O.3   1362  GVM1362    -0.2225
      7  C4       -16.3160  -17.6820   17.9450 C.3   1362  GVM1362     0.0335
      8  C5A      -16.2870  -20.1130   17.1420 C.3   1362  GVM1362     0.0001
      9  C5B      -17.9380  -19.2880   18.7660 C.3   1362  GVM1362     0.0001
     10  C5C      -18.0560  -18.5820   16.3560 C.3   1362  GVM1362     0.0001
     11  C5       -17.1310  -18.9050   17.5320 C.3   1362  GVM1362     0.0025
@<TRIPOS>BOND
     1     3     1   ar
     2     6     5    1
     3    10    11    1
     4     1     2   ar
     5     1     4    1
     6     5     4    1
     7     5     7    1
     8     8    11    1
     9    11     7    1
    10    11     9    1
