@<TRIPOS>MOLECULE
2uw3_GVG_A_1.pdb
 12 13 0 0 0
SMALL
GASTEIGER

@<TRIPOS>ATOM
      1  C1         4.2930   10.0190    2.4950 C.2   1351  GVG1351     0.0681
      2  C2         4.6250   10.3550    1.0850 C.3   1351  GVG1351     0.0499
      3  C3         5.0650    9.8650    3.6530 C.3   1351  GVG1351     0.1032
      4  C6         6.5190    9.9590    3.8280 C.ar  1351  GVG1351    -0.0115
      5  C7         7.3780    9.7740    2.7500 C.ar  1351  GVG1351    -0.0035
      6  C8         7.0640   10.1810    5.0860 C.ar  1351  GVG1351    -0.0035
      7  C9         8.7420    9.8510    2.9240 C.ar  1351  GVG1351    -0.0003
      8  C10        8.4300   10.2530    5.2530 C.ar  1351  GVG1351    -0.0003
      9  C11        9.2680   10.0700    4.1770 C.ar  1351  GVG1351    -0.0000
     10  C12        4.1570    9.5300    4.6500 C.2   1351  GVG1351     0.1054
     11  N13        2.9110    9.4710    4.1780 N.2   1351  GVG1351    -0.1510
     12  N3         3.0070    9.7620    2.8590 N.2   1351  GVG1351    -0.1563
@<TRIPOS>BOND
     1     2     1    1
     2     1    12    2
     3     1     3    1
     4     5     7   ar
     5     5     4   ar
     6    12    11    1
     7     7     9   ar
     8     3     4    1
     9     3    10    1
    10     4     6   ar
    11     9     8   ar
    12    11    10    2
    13     6     8   ar
