@<TRIPOS>MOLECULE
2uw4_L15_A_1.pdb
 15 16 0 0 0
SMALL
GASTEIGER

@<TRIPOS>ATOM
      1  C1         4.3990   10.0450    1.0270 C.3   1351  L151351     0.0499
      2  C2         4.1070    9.9090    2.4800 C.2   1351  L151351     0.0681
      3  N3         2.8250    9.8090    2.9440 N.2   1351  L151351    -0.1563
      4  N4         2.7950    9.6980    4.2990 N.2   1351  L151351    -0.1510
      5  C5         4.0830    9.7300    4.6900 C.2   1351  L151351     0.1054
      6  C6         4.9410    9.8660    3.5960 C.3   1351  L151351     0.1032
      7  C7         6.4090    9.9020    3.6190 C.ar  1351  L151351    -0.0115
      8  C8         7.0930   10.2060    4.7890 C.ar  1351  L151351    -0.0039
      9  C9         8.4750   10.2060    4.8130 C.ar  1351  L151351    -0.0045
     10  C10        9.2000    9.8970    3.6690 C.ar  1351  L151351    -0.0207
     11  C11       10.7080    9.8970    3.6870 C.3   1351  L151351     0.0468
     12  C12       11.2940    8.4980    3.6820 C.3   1351  L151351     0.1140
     13  N13       10.7360    7.6090    2.6270 N.3   1351  L151351    -0.1310
     14  C14        8.5140    9.5880    2.5030 C.ar  1351  L151351    -0.0045
     15  C15        7.1370    9.5850    2.4790 C.ar  1351  L151351    -0.0039
@<TRIPOS>BOND
     1     1     2    1
     2    15    14   ar
     3    15     7   ar
     4     2     3    2
     5     2     6    1
     6    14    10   ar
     7    13    12    1
     8     3     4    1
     9     6     7    1
    10     6     5    1
    11     7     8   ar
    12    10    11    1
    13    10     9   ar
    14    12    11    1
    15     4     5    2
    16     8     9   ar
