@<TRIPOS>MOLECULE
2uw5_GVN_A_1.pdb
 21 23 0 0 0
SMALL
GASTEIGER

@<TRIPOS>ATOM
      1  N1        12.5210    7.4910    3.0520 N.3   1351  GVN1351    -0.1307
      2  C2        11.0550    7.7400    2.9990 C.3   1351  GVN1351     0.1180
      3  C3        10.7180    9.1970    3.3120 C.3   1351  GVN1351     0.0636
      4  C4        11.4100   10.1950    2.4010 C.ar  1351  GVN1351    -0.0169
      5  C5        11.5580    9.9570    1.0370 C.ar  1351  GVN1351    -0.0030
      6  C6        12.1740   10.8910    0.2290 C.ar  1351  GVN1351     0.0111
      7  C7        12.6480   12.0760    0.7720 C.ar  1351  GVN1351     0.0577
      8 CL8        13.4240   13.2530   -0.2420 Cl    1351  GVN1351    -0.0822
      9  C9        12.4980   12.3190    2.1280 C.ar  1351  GVN1351     0.0111
     10  C10       11.8830   11.3870    2.9350 C.ar  1351  GVN1351    -0.0030
     11  C11        9.2110    9.3850    3.3080 C.ar  1351  GVN1351    -0.0170
     12  C12        8.5230    9.6000    4.4960 C.ar  1351  GVN1351    -0.0039
     13  C13        7.1520    9.7520    4.4920 C.ar  1351  GVN1351    -0.0005
     14  C14        6.4400    9.7000    3.3010 C.ar  1351  GVN1351    -0.0005
     15  C15        7.1270    9.4660    2.1160 C.ar  1351  GVN1351    -0.0005
     16  C16        8.4970    9.3150    2.1190 C.ar  1351  GVN1351    -0.0039
     17  C17        4.9780    9.8130    3.2960 C.2   1351  GVN1351     0.0249
     18  C18        4.1210    9.8490    4.3900 C.3   1351  GVN1351     0.1771
     19  N19        2.8490    9.8960    4.0050 N.2   1351  GVN1351    -0.1695
     20  N20        2.8910    9.8690    2.6490 N.2   1351  GVN1351    -0.1510
     21  C21        4.1580    9.8080    2.2100 C.2   1351  GVN1351     0.1194
@<TRIPOS>BOND
     1     8     7    1
     2     6     7   ar
     3     6     5   ar
     4     7     9   ar
     5     5     4   ar
     6    15    16   ar
     7    15    14   ar
     8    16    11   ar
     9     9    10   ar
    10    21    20    1
    11    21    17    2
    12     4    10   ar
    13     4     3    1
    14    20    19    2
    15     2     1    1
    16     2     3    1
    17    17    14    1
    18    17    18    1
    19    14    13   ar
    20    11     3    1
    21    11    12   ar
    22    19    18    1
    23    13    12   ar
