@<TRIPOS>MOLECULE
2uw6_GVO_A_1.pdb
 21 23 0 0 0
SMALL
GASTEIGER

@<TRIPOS>ATOM
      1  N1        12.3290    7.3430    2.7480 N.3   1351  GVO1351    -0.1307
      2  C2        10.9700    7.8370    3.0170 C.3   1351  GVO1351     0.1180
      3  C3        10.8670    9.3790    3.1050 C.3   1351  GVO1351     0.0636
      4  C4        11.8460    9.7920    4.1880 C.ar  1351  GVO1351    -0.0169
      5  C5        11.7960    9.2710    5.4760 C.ar  1351  GVO1351    -0.0030
      6  C6        12.7350    9.6380    6.4360 C.ar  1351  GVO1351     0.0111
      7  C7        13.7520   10.5150    6.1200 C.ar  1351  GVO1351     0.0577
      8 CL8        14.9090   10.9560    7.3490 Cl    1351  GVO1351    -0.0822
      9  C9        13.8240   11.0320    4.8300 C.ar  1351  GVO1351     0.0111
     10  C10       12.8820   10.6610    3.8690 C.ar  1351  GVO1351    -0.0030
     11  C11        9.3690    9.5690    3.2780 C.ar  1351  GVO1351    -0.0170
     12  C12        8.5970    9.4180    2.1330 C.ar  1351  GVO1351    -0.0039
     13  C13        7.2100    9.5120    2.1880 C.ar  1351  GVO1351    -0.0005
     14  C14        6.5660    9.7880    3.3980 C.ar  1351  GVO1351    -0.0005
     15  C15        7.3420    9.9090    4.5540 C.ar  1351  GVO1351    -0.0005
     16  C16        8.7260    9.7920    4.4910 C.ar  1351  GVO1351    -0.0039
     17  C17        5.0810    9.8370    3.4410 C.2   1351  GVO1351     0.0249
     18  C18        4.2770    9.6450    4.5840 C.3   1351  GVO1351     0.1771
     19  N19        3.0260    9.6850    4.2230 N.2   1351  GVO1351    -0.1695
     20  N20        2.9840    9.8620    2.8390 N.2   1351  GVO1351    -0.1510
     21  C21        4.2340    9.9430    2.3790 C.2   1351  GVO1351     0.1194
@<TRIPOS>BOND
     1    12    13   ar
     2    12    11   ar
     3    13    14   ar
     4    21    20    1
     5    21    17    2
     6     1     2    1
     7    20    19    2
     8     2     3    1
     9     3    11    1
    10     3     4    1
    11    11    16   ar
    12    14    17    1
    13    14    15   ar
    14    17    18    1
    15    10     4   ar
    16    10     9   ar
    17     4     5   ar
    18    19    18    1
    19    16    15   ar
    20     9     7   ar
    21     5     6   ar
    22     7     6   ar
    23     7     8    1
