@<TRIPOS>MOLECULE
2uw7_GVP_A_1.pdb
 24 27 0 0 0
SMALL
GASTEIGER

@<TRIPOS>ATOM
      1 CL1        13.3080   13.6520    0.2310 Cl    1351  GVP1351    -0.0822
      2  C2        12.5840   12.4390    1.2390 C.ar  1351  GVP1351     0.0577
      3  C3        12.4030   11.1570    0.7530 C.ar  1351  GVP1351     0.0111
      4  C4        11.8280   10.1890    1.5470 C.ar  1351  GVP1351    -0.0031
      5  C5        11.4430   10.4800    2.8540 C.ar  1351  GVP1351    -0.0189
      6  C6        11.6280   11.7740    3.3350 C.ar  1351  GVP1351    -0.0031
      7  C7        12.2010   12.7420    2.5360 C.ar  1351  GVP1351     0.0111
      8  C8        10.7800    9.4070    3.7340 C.3   1351  GVP1351     0.0405
      9  C9        11.0630    7.9740    3.2340 C.3   1351  GVP1351     0.0270
     10  C10       12.5010    7.5290    3.4500 C.3   1351  GVP1351     0.0893
     11  N11       12.8340    7.6310    4.8990 N.3   1351  GVP1351    -0.2180
     12  C12       12.6760    9.0280    5.3980 C.3   1351  GVP1351     0.0893
     13  C13       11.2370    9.4680    5.2020 C.3   1351  GVP1351     0.0270
     14  C14        9.2500    9.5620    3.6540 C.ar  1351  GVP1351    -0.0189
     15  C15        8.4740    9.8010    4.7850 C.ar  1351  GVP1351    -0.0040
     16  C16        7.1020    9.8910    4.6860 C.ar  1351  GVP1351    -0.0005
     17  C17        6.4720    9.7610    3.4540 C.ar  1351  GVP1351    -0.0005
     18  C18        7.2430    9.4990    2.3320 C.ar  1351  GVP1351    -0.0005
     19  C19        8.6130    9.4020    2.4300 C.ar  1351  GVP1351    -0.0040
     20  C20        5.0070    9.7800    3.3540 C.2   1351  GVP1351     0.0249
     21  C21        4.0830    9.6650    4.4010 C.3   1351  GVP1351     0.1771
     22  N22        2.8310    9.6460    3.9410 N.2   1351  GVP1351    -0.1695
     23  N23        2.9510    9.6990    2.5900 N.2   1351  GVP1351    -0.1510
     24  C24        4.2420    9.7630    2.2140 C.2   1351  GVP1351     0.1194
@<TRIPOS>BOND
     1     1     2    1
     2     3     2   ar
     3     3     4   ar
     4     2     7   ar
     5     4     5   ar
     6    24    23    1
     7    24    20    2
     8    18    19   ar
     9    18    17   ar
    10    19    14   ar
    11     7     6   ar
    12    23    22    2
    13     5     6   ar
    14     5     8    1
    15     9    10    1
    16     9     8    1
    17    20    17    1
    18    20    21    1
    19    10    11    1
    20    17    16   ar
    21    14     8    1
    22    14    15   ar
    23     8    13    1
    24    22    21    1
    25    16    15   ar
    26    11    12    1
    27    13    12    1
