@<TRIPOS>MOLECULE
2uw8_GVQ_A_1.pdb
 16 17 0 0 0
SMALL
GASTEIGER

@<TRIPOS>ATOM
      1  C1        10.9790   10.4960    1.8390 C.ar  1351  GVQ1351    -0.0030
      2  C2        11.8140   11.4510    1.2840 C.ar  1351  GVQ1351     0.0111
      3  C3        12.7810   12.0510    2.0750 C.ar  1351  GVQ1351     0.0577
      4  C4        12.9300   11.7090    3.4050 C.ar  1351  GVQ1351     0.0111
      5  C5         6.6960   10.4470    3.2780 C.ar  1351  GVQ1351    -0.0003
      6  C6         6.4160   10.9900    4.5290 C.ar  1351  GVQ1351    -0.0000
      7  C7         7.3680   10.9210    5.5320 C.ar  1351  GVQ1351    -0.0003
      8  C8         8.5970   10.3160    5.2930 C.ar  1351  GVQ1351    -0.0039
      9  C9        10.2300    9.1220    3.8160 C.3   1351  GVQ1351     0.0636
     10  C11        7.9240    9.8390    3.0370 C.ar  1351  GVQ1351    -0.0039
     11  C12        8.8780    9.7700    4.0470 C.ar  1351  GVQ1351    -0.0170
     12  C13       11.1270   10.1490    3.1740 C.ar  1351  GVQ1351    -0.0169
     13  C14       12.0960   10.7570    3.9550 C.ar  1351  GVQ1351    -0.0030
     14  C15       10.1490    7.8480    2.9600 C.3   1351  GVQ1351     0.1180
     15  N1        11.5040    7.2980    2.7980 N.3   1351  GVQ1351    -0.1307
     16 CL1        13.8270   13.2460    1.3960 Cl    1351  GVQ1351    -0.0822
@<TRIPOS>BOND
     1     2     1   ar
     2     2     3   ar
     3    16     3    1
     4     1    12   ar
     5     3     4   ar
     6    15    14    1
     7    14     9    1
     8    10     5   ar
     9    10    11   ar
    10    12     9    1
    11    12    13   ar
    12     5     6   ar
    13     4    13   ar
    14     9    11    1
    15    11     8   ar
    16     6     7   ar
    17     8     7   ar
