@<TRIPOS>MOLECULE
2uw9_GVP_A_1.pdb
 24 27 0 0 0
SMALL
GASTEIGER

@<TRIPOS>ATOM
      1 CL1        40.9570   28.8010  106.0590 Cl    1480  GVP1480    -0.0822
      2  C2        41.6040   29.2210  107.6100 C.ar  1480  GVP1480     0.0577
      3  C3        40.7930   29.1960  108.7290 C.ar  1480  GVP1480     0.0111
      4  C4        41.3120   29.5200  109.9630 C.ar  1480  GVP1480    -0.0031
      5  C5        42.6510   29.8830  110.0950 C.ar  1480  GVP1480    -0.0189
      6  C6        43.4670   29.8720  108.9760 C.ar  1480  GVP1480    -0.0031
      7  C7        42.9440   29.5550  107.7390 C.ar  1480  GVP1480     0.0111
      8  C8        43.2430   30.2170  111.4650 C.3   1480  GVP1480     0.0405
      9  C9        42.1590   29.8940  112.5170 C.3   1480  GVP1480     0.0270
     10  C10       42.7000   29.8670  113.9300 C.3   1480  GVP1480     0.0893
     11  N11       43.6650   28.7370  113.9400 N.3   1480  GVP1480    -0.2180
     12  C12       44.8480   29.1250  113.1230 C.3   1480  GVP1480     0.0893
     13  C13       44.4180   29.2470  111.6730 C.3   1480  GVP1480     0.0270
     14  C14       43.6430   31.7050  111.5490 C.ar  1480  GVP1480    -0.0189
     15  C15       44.9110   32.1830  111.2370 C.ar  1480  GVP1480    -0.0040
     16  C16       45.2040   33.5350  111.3510 C.ar  1480  GVP1480    -0.0005
     17  C17       44.2310   34.4330  111.7720 C.ar  1480  GVP1480    -0.0005
     18  C18       42.9750   33.9530  112.0740 C.ar  1480  GVP1480    -0.0005
     19  C19       42.6830   32.6160  111.9620 C.ar  1480  GVP1480    -0.0040
     20  C20       44.4990   35.8690  111.9300 C.2   1480  GVP1480     0.0249
     21  C21       45.7180   36.5120  112.1340 C.3   1480  GVP1480     0.1771
     22  N22       45.5570   37.8430  112.2750 N.2   1480  GVP1480    -0.1695
     23  N23       44.2130   38.0630  112.1850 N.2   1480  GVP1480    -0.1510
     24  C24       43.5450   36.8960  111.9890 C.2   1480  GVP1480     0.1194
@<TRIPOS>BOND
     1     1     2    1
     2     2     7   ar
     3     2     3   ar
     4     7     6   ar
     5     3     4   ar
     6     6     5   ar
     7     4     5   ar
     8     5     8    1
     9    15    16   ar
    10    15    14   ar
    11    16    17   ar
    12     8    14    1
    13     8    13    1
    14     8     9    1
    15    14    19   ar
    16    13    12    1
    17    17    20    1
    18    17    18   ar
    19    20    24    2
    20    20    21    1
    21    19    18   ar
    22    24    23    1
    23    21    22    1
    24    23    22    2
    25     9    10    1
    26    12    11    1
    27    10    11    1
