@<TRIPOS>MOLECULE
2uwd_2GG_A_1.pdb
 27 29 0 0 0
SMALL
GASTEIGER

@<TRIPOS>ATOM
      1  C22       35.1100    5.6100   21.6240 C.3   1228  2GG1228     0.2525
      2  O21       35.4350    6.2380   22.9030 O.3   1228  2GG1228    -0.4714
      3  C18       34.4180    6.7760   23.6490 C.ar  1228  2GG1228     0.1387
      4  C19       33.0590    6.7530   23.2680 C.ar  1228  2GG1228     0.0369
      5  C20       32.0940    7.3320   24.1290 C.ar  1228  2GG1228     0.0033
      6  C17       34.7730    7.3510   24.8900 C.ar  1228  2GG1228     0.0369
      7  C16       33.8030    7.9190   25.7240 C.ar  1228  2GG1228     0.0033
      8  C7        32.4480    7.9140   25.3780 C.ar  1228  2GG1228     0.0049
      9  C3        31.4680    8.5170   26.2370 C.ar  1228  2GG1228     0.0626
     10  C2        31.0410    8.0900   27.5120 C.ar  1228  2GG1228     0.1776
     11  C8        31.5650    6.9080   28.2960 C.2   1228  2GG1228     0.2858
     12  O9        32.0520    5.9280   27.7380 O.2   1228  2GG1228    -0.2666
     13  N10       31.5370    7.0580   29.6330 N.am  1228  2GG1228    -0.2003
     14  C26       32.0110    5.9860   30.5390 C.3   1228  2GG1228     0.1156
     15  C27       33.4920    6.2160   30.8900 C.3   1228  2GG1228     0.0253
     16  N1        30.0930    8.8920   28.0040 N.ar  1228  2GG1228    -0.0723
     17  C4        30.7040    9.6700   25.9840 C.ar  1228  2GG1228     0.1800
     18  C6        30.7220   10.4920   24.8390 C.ar  1228  2GG1228     0.0771
     19  C11       31.9450   11.0010   24.3910 C.ar  1228  2GG1228     0.0210
     20  C12       32.0160   11.8130   23.2580 C.ar  1228  2GG1228     0.0968
     21 CL25       33.5480   12.4520   22.7020 Cl    1228  2GG1228    -0.0789
     22  C13       30.8300   12.1310   22.5810 C.ar  1228  2GG1228     0.2093
     23  O24       30.8780   12.8740   21.4710 O.3   1228  2GG1228    -0.2856
     24  C14       29.5990   11.6240   23.0020 C.ar  1228  2GG1228     0.0850
     25  C15       29.5450   10.8400   24.1630 C.ar  1228  2GG1228     0.2019
     26  O23       28.3380   10.3530   24.5620 O.3   1228  2GG1228    -0.2864
     27  O3        29.8850    9.8740   27.0470 O.2   1228  2GG1228    -0.3531
@<TRIPOS>BOND
     1    23    22    1
     2     1     2    1
     3    22    24   ar
     4    22    20   ar
     5    21    20    1
     6     2     3    1
     7    24    25   ar
     8    20    19   ar
     9     4     3   ar
    10     4     5   ar
    11     3     6   ar
    12     5     8   ar
    13    25    26    1
    14    25    18   ar
    15    19    18   ar
    16    18    17    1
    17     6     7   ar
    18     8     7   ar
    19     8     9    1
    20    17     9   ar
    21    17    27   ar
    22     9    10   ar
    23    27    16   ar
    24    10    16   ar
    25    10    11    1
    26    12    11    2
    27    11    13   am
    28    13    14    1
    29    14    15    1
