@<TRIPOS>MOLECULE
2uwh_PLM_A_1.pdb
 18 17 0 0 0
SMALL
GASTEIGER

@<TRIPOS>ATOM
      1  C1        61.3340    3.1590    9.5650 C.2   1460  PLM1460     0.3649
      2  O1        62.4640    3.6570    9.7390 O.co2 1460  PLM1460    -0.2457
      3  O2        61.1680    1.9550    9.8360 O.co2 1460  PLM1460    -0.2457
      4  C2        60.1930    4.0010    9.0690 C.3   1460  PLM1460     0.1141
      5  C3        59.5340    3.4880    7.8010 C.3   1460  PLM1460     0.0118
      6  C4        58.6920    4.5870    7.1730 C.3   1460  PLM1460     0.0006
      7  C5        57.2140    4.3700    7.3990 C.3   1460  PLM1460     0.0000
      8  C6        56.5730    5.4400    8.2700 C.3   1460  PLM1460     0.0000
      9  C7        55.0700    5.4330    8.0590 C.3   1460  PLM1460     0.0000
     10  C8        54.2790    5.5980    9.3380 C.3   1460  PLM1460     0.0000
     11  C9        52.7820    5.4340    9.1150 C.3   1460  PLM1460     0.0000
     12  CA        52.0670    6.6990    8.6720 C.3   1460  PLM1460     0.0000
     13  CB        51.1920    7.2910    9.7600 C.3   1460  PLM1460     0.0000
     14  CC        51.9630    8.2930   10.6070 C.3   1460  PLM1460     0.0000
     15  CD        51.0530    9.0870   11.5330 C.3   1460  PLM1460     0.0000
     16  CE        50.7410   10.4870   11.0170 C.3   1460  PLM1460     0.0000
     17  CF        49.3440   10.9320   11.4150 C.3   1460  PLM1460     0.0000
     18  CG        48.7680   11.8760   10.3790 C.3   1460  PLM1460     0.0000
@<TRIPOS>BOND
     1     6     7    1
     2     6     5    1
     3     7     8    1
     4     5     4    1
     5     9     8    1
     6     9    10    1
     7    12    11    1
     8    12    13    1
     9     4     1    1
    10    11    10    1
    11     1     2   ar
    12     1     3   ar
    13    13    14    1
    14    18    17    1
    15    14    15    1
    16    16    17    1
    17    16    15    1
