@<TRIPOS>MOLECULE
2uwh_HEM_A_1.pdb
 43 50 0 0 0
SMALL
GASTEIGER

@<TRIPOS>ATOM
      1 FE         42.7450    7.8000   10.7050 Fe    1459  HEM1459     0.0000
      2  CHA       43.9370    5.7030   13.1310 C.2   1459  HEM1459     0.0000
      3  CHB       44.4030    5.9770    8.3330 C.2   1459  HEM1459     0.0000
      4  CHC       41.1220    9.5720    8.3010 C.2   1459  HEM1459     0.0000
      5  CHD       41.8240   10.0940   13.0660 C.2   1459  HEM1459     0.0000
      6  NA        43.9150    6.1650   10.7310 N.ar  1459  HEM1459     0.0000
      7  C1A       44.3300    5.3930   11.7630 C.ar  1459  HEM1459     0.0000
      8  C2A       45.1490    4.2960   11.4770 C.ar  1459  HEM1459     0.0000
      9  C3A       45.3070    4.3250   10.1130 C.ar  1459  HEM1459     0.0000
     10  C4A       44.5080    5.5140    9.7170 C.ar  1459  HEM1459     0.0000
     11  CMA       46.1060    3.3770    9.2500 C.3   1459  HEM1459     0.0000
     12  CAA       45.7410    3.2830   12.4400 C.3   1459  HEM1459     0.0000
     13  CBA       47.0840    3.7260   12.9850 C.3   1459  HEM1459     0.0000
     14  CGA       47.9490    2.8590   13.5440 C.2   1459  HEM1459     0.0000
     15  O1A       49.0400    3.2870   13.9790 O.co2 1459  HEM1459     0.0000
     16  O2A       47.6590    1.6470   13.6200 O.co2 1459  HEM1459     0.0000
     17  NB        42.7680    7.7940    8.6950 N.2   1459  HEM1459     0.0000
     18  C1B       43.4930    7.0190    7.8570 C.2   1459  HEM1459     0.0000
     19  C2B       43.3140    7.2460    6.4070 C.2   1459  HEM1459     0.0000
     20  C3B       42.3200    8.3340    6.3720 C.2   1459  HEM1459     0.0000
     21  C4B       42.0860    8.5730    7.8260 C.2   1459  HEM1459     0.0000
     22  CMB       44.0000    6.5030    5.2930 C.3   1459  HEM1459     0.0000
     23  CAB       41.6820    9.0560    5.2040 C.3   1459  HEM1459     0.0000
     24  CBB       41.8900    8.3430    3.8920 C.3   1459  HEM1459     0.0000
     25  NC        41.6710    9.4990   10.6910 N.ar  1459  HEM1459     0.0000
     26  C1C       41.0550   10.1030    9.6580 C.ar  1459  HEM1459     0.0000
     27  C2C       40.3200   11.3400    9.9870 C.ar  1459  HEM1459     0.0000
     28  C3C       40.5510   11.4470   11.4330 C.ar  1459  HEM1459     0.0000
     29  C4C       41.3390   10.3340   11.7110 C.ar  1459  HEM1459     0.0000
     30  CMC       39.5380   12.2420    9.0650 C.3   1459  HEM1459     0.0000
     31  CAC       40.0780   12.5160   12.4030 C.3   1459  HEM1459     0.0000
     32  CBC       38.5850   12.7520   12.3360 C.3   1459  HEM1459     0.0000
     33  ND        42.8640    7.8860   12.7100 N.2   1459  HEM1459     0.0000
     34  C1D       42.4710    8.8750   13.5400 C.2   1459  HEM1459     0.0000
     35  C2D       42.7000    8.6760   14.9930 C.2   1459  HEM1459     0.0000
     36  C3D       43.3410    7.3520   15.0100 C.2   1459  HEM1459     0.0000
     37  C4D       43.3890    6.9890   13.5700 C.2   1459  HEM1459     0.0000
     38  CMD       42.3570    9.6170   16.1250 C.3   1459  HEM1459     0.0000
     39  CAD       43.8370    6.5360   16.1750 C.3   1459  HEM1459     0.0000
     40  CBD       42.7000    6.2570   17.1200 C.3   1459  HEM1459     0.0000
     41  CGD       42.8210    5.4060   18.1390 C.2   1459  HEM1459     0.0000
     42  O1D       41.8160    5.2680   18.8720 O.co2 1459  HEM1459     0.0000
     43  O2D       43.8990    4.7890   18.3280 O.co2 1459  HEM1459     0.0000
@<TRIPOS>BOND
     1    24    23    1
     2    23    20    1
     3    22    19    1
     4    20    19    2
     5    20    21    1
     6    19    18    1
     7    21     4    2
     8    21    17    1
     9    18     3    1
    10    18    17    2
    11     4    26    1
    12     3    10    2
    13    17     1    1
    14    30    27    1
    15    11     9    1
    16    26    27   ar
    17    26    25   ar
    18    10     9   ar
    19    10     6   ar
    20    27    28   ar
    21     9     8   ar
    22    25     1    1
    23    25    29   ar
    24     1     6    1
    25     1    33    1
    26     6     7   ar
    27    28    29   ar
    28    28    31    1
    29     8     7   ar
    30     8    12    1
    31    29     5    1
    32     7     2    2
    33    32    31    1
    34    12    13    1
    35    33    34    1
    36    33    37    2
    37    13    14    1
    38     5    34    2
    39     2    37    1
    40    34    35    1
    41    14    16   ar
    42    14    15   ar
    43    37    36    1
    44    35    36    2
    45    35    38    1
    46    36    39    1
    47    39    40    1
    48    40    41    1
    49    41    43   ar
    50    41    42   ar
