@<TRIPOS>MOLECULE
2uwl_895_A_1.pdb
 28 30 0 0 0
SMALL
GASTEIGER

@<TRIPOS>ATOM
      1 CL1        13.7720    7.5130   26.1530 Cl    1245  8951245    -0.0752
      2  C1        12.0760    7.7700   26.1550 C.ar  1245  8951245     0.0870
      3  C2        11.2160    7.3640   27.1950 C.ar  1245  8951245     0.0185
      4  C3         9.8780    7.6550   26.8610 C.ar  1245  8951245     0.0079
      5  C4         9.7590    8.2890   25.6240 C.ar  1245  8951245     0.0317
      6  C9         8.4660    8.7370   25.0060 C.2   1245  8951245     0.0278
      7  S1         6.6090    9.3300   23.2520 S.O2  1245  8951245     0.0785
      8  O2         6.6720   10.6700   22.7810 O.2   1245  8951245    -0.1515
      9  O1         5.7930    9.0340   24.3880 O.2   1245  8951245    -0.1515
     10  N1         6.1810    8.3880   22.0080 N.3   1245  8951245    -0.0699
     11  C12        6.0500    6.9380   22.1510 C.3   1245  8951245     0.1754
     12  C13        4.7340    6.3310   21.6280 C.3   1245  8951245     0.0502
     13  C14        5.1160    4.8570   21.4380 C.3   1245  8951245     0.0959
     14  C15        7.0590    6.1230   21.3770 C.2   1245  8951245     0.2437
     15  O3         8.1980    6.4750   21.1190 O.2   1245  8951245    -0.2733
     16  N2         6.5060    4.9530   21.0050 N.am  1245  8951245    -0.2718
     17  C16        7.2920    3.9520   20.2640 C.3   1245  8951245     0.1521
     18  C17        7.0800    2.5250   20.7880 C.3   1245  8951245     0.0314
     19  C18        7.0330    3.9740   18.7690 C.2   1245  8951245     0.2439
     20  O4         5.9960    4.4980   18.3700 O.2   1245  8951245    -0.2731
     21  N3         7.9590    3.4120   17.9470 N.am  1245  8951245    -0.2731
     22  C19        9.2200    2.7930   18.4080 C.3   1245  8951245     0.1255
     23  C20        9.9530    1.9090   17.3900 C.3   1245  8951245     0.1636
     24  O5         9.8980    2.5590   16.1310 O.3   1245  8951245    -0.3501
     25  C22        8.5550    2.5620   15.6480 C.3   1245  8951245     0.1636
     26  C23        7.6690    3.4660   16.5110 C.3   1245  8951245     0.1255
     27  S6        11.2650    8.5120   24.8510 S.2   1245  8951245    -0.0755
     28  C6         8.2190    8.8190   23.6890 C.2   1245  8951245     0.1426
@<TRIPOS>BOND
     1    25    24    1
     2    25    26    1
     3    24    23    1
     4    26    21    1
     5    23    22    1
     6    21    22    1
     7    21    19   am
     8    20    19    2
     9    19    17    1
    10    17    18    1
    11    17    16    1
    12    16    14   am
    13    16    13    1
    14    15    14    2
    15    14    11    1
    16    13    12    1
    17    12    11    1
    18    10    11    1
    19    10     7    1
    20     8     7    2
    21     7    28    1
    22     7     9    2
    23    28     6    2
    24    27     5   ar
    25    27     2   ar
    26     6     5    1
    27     5     4   ar
    28     1     2    1
    29     2     3   ar
    30     4     3   ar
