@<TRIPOS>MOLECULE
2uwo_701_A_1.pdb
 29 31 0 0 0
SMALL
GASTEIGER

@<TRIPOS>ATOM
      1 CL1        13.9370    7.3900   26.4430 Cl    1245  7011245    -0.0752
      2  C1        12.2450    7.5730   26.3190 C.ar  1245  7011245     0.0870
      3  C2        11.3060    7.0420   27.2320 C.ar  1245  7011245     0.0185
      4  C3         9.9940    7.3730   26.8330 C.ar  1245  7011245     0.0076
      5  C4         9.9530    8.1170   25.6440 C.ar  1245  7011245     0.0277
      6  C9         8.7350    8.6320   24.9240 C.2   1245  7011245     0.0041
      7  C8         8.9900    9.6960   23.8820 C.3   1245  7011245     0.0330
      8  S1         6.0100    8.5920   24.5560 S.O2  1245  7011245     0.0782
      9  O2         4.9870    7.8720   25.2610 O.2   1245  7011245    -0.1516
     10  O1         5.9350    9.9920   24.4140 O.2   1245  7011245    -0.1516
     11  N1         5.9310    8.0240   22.9250 N.3   1245  7011245    -0.0699
     12  C12        5.8320    6.5820   22.7650 C.3   1245  7011245     0.1754
     13  C13        4.5110    6.0850   22.1530 C.3   1245  7011245     0.0502
     14  C14        4.8910    4.7580   21.4910 C.3   1245  7011245     0.0959
     15  C15        6.8980    5.9280   21.8860 C.2   1245  7011245     0.2437
     16  O3         8.0680    6.3030   21.7470 O.2   1245  7011245    -0.2733
     17  N2         6.3470    4.8400   21.3110 N.am  1245  7011245    -0.2718
     18  C16        7.1550    3.8230   20.6180 C.3   1245  7011245     0.1521
     19  C17        6.8170    2.4010   21.0890 C.3   1245  7011245     0.0314
     20  C18        7.0080    3.9220   19.0870 C.2   1245  7011245     0.2439
     21  O4         5.9470    4.3390   18.6670 O.2   1245  7011245    -0.2731
     22  N3         8.0250    3.5650   18.2390 N.am  1245  7011245    -0.2731
     23  C19        7.8660    3.8740   16.8080 C.3   1245  7011245     0.1255
     24  C20        8.2620    2.6880   15.9280 C.3   1245  7011245     0.1636
     25  O5         9.5220    2.2110   16.3400 O.3   1245  7011245    -0.3501
     26  C22        9.5980    1.7220   17.6610 C.3   1245  7011245     0.1636
     27  C23        9.2870    2.8800   18.6060 C.3   1245  7011245     0.1255
     28  S6        11.5230    8.4490   25.0570 S.2   1245  7011245    -0.0758
     29  C6         7.5340    8.0660   25.2120 C.2   1245  7011245     0.1383
@<TRIPOS>BOND
     1    24    25    1
     2    24    23    1
     3    25    26    1
     4    23    22    1
     5    26    27    1
     6    22    27    1
     7    22    20   am
     8    21    20    2
     9    20    18    1
    10    18    19    1
    11    18    17    1
    12    17    14    1
    13    17    15   am
    14    14    13    1
    15    16    15    2
    16    15    12    1
    17    13    12    1
    18    12    11    1
    19    11     8    1
    20     7     6    1
    21    10     8    2
    22     8    29    1
    23     8     9    2
    24     6    29    2
    25     6     5    1
    26    28     5   ar
    27    28     2   ar
    28     5     4   ar
    29     2     1    1
    30     2     3   ar
    31     4     3   ar
