@<TRIPOS>MOLECULE
2uwp_894_A_1.pdb
 28 30 0 0 0
SMALL
GASTEIGER

@<TRIPOS>ATOM
      1 CL1        13.8890    7.1760   26.1240 Cl    1245  8941245    -0.0752
      2  C1        12.1960    7.4610   26.0640 C.ar  1245  8941245     0.0867
      3  C2        11.3440    7.0710   27.0180 C.ar  1245  8941245     0.0181
      4  C3         9.9840    7.4670   26.6680 C.ar  1245  8941245     0.0036
      5  C4         9.8990    8.1260   25.5140 C.ar  1245  8941245     0.0099
      6  C9         8.6340    8.6640   24.9060 C.3   1245  8941245     0.0600
      7  S1         6.5040    8.5600   23.3070 S.O2  1245  8941245     0.0581
      8  O2         6.3800    9.8990   22.8120 O.2   1245  8941245    -0.1561
      9  O1         5.7680    8.1660   24.4680 O.2   1245  8941245    -0.1561
     10  N1         5.9590    7.6380   21.9600 N.3   1245  8941245    -0.0741
     11  C12        5.9090    6.2060   22.0910 C.3   1245  8941245     0.1750
     12  C13        4.6250    5.5960   21.5360 C.3   1245  8941245     0.0502
     13  C14        5.0760    4.4400   20.6470 C.3   1245  8941245     0.0959
     14  C15        7.0300    5.5660   21.2890 C.2   1245  8941245     0.2437
     15  O3         8.1800    5.9910   21.2610 O.2   1245  8941245    -0.2733
     16  N2         6.5420    4.4800   20.6680 N.am  1245  8941245    -0.2718
     17  C16        7.3880    3.4230   20.1030 C.3   1245  8941245     0.1521
     18  C17        7.0020    2.0600   20.7060 C.3   1245  8941245     0.0314
     19  C18        7.2960    3.4220   18.5590 C.2   1245  8941245     0.2439
     20  O4         6.2350    3.7630   18.0380 O.2   1245  8941245    -0.2731
     21  N3         8.3940    3.0620   17.8140 N.am  1245  8941245    -0.2731
     22  C19        9.6610    2.5140   18.3470 C.3   1245  8941245     0.1255
     23  C20       10.1760    1.3400   17.5190 C.3   1245  8941245     0.1636
     24  O5        10.1400    1.7080   16.1540 O.3   1245  8941245    -0.3501
     25  C22        8.8510    2.0060   15.6560 C.3   1245  8941245     0.1636
     26  C23        8.3430    3.2580   16.3530 C.3   1245  8941245     0.1255
     27  S6        11.4660    8.3100   24.7160 S.2   1245  8941245    -0.0798
     28  C6         8.2600    8.2020   23.5050 C.3   1245  8941245     0.1757
@<TRIPOS>BOND
     1    25    24    1
     2    25    26    1
     3    24    23    1
     4    26    21    1
     5    23    22    1
     6    21    22    1
     7    21    19   am
     8    20    19    2
     9    19    17    1
    10    17    16    1
    11    17    18    1
    12    13    16    1
    13    13    12    1
    14    16    14   am
    15    15    14    2
    16    14    11    1
    17    12    11    1
    18    10    11    1
    19    10     7    1
    20     8     7    2
    21     7    28    1
    22     7     9    2
    23    28     6    1
    24    27     5   ar
    25    27     2   ar
    26     6     5    1
    27     5     4   ar
    28     2     1    1
    29     2     3   ar
    30     4     3   ar
