@<TRIPOS>MOLECULE
2uws_U10_M_1.pdb
 48 48 0 0 0
SMALL
GASTEIGER

@<TRIPOS>ATOM
      1  C1        20.5710   76.2760   18.2290 C.2   1313  U101313     0.0198
      2  C2        21.3920   75.1140   18.2290 C.2   1313  U101313     0.2282
      3  C3        21.6560   74.4220   17.0090 C.2   1313  U101313     0.2140
      4  C4        21.1060   74.9250   15.7920 C.2   1313  U101313     0.2140
      5  C5        20.2880   76.0760   15.8250 C.2   1313  U101313     0.2285
      6  C6        20.0140   76.7610   17.0310 C.2   1313  U101313     0.0235
      7  C1M       20.2830   76.9800   19.5150 C.3   1313  U101313     0.0343
      8  C3M       23.5670   73.1010   16.9890 C.3   1313  U101313     0.2528
      9  C4M       22.1390   73.8400   13.9670 C.3   1313  U101313     0.2528
     10  C7        19.1600   78.0160   16.9960 C.3   1313  U101313     0.0548
     11  C8        19.9920   79.2220   17.3400 C.2   1313  U101313    -0.0298
     12  C9        20.2520   80.3330   16.4170 C.2   1313  U101313    -0.0475
     13  C10       19.6000   80.3520   15.0630 C.3   1313  U101313     0.0260
     14  C11       21.1970   81.4610   16.8050 C.3   1313  U101313     0.0264
     15  C12       20.5800   82.8600   16.7570 C.3   1313  U101313     0.0297
     16  C13       19.6100   82.9220   17.9060 C.2   1313  U101313    -0.0342
     17  C14       19.4230   84.0580   18.8460 C.2   1313  U101313    -0.0478
     18  C15       20.4170   85.1890   18.9370 C.3   1313  U101313     0.0260
     19  C16       18.1870   84.0240   19.7460 C.3   1313  U101313     0.0263
     20  C17       17.2590   85.2170   19.5730 C.3   1313  U101313     0.0297
     21  C18       16.0750   84.8810   18.7030 C.2   1313  U101313    -0.0343
     22  C19       15.4810   85.9700   17.8830 C.2   1313  U101313    -0.0482
     23  C20       16.0800   87.3380   17.9160 C.3   1313  U101313     0.0260
     24  C21       14.3010   85.7900   16.9570 C.3   1313  U101313     0.0217
     25  C22       13.2180   84.9340   17.5710 C.3   1313  U101313     0.0043
     26  C23       11.8880   85.5040   17.1670 C.3   1313  U101313     0.0003
     27  C24       10.7690   84.6140   16.8510 C.3   1313  U101313     0.0000
     28  C25       10.3690   83.5900   17.8760 C.3   1313  U101313     0.0000
     29  C26       10.0830   84.7680   15.4960 C.3   1313  U101313     0.0003
     30  C27        8.6080   85.1240   15.6010 C.3   1313  U101313     0.0043
     31  C28        7.9840   84.9960   14.2410 C.3   1313  U101313     0.0217
     32  C29        6.5090   85.0180   14.1160 C.2   1313  U101313    -0.0478
     33  C30        5.9160   85.8840   13.0140 C.3   1313  U101313     0.0260
     34  C31        5.6850   84.1840   15.1270 C.2   1313  U101313    -0.0299
     35  C32        4.1310   84.3080   15.2360 C.3   1313  U101313     0.0507
     36  C33        3.4830   82.9490   15.5540 C.2   1313  U101313    -0.0299
     37  C34        3.8400   81.7060   14.7980 C.2   1313  U101313    -0.0478
     38  C35        5.0650   81.6740   13.9000 C.3   1313  U101313     0.0260
     39  C36        2.9830   80.4570   14.9020 C.3   1313  U101313     0.0217
     40  C37        2.7460   79.8850   13.5050 C.3   1313  U101313     0.0043
     41  C38        1.3530   80.2760   13.0840 C.3   1313  U101313     0.0003
     42  C39        0.9610   80.9880   11.8440 C.3   1313  U101313     0.0000
     43  C40        1.8960   81.9570   11.1370 C.3   1313  U101313     0.0000
     44  C41       -0.4520   80.7140   11.3190 C.3   1313  U101313     0.0000
     45  O2        22.0920   74.8370   19.2230 O.2   1313  U101313    -0.2836
     46  O3        22.1570   73.2620   17.0430 O.2   1313  U101313    -0.4652
     47  O4        21.0380   74.1770   14.7970 O.2   1313  U101313    -0.4652
     48  O5        19.7220   76.4420   14.7960 O.2   1313  U101313    -0.2835
@<TRIPOS>BOND
     1    43    42    1
     2    44    42    1
     3    42    41    1
     4    33    32    1
     5    41    40    1
     6    40    39    1
     7    38    37    1
     8     9    47    1
     9    32    31    1
    10    32    34    2
    11    31    30    1
    12    48     5    2
    13    47     4    1
    14    37    39    1
    15    37    36    2
    16    13    12    1
    17    34    35    1
    18    35    36    1
    19    29    30    1
    20    29    27    1
    21     4     5    1
    22     4     3    2
    23     5     6    1
    24    12    14    1
    25    12    11    2
    26    15    14    1
    27    15    16    1
    28    27    26    1
    29    27    28    1
    30    24    25    1
    31    24    22    1
    32     8    46    1
    33    10     6    1
    34    10    11    1
    35     3    46    1
    36     3     2    1
    37     6     1    2
    38    26    25    1
    39    22    23    1
    40    22    21    2
    41    16    17    2
    42     1     2    1
    43     1     7    1
    44     2    45    2
    45    21    20    1
    46    17    18    1
    47    17    19    1
    48    20    19    1
