@<TRIPOS>MOLECULE
2uws_UQ2_L_1.pdb
 23 23 0 0 0
SMALL
GASTEIGER

@<TRIPOS>ATOM
      1  C1        35.0340   73.4290   31.8580 C.2   1285  UQ21285     0.1987
      2  C2        34.9970   73.6460   30.4610 C.3   1285  UQ21285     0.2104
      3  C3        34.4550   74.8460   29.9820 C.3   1285  UQ21285     0.2104
      4  C4        34.0370   75.8210   30.8910 C.2   1285  UQ21285     0.1987
      5  C5        34.1070   75.6220   32.2790 C.2   1285  UQ21285     0.0142
      6  C6        34.6170   74.4020   32.7940 C.2   1285  UQ21285     0.0139
      7  CM2       36.0460   72.0560   29.1090 C.3   1285  UQ21285     0.1747
      8  CM3       34.8630   75.3140   27.7340 C.3   1285  UQ21285     0.1747
      9  CM5       33.6210   76.7410   33.1620 C.3   1285  UQ21285     0.0339
     10  C7        34.9710   74.2130   34.2870 C.3   1285  UQ21285     0.0291
     11  C8        34.0590   73.2350   35.0380 C.3   1285  UQ21285     0.0048
     12  C9        33.9950   72.9670   36.5130 C.3   1285  UQ21285     0.0003
     13  C10       32.6610   72.8310   37.2020 C.3   1285  UQ21285     0.0000
     14  C11       35.2580   72.8020   37.3420 C.3   1285  UQ21285     0.0000
     15  C12       35.0370   72.0460   38.6610 C.3   1285  UQ21285     0.0000
     16  C13       35.9820   70.8580   38.7820 C.3   1285  UQ21285     0.0000
     17  C14       37.2350   70.9030   39.5650 C.3   1285  UQ21285     0.0000
     18  C15       38.5100   71.2180   38.8570 C.3   1285  UQ21285     0.0000
     19  C16       37.2710   70.6310   41.0610 C.3   1285  UQ21285     0.0000
     20  O1        35.2260   72.2740   32.2450 O.2   1285  UQ21285    -0.2890
     21  O2        35.9990   73.2720   29.8220 O.3   1285  UQ21285    -0.3429
     22  O3        34.0360   74.9080   28.8110 O.3   1285  UQ21285    -0.3429
     23  O4        33.5240   76.8410   30.4310 O.2   1285  UQ21285    -0.2890
@<TRIPOS>BOND
     1     8    22    1
     2    22     3    1
     3     7    21    1
     4    21     2    1
     5     3     2    1
     6     3     4    1
     7    23     4    2
     8     2     1    1
     9     4     5    1
    10     1    20    2
    11     1     6    1
    12     5     6    2
    13     5     9    1
    14     6    10    1
    15    10    11    1
    16    11    12    1
    17    12    13    1
    18    12    14    1
    19    14    15    1
    20    15    16    1
    21    16    17    1
    22    18    17    1
    23    17    19    1
