@<TRIPOS>MOLECULE
2uws_SPO_M_1.pdb
 42 41 0 0 0
SMALL
GASTEIGER

@<TRIPOS>ATOM
      1  CM1       42.8900   83.4030   55.3260 C.3   1314  SPO1314     0.1739
      2  O1        43.8720   84.4470   55.1520 O.3   1314  SPO1314    -0.3555
      3  C1        44.8450   84.5300   54.0670 C.3   1314  SPO1314     0.0970
      4  C2        45.7920   83.3220   54.0590 C.3   1314  SPO1314     0.0300
      5  C3        45.6670   85.8090   54.2230 C.3   1314  SPO1314     0.0300
      6  C4        44.1700   84.5550   52.6910 C.3   1314  SPO1314     0.0529
      7  C5        42.9010   85.3810   52.6290 C.2   1314  SPO1314    -0.0280
      8  C6        42.8750   86.6780   51.9430 C.2   1314  SPO1314    -0.0266
      9  C7        41.5870   87.3250   51.5860 C.3   1314  SPO1314     0.0436
     10  C8        40.3690   87.0990   52.4490 C.3   1314  SPO1314     0.0094
     11  C9        41.5090   88.1800   50.3760 C.2   1314  SPO1314    -0.0221
     12  C10       40.2640   88.3720   49.6320 C.2   1314  SPO1314    -0.0049
     13  C11       40.3250   89.1930   48.4180 C.2   1314  SPO1314    -0.0088
     14  C12       39.1920   89.9120   47.7740 C.2   1314  SPO1314    -0.0439
     15  C13       37.8480   90.1140   48.4260 C.3   1314  SPO1314     0.0264
     16  C14       39.4160   90.4540   46.4330 C.3   1314  SPO1314     0.0220
     17  C15       38.2600   90.6420   45.5770 C.3   1314  SPO1314     0.0043
     18  C16       37.9020   92.0030   45.2460 C.3   1314  SPO1314     0.0003
     19  C17       37.1060   92.2600   44.0510 C.3   1314  SPO1314     0.0003
     20  C18       35.6300   92.0370   44.1180 C.3   1314  SPO1314     0.0000
     21  C19       37.7740   92.7370   42.8280 C.3   1314  SPO1314     0.0047
     22  C20       36.9830   93.3400   41.7760 C.3   1314  SPO1314     0.0257
     23  C21       37.4490   94.5240   41.0830 C.2   1314  SPO1314    -0.0307
     24  C22       38.7360   94.5280   40.4130 C.2   1314  SPO1314    -0.0307
     25  C23       39.0290   95.5290   39.3730 C.3   1314  SPO1314     0.0260
     26  C24       37.9640   95.9700   38.4170 C.3   1314  SPO1314     0.0050
     27  C25       40.3950   96.0860   39.3090 C.3   1314  SPO1314     0.0300
     28  C26       41.2390   96.0460   38.1200 C.2   1314  SPO1314    -0.0304
     29  C27       42.6790   96.1830   38.2750 C.2   1314  SPO1314    -0.0310
     30  C28       43.5330   96.4960   37.1130 C.3   1314  SPO1314     0.0217
     31  C29       42.8970   96.6280   35.7570 C.3   1314  SPO1314     0.0047
     32  C30       45.0390   96.6800   37.2710 C.3   1314  SPO1314     0.0043
     33  C31       45.3710   98.0590   37.8260 C.3   1314  SPO1314     0.0003
     34  C32       46.7590   98.5250   37.4570 C.3   1314  SPO1314     0.0000
     35  C33       47.5310   99.4250   38.3480 C.3   1314  SPO1314     0.0000
     36  C34       46.7830  100.4400   39.1500 C.3   1314  SPO1314     0.0000
     37  C35       49.0550   99.3270   38.4740 C.3   1314  SPO1314     0.0000
     38  C36       49.8200  100.5070   37.8490 C.3   1314  SPO1314     0.0000
     39  C37       51.2940  100.1770   37.6220 C.3   1314  SPO1314     0.0000
     40  C38       51.9310   99.9900   36.2680 C.3   1314  SPO1314     0.0000
     41  C39       51.5700   98.7930   35.3990 C.3   1314  SPO1314     0.0000
     42  C40       52.9460  100.9930   35.7490 C.3   1314  SPO1314     0.0000
@<TRIPOS>BOND
     1    41    40    1
     2    42    40    1
     3    31    30    1
     4    40    39    1
     5    30    32    1
     6    30    29    1
     7    32    33    1
     8    34    33    1
     9    34    35    1
    10    39    38    1
    11    38    37    1
    12    28    29    2
    13    28    27    1
    14    35    37    1
    15    35    36    1
    16    26    25    1
    17    27    25    1
    18    25    24    1
    19    24    23    2
    20    23    22    1
    21    22    21    1
    22    21    19    1
    23    19    20    1
    24    19    18    1
    25    18    17    1
    26    17    16    1
    27    16    14    1
    28    14    13    2
    29    14    15    1
    30    13    12    1
    31    12    11    2
    32    11     9    1
    33     9     8    1
    34     9    10    1
    35     8     7    2
    36     7     6    1
    37     6     3    1
    38     4     3    1
    39     3     5    1
    40     3     2    1
    41     2     1    1
