@<TRIPOS>MOLECULE
2uwt_U10_M_1.pdb
 48 48 0 0 0
SMALL
GASTEIGER

@<TRIPOS>ATOM
      1  C1        20.7200   76.5280   18.3190 C.2   1313  U101313     0.0198
      2  C2        21.5000   75.3270   18.2900 C.2   1313  U101313     0.2282
      3  C3        21.7040   74.6460   17.0470 C.2   1313  U101313     0.2140
      4  C4        21.1280   75.1720   15.8500 C.2   1313  U101313     0.2140
      5  C5        20.3640   76.3430   15.9110 C.2   1313  U101313     0.2285
      6  C6        20.1700   77.0350   17.1240 C.2   1313  U101313     0.0235
      7  C1M       20.4850   77.2450   19.6320 C.3   1313  U101313     0.0343
      8  C3M       23.7110   73.3860   17.0150 C.3   1313  U101313     0.2528
      9  C4M       22.1300   74.0540   14.0370 C.3   1313  U101313     0.2528
     10  C7        19.2310   78.2280   17.0840 C.3   1313  U101313     0.0548
     11  C8        19.9490   79.5100   17.3550 C.2   1313  U101313    -0.0298
     12  C9        20.2730   80.5520   16.3660 C.2   1313  U101313    -0.0475
     13  C10       19.7540   80.4820   14.9470 C.3   1313  U101313     0.0260
     14  C11       21.1740   81.6890   16.8370 C.3   1313  U101313     0.0264
     15  C12       20.5450   83.0630   16.6700 C.3   1313  U101313     0.0297
     16  C13       19.3660   83.2000   17.6090 C.2   1313  U101313    -0.0342
     17  C14       19.2890   84.1770   18.7230 C.2   1313  U101313    -0.0478
     18  C15       20.3340   85.2570   18.9090 C.3   1313  U101313     0.0260
     19  C16       18.1170   84.0710   19.6880 C.3   1313  U101313     0.0263
     20  C17       17.2010   85.2970   19.6630 C.3   1313  U101313     0.0297
     21  C18       16.1290   85.0730   18.6250 C.2   1313  U101313    -0.0343
     22  C19       15.5850   86.1860   17.8350 C.2   1313  U101313    -0.0482
     23  C20       16.1580   87.5720   17.9040 C.3   1313  U101313     0.0260
     24  C21       14.4380   85.9380   16.8960 C.3   1313  U101313     0.0217
     25  C22       13.1510   85.7640   17.6720 C.3   1313  U101313     0.0043
     26  C23       12.0280   85.7670   16.6740 C.3   1313  U101313     0.0003
     27  C24       10.9220   84.8090   16.7890 C.3   1313  U101313     0.0000
     28  C25       10.6950   84.0760   18.0770 C.3   1313  U101313     0.0000
     29  C26       10.0390   84.5540   15.5870 C.3   1313  U101313     0.0000
     30  C27        8.9630   85.6080   15.3630 C.3   1313  U101313     0.0000
     31  C28        8.0450   85.0020   14.3350 C.3   1313  U101313     0.0000
     32  C29        6.6170   85.3560   14.2100 C.3   1313  U101313     0.0003
     33  C30        6.1820   85.9520   12.8830 C.3   1313  U101313     0.0000
     34  C31        5.6490   85.1170   15.3920 C.3   1313  U101313     0.0046
     35  C32        4.1310   84.9830   15.0650 C.3   1313  U101313     0.0254
     36  C33        3.5310   83.5840   15.3120 C.2   1313  U101313    -0.0346
     37  C34        4.0680   82.2960   14.7540 C.2   1313  U101313    -0.0478
     38  C35        5.2610   82.2760   13.8230 C.3   1313  U101313     0.0260
     39  C36        3.4090   80.9790   15.1380 C.3   1313  U101313     0.0263
     40  C37        3.2720   80.0340   13.9470 C.3   1313  U101313     0.0297
     41  C38        1.9210   80.2140   13.2870 C.2   1313  U101313    -0.0342
     42  C39        1.6740   80.9620   12.0300 C.2   1313  U101313    -0.0478
     43  C40        2.7900   81.5440   11.2040 C.3   1313  U101313     0.0260
     44  C41        0.2430   81.1480   11.5640 C.3   1313  U101313     0.0260
     45  O2        22.1000   74.9180   19.3330 O.2   1313  U101313    -0.2836
     46  O3        22.3030   73.5230   17.0170 O.2   1313  U101313    -0.4652
     47  O4        21.0200   74.4870   14.8020 O.2   1313  U101313    -0.4652
     48  O5        19.6470   76.6250   14.9320 O.2   1313  U101313    -0.2835
@<TRIPOS>BOND
     1    43    42    1
     2    44    42    1
     3    42    41    2
     4    33    32    1
     5    41    40    1
     6    38    37    1
     7    40    39    1
     8     9    47    1
     9    32    31    1
    10    32    34    1
    11    31    30    1
    12    37    39    1
    13    37    36    2
    14    47     4    1
    15    48     5    2
    16    13    12    1
    17    35    36    1
    18    35    34    1
    19    30    29    1
    20    29    27    1
    21     4     5    1
    22     4     3    2
    23     5     6    1
    24    12    14    1
    25    12    11    2
    26    15    14    1
    27    15    16    1
    28    26    27    1
    29    26    25    1
    30    27    28    1
    31    24    25    1
    32    24    22    1
    33     8    46    1
    34    46     3    1
    35     3     2    1
    36    10     6    1
    37    10    11    1
    38     6     1    2
    39    16    17    2
    40    22    23    1
    41    22    21    2
    42     2     1    1
    43     2    45    2
    44     1     7    1
    45    21    20    1
    46    17    18    1
    47    17    19    1
    48    20    19    1
