@<TRIPOS>MOLECULE
2uwt_SPO_M_1.pdb
 42 41 0 0 0
SMALL
GASTEIGER

@<TRIPOS>ATOM
      1  CM1       42.9730   83.5730   55.5090 C.3   1314  SPO1314     0.1739
      2  O1        43.8990   84.6640   55.3130 O.3   1314  SPO1314    -0.3555
      3  C1        44.8140   84.7510   54.1930 C.3   1314  SPO1314     0.0970
      4  C2        45.7640   83.5470   54.1760 C.3   1314  SPO1314     0.0300
      5  C3        45.6480   86.0360   54.2970 C.3   1314  SPO1314     0.0300
      6  C4        44.0430   84.7640   52.8660 C.3   1314  SPO1314     0.0529
      7  C5        42.9320   85.7830   52.8710 C.2   1314  SPO1314    -0.0280
      8  C6        42.7580   86.6150   51.6970 C.2   1314  SPO1314    -0.0266
      9  C7        41.5390   87.4270   51.4990 C.3   1314  SPO1314     0.0436
     10  C8        40.4630   87.5300   52.5530 C.3   1314  SPO1314     0.0094
     11  C9        41.4100   88.1440   50.2150 C.2   1314  SPO1314    -0.0221
     12  C10       40.1370   88.7290   49.8200 C.2   1314  SPO1314    -0.0046
     13  C11       40.0410   89.2900   48.4770 C.2   1314  SPO1314    -0.0046
     14  C12       38.9080   90.1140   48.0180 C.2   1314  SPO1314    -0.0222
     15  C13       37.6490   90.2870   48.8410 C.3   1314  SPO1314     0.0310
     16  C14       39.0460   90.7610   46.7080 C.2   1314  SPO1314    -0.0088
     17  C15       37.8570   91.2070   45.9880 C.2   1314  SPO1314    -0.0265
     18  C16       38.0770   92.1450   44.8990 C.3   1314  SPO1314     0.0260
     19  C17       37.0230   92.5080   43.9370 C.3   1314  SPO1314     0.0047
     20  C18       35.5740   92.2360   44.1930 C.3   1314  SPO1314     0.0004
     21  C19       37.4750   93.1550   42.6950 C.3   1314  SPO1314     0.0050
     22  C20       36.5770   93.9280   41.8460 C.3   1314  SPO1314     0.0257
     23  C21       37.1490   94.9730   41.0020 C.2   1314  SPO1314    -0.0304
     24  C22       38.5210   94.8650   40.5650 C.2   1314  SPO1314    -0.0267
     25  C23       39.0330   95.8050   39.5780 C.3   1314  SPO1314     0.0436
     26  C24       38.1270   96.4290   38.5590 C.3   1314  SPO1314     0.0094
     27  C25       40.4680   96.0850   39.6010 C.2   1314  SPO1314    -0.0221
     28  C26       41.2440   96.1880   38.3810 C.2   1314  SPO1314    -0.0049
     29  C27       42.6840   96.3970   38.4960 C.2   1314  SPO1314    -0.0088
     30  C28       43.4730   96.8900   37.3540 C.2   1314  SPO1314    -0.0436
     31  C29       42.8260   97.1240   36.0180 C.3   1314  SPO1314     0.0264
     32  C30       44.9490   97.1260   37.5630 C.3   1314  SPO1314     0.0267
     33  C31       45.3330   98.5810   37.3280 C.3   1314  SPO1314     0.0297
     34  C32       46.8070   98.7140   37.6010 C.2   1314  SPO1314    -0.0343
     35  C33       47.3990   99.7250   38.4990 C.2   1314  SPO1314    -0.0482
     36  C34       46.5530  100.7950   39.1150 C.3   1314  SPO1314     0.0260
     37  C35       48.8860   99.6780   38.8000 C.3   1314  SPO1314     0.0217
     38  C36       49.6740  100.5390   37.8170 C.3   1314  SPO1314     0.0043
     39  C37       51.1120  100.0540   37.7340 C.3   1314  SPO1314     0.0003
     40  C38       51.8710   99.9550   36.4530 C.3   1314  SPO1314     0.0000
     41  C39       51.4090   99.0410   35.3330 C.3   1314  SPO1314     0.0000
     42  C40       53.1240  100.7760   36.2710 C.3   1314  SPO1314     0.0000
@<TRIPOS>BOND
     1    41    40    1
     2    31    30    1
     3    42    40    1
     4    40    39    1
     5    33    32    1
     6    33    34    1
     7    30    32    1
     8    30    29    2
     9    34    35    2
    10    39    38    1
    11    38    37    1
    12    28    29    1
    13    28    27    2
    14    35    37    1
    15    35    36    1
    16    26    25    1
    17    25    27    1
    18    25    24    1
    19    24    23    2
    20    23    22    1
    21    22    21    1
    22    21    19    1
    23    19    20    1
    24    19    18    1
    25    18    17    1
    26    17    16    2
    27    16    14    1
    28    14    13    2
    29    14    15    1
    30    13    12    1
    31    12    11    2
    32    11     9    1
    33     9     8    1
    34     9    10    1
    35     8     7    2
    36     6     7    1
    37     6     3    1
    38     4     3    1
    39     3     5    1
    40     3     2    1
    41     2     1    1
