@<TRIPOS>MOLECULE
2uwt_UQ2_L_1.pdb
 23 23 0 0 0
SMALL
GASTEIGER

@<TRIPOS>ATOM
      1  C1        35.1250   72.0560   27.9830 C.2   1285  UQ21285     0.1987
      2  C2        34.5880   71.4840   26.7920 C.3   1285  UQ21285     0.2104
      3  C3        34.0490   72.2970   25.7600 C.3   1285  UQ21285     0.2104
      4  C4        34.0350   73.6790   25.9950 C.2   1285  UQ21285     0.1987
      5  C5        34.5720   74.2510   27.1720 C.2   1285  UQ21285     0.0142
      6  C6        35.1120   73.4330   28.1740 C.2   1285  UQ21285     0.0142
      7  CM2       36.0090   69.8350   25.9170 C.3   1285  UQ21285     0.1747
      8  CM3       33.5090   71.3130   23.6240 C.3   1285  UQ21285     0.1747
      9  CM5       34.5700   75.7380   27.3800 C.3   1285  UQ21285     0.0339
     10  C7        35.9010   74.0080   29.3430 C.3   1285  UQ21285     0.0334
     11  C8        35.0360   74.2300   30.5720 C.3   1285  UQ21285     0.0265
     12  C9        35.6080   74.2280   31.9330 C.2   1285  UQ21285    -0.0475
     13  C10       36.2090   72.9620   32.4700 C.3   1285  UQ21285     0.0260
     14  C11       35.5820   75.4860   32.7860 C.2   1285  UQ21285    -0.0299
     15  C12       36.0140   75.2880   34.2530 C.3   1285  UQ21285     0.0507
     16  C13       37.0230   76.3550   34.6790 C.2   1285  UQ21285    -0.0299
     17  C14       36.7240   77.6870   35.2960 C.2   1285  UQ21285    -0.0475
     18  C15       37.8500   78.4870   35.8950 C.3   1285  UQ21285     0.0260
     19  C16       35.3230   78.2820   35.3470 C.3   1285  UQ21285     0.0260
     20  O1        35.8650   71.4180   28.7490 O.2   1285  UQ21285    -0.2890
     21  O2        34.8040   70.2880   26.5370 O.3   1285  UQ21285    -0.3429
     22  O3        34.3140   72.0130   24.5500 O.3   1285  UQ21285    -0.3429
     23  O4        33.5990   74.3770   25.0800 O.2   1285  UQ21285    -0.2890
@<TRIPOS>BOND
     1     8    22    1
     2    22     3    1
     3    23     4    2
     4     3     4    1
     5     3     2    1
     6     7    21    1
     7     4     5    1
     8    21     2    1
     9     2     1    1
    10     5     9    1
    11     5     6    2
    12     1     6    1
    13     1    20    2
    14     6    10    1
    15    10    11    1
    16    11    12    1
    17    12    13    1
    18    12    14    2
    19    14    15    1
    20    15    16    1
    21    16    17    2
    22    17    19    1
    23    17    18    1
