@<TRIPOS>MOLECULE
2uwu_U10_M_1.pdb
 48 48 0 0 0
SMALL
GASTEIGER

@<TRIPOS>ATOM
      1  C1        20.6770   76.5060   18.2970 C.2   1313  U101313     0.0198
      2  C2        21.4420   75.3270   18.2410 C.2   1313  U101313     0.2282
      3  C3        21.6350   74.6440   16.9870 C.2   1313  U101313     0.2140
      4  C4        21.0440   75.1470   15.7990 C.2   1313  U101313     0.2140
      5  C5        20.2810   76.3180   15.8680 C.2   1313  U101313     0.2285
      6  C6        20.1140   77.0160   17.1040 C.2   1313  U101313     0.0235
      7  C1M       20.5030   77.1840   19.6540 C.3   1313  U101313     0.0343
      8  C3M       23.4320   73.1620   17.1530 C.3   1313  U101313     0.2528
      9  C4M       22.0770   73.8690   14.1370 C.3   1313  U101313     0.2528
     10  C7        19.2520   78.2710   17.1150 C.3   1313  U101313     0.0548
     11  C8        20.1210   79.4740   17.3440 C.2   1313  U101313    -0.0298
     12  C9        20.3010   80.5510   16.3610 C.2   1313  U101313    -0.0475
     13  C10       19.6300   80.4580   15.0050 C.3   1313  U101313     0.0260
     14  C11       21.1970   81.7220   16.7110 C.3   1313  U101313     0.0264
     15  C12       20.4730   83.0710   16.7520 C.3   1313  U101313     0.0297
     16  C13       19.4200   82.9970   17.8450 C.2   1313  U101313    -0.0342
     17  C14       19.3180   84.0160   18.9050 C.2   1313  U101313    -0.0478
     18  C15       20.2870   85.1660   18.9650 C.3   1313  U101313     0.0260
     19  C16       18.1910   83.8990   19.9270 C.3   1313  U101313     0.0263
     20  C17       17.2550   85.1080   19.8670 C.3   1313  U101313     0.0297
     21  C18       16.3270   84.8840   18.7090 C.2   1313  U101313    -0.0342
     22  C19       15.6380   85.9490   17.9880 C.2   1313  U101313    -0.0478
     23  C20       15.9940   87.3930   18.1700 C.3   1313  U101313     0.0260
     24  C21       14.5630   85.5510   17.0160 C.3   1313  U101313     0.0263
     25  C22       13.1910   85.7330   17.6320 C.3   1313  U101313     0.0297
     26  C23       12.1790   85.3990   16.5710 C.2   1313  U101313    -0.0343
     27  C24       11.0220   84.5550   16.8760 C.2   1313  U101313    -0.0482
     28  C25       10.7660   84.0490   18.2680 C.3   1313  U101313     0.0260
     29  C26       10.0810   84.1930   15.7580 C.3   1313  U101313     0.0217
     30  C27        9.0560   85.2860   15.4940 C.3   1313  U101313     0.0043
     31  C28        7.9200   84.6210   14.7490 C.3   1313  U101313     0.0003
     32  C29        6.6390   85.3050   14.5340 C.3   1313  U101313     0.0003
     33  C30        6.4850   86.0970   13.2530 C.3   1313  U101313     0.0000
     34  C31        5.5480   85.1980   15.6120 C.3   1313  U101313     0.0046
     35  C32        4.0930   85.1330   15.0880 C.3   1313  U101313     0.0254
     36  C33        3.3970   83.8020   15.3850 C.2   1313  U101313    -0.0346
     37  C34        3.8920   82.4780   14.8970 C.2   1313  U101313    -0.0482
     38  C35        5.0380   82.3690   13.9070 C.3   1313  U101313     0.0260
     39  C36        3.2330   81.2100   15.4100 C.3   1313  U101313     0.0217
     40  C37        3.3160   80.0880   14.3760 C.3   1313  U101313     0.0043
     41  C38        2.0610   80.0740   13.5390 C.3   1313  U101313     0.0003
     42  C39        1.9180   80.7770   12.2480 C.3   1313  U101313     0.0000
     43  C40        3.0650   80.9200   11.2830 C.3   1313  U101313     0.0000
     44  C41        0.5740   81.3550   11.8680 C.3   1313  U101313     0.0000
     45  O2        22.0300   74.9290   19.2770 O.2   1313  U101313    -0.2836
     46  O3        22.0710   73.4530   16.9820 O.2   1313  U101313    -0.4652
     47  O4        20.9270   74.4190   14.7560 O.2   1313  U101313    -0.4652
     48  O5        19.5360   76.5420   14.8900 O.2   1313  U101313    -0.2835
@<TRIPOS>BOND
     1    43    42    1
     2    44    42    1
     3    42    41    1
     4    33    32    1
     5    41    40    1
     6    38    37    1
     7     9    47    1
     8    40    39    1
     9    32    31    1
    10    32    34    1
    11    31    30    1
    12    47     4    1
    13    48     5    2
    14    37    36    2
    15    37    39    1
    16    13    12    1
    17    35    36    1
    18    35    34    1
    19    30    29    1
    20    29    27    1
    21     4     5    1
    22     4     3    2
    23     5     6    1
    24    12    14    1
    25    12    11    2
    26    26    27    2
    27    26    25    1
    28    14    15    1
    29    15    16    1
    30    27    28    1
    31    46     3    1
    32    46     8    1
    33     3     2    1
    34    24    25    1
    35    24    22    1
    36     6    10    1
    37     6     1    2
    38    10    11    1
    39    16    17    2
    40    22    23    1
    41    22    21    2
    42     2     1    1
    43     2    45    2
    44     1     7    1
    45    21    20    1
    46    17    18    1
    47    17    19    1
    48    20    19    1
