@<TRIPOS>MOLECULE
2uwu_UQ2_L_1.pdb
 23 23 0 0 0
SMALL
GASTEIGER

@<TRIPOS>ATOM
      1  C1        35.3130   73.4800   31.3810 C.2   1287  UQ21287     0.1990
      2  C2        35.2470   73.5990   29.9810 C.3   1287  UQ21287     0.2105
      3  C3        34.5970   74.7180   29.4240 C.3   1287  UQ21287     0.2104
      4  C4        34.0560   75.6910   30.2600 C.2   1287  UQ21287     0.1987
      5  C5        34.1200   75.5730   31.6590 C.2   1287  UQ21287     0.0145
      6  C6        34.7550   74.4520   32.2340 C.2   1287  UQ21287     0.0182
      7  CM2       36.2270   72.0170   28.5800 C.3   1287  UQ21287     0.1747
      8  CM3       35.2070   75.5900   27.3640 C.3   1287  UQ21287     0.1747
      9  CM5       33.4930   76.6730   32.4980 C.3   1287  UQ21287     0.0339
     10  C7        35.1080   74.4160   33.7220 C.3   1287  UQ21287     0.0544
     11  C8        34.1390   73.5270   34.4710 C.2   1287  UQ21287    -0.0298
     12  C9        34.0540   73.4510   35.9520 C.2   1287  UQ21287    -0.0478
     13  C10       33.0830   72.5010   36.6030 C.3   1287  UQ21287     0.0260
     14  C11       34.9470   74.3190   36.8080 C.3   1287  UQ21287     0.0217
     15  C12       35.2890   73.6410   38.1340 C.3   1287  UQ21287     0.0043
     16  C13       36.4280   72.6550   37.9630 C.3   1287  UQ21287     0.0003
     17  C14       36.6470   71.5770   38.9440 C.3   1287  UQ21287     0.0000
     18  C15       38.0020   70.9510   39.0850 C.3   1287  UQ21287     0.0000
     19  C16       35.5140   71.1110   39.8260 C.3   1287  UQ21287     0.0000
     20  O1        36.0230   72.5900   31.8720 O.2   1287  UQ21287    -0.2890
     21  O2        36.2350   73.1880   29.3510 O.3   1287  UQ21287    -0.3429
     22  O3        34.3820   74.7960   28.1930 O.3   1287  UQ21287    -0.3429
     23  O4        33.5480   76.6850   29.7460 O.2   1287  UQ21287    -0.2890
@<TRIPOS>BOND
     1     8    22    1
     2    22     3    1
     3     7    21    1
     4    21     2    1
     5     3     2    1
     6     3     4    1
     7    23     4    2
     8     2     1    1
     9     4     5    1
    10     1    20    2
    11     1     6    1
    12     5     6    2
    13     5     9    1
    14     6    10    1
    15    10    11    1
    16    11    12    2
    17    12    13    1
    18    12    14    1
    19    14    15    1
    20    16    15    1
    21    16    17    1
    22    17    18    1
    23    17    19    1
