@<TRIPOS>MOLECULE
2uwu_SPO_M_1.pdb
 42 41 0 0 0
SMALL
GASTEIGER

@<TRIPOS>ATOM
      1  CM1       42.7700   83.6260   55.7430 C.3   1314  SPO1314     0.1739
      2  O1        43.8760   84.4350   55.3200 O.3   1314  SPO1314    -0.3559
      3  C1        44.5730   84.1640   54.0890 C.3   1314  SPO1314     0.0933
      4  C2        44.0330   82.9200   53.3770 C.3   1314  SPO1314     0.0296
      5  C3        46.0580   83.9370   54.3530 C.3   1314  SPO1314     0.0296
      6  C4        44.4210   85.3890   53.1950 C.3   1314  SPO1314     0.0319
      7  C5        42.9710   85.6490   52.8450 C.3   1314  SPO1314     0.0281
      8  C6        42.7390   86.5410   51.7240 C.2   1314  SPO1314    -0.0303
      9  C7        41.5230   87.3530   51.5250 C.2   1314  SPO1314    -0.0261
     10  C8        40.4260   87.4200   52.5470 C.3   1314  SPO1314     0.0307
     11  C9        41.4350   88.1170   50.2670 C.2   1314  SPO1314    -0.0046
     12  C10       40.2170   88.8310   49.8940 C.2   1314  SPO1314    -0.0007
     13  C11       40.1270   89.3120   48.5220 C.2   1314  SPO1314    -0.0043
     14  C12       38.9410   90.0090   47.9920 C.2   1314  SPO1314    -0.0218
     15  C13       37.6960   90.2520   48.8030 C.3   1314  SPO1314     0.0310
     16  C14       39.0290   90.4530   46.6030 C.2   1314  SPO1314    -0.0043
     17  C15       37.9160   91.1540   45.9830 C.2   1314  SPO1314    -0.0010
     18  C16       38.2270   91.8790   44.7670 C.2   1314  SPO1314    -0.0085
     19  C17       37.1560   92.4270   43.9220 C.2   1314  SPO1314    -0.0436
     20  C18       35.7070   92.2500   44.2740 C.3   1314  SPO1314     0.0264
     21  C19       37.6070   93.1440   42.7280 C.3   1314  SPO1314     0.0267
     22  C20       36.6610   93.7890   41.8310 C.3   1314  SPO1314     0.0300
     23  C21       37.1230   94.8670   40.9770 C.2   1314  SPO1314    -0.0301
     24  C22       38.4910   94.8080   40.5210 C.2   1314  SPO1314    -0.0266
     25  C23       39.0060   95.6780   39.4670 C.3   1314  SPO1314     0.0436
     26  C24       38.1260   96.3150   38.4380 C.3   1314  SPO1314     0.0094
     27  C25       40.4590   95.8790   39.4670 C.2   1314  SPO1314    -0.0221
     28  C26       41.1880   96.2370   38.2650 C.2   1314  SPO1314    -0.0049
     29  C27       42.6240   96.4420   38.4160 C.2   1314  SPO1314    -0.0088
     30  C28       43.4880   96.7790   37.2740 C.2   1314  SPO1314    -0.0436
     31  C29       42.9180   96.9620   35.9010 C.3   1314  SPO1314     0.0264
     32  C30       44.9700   96.9300   37.5430 C.3   1314  SPO1314     0.0267
     33  C31       45.4210   98.3520   37.2490 C.3   1314  SPO1314     0.0297
     34  C32       46.8720   98.4770   37.6600 C.2   1314  SPO1314    -0.0343
     35  C33       47.3810   99.5950   38.4800 C.2   1314  SPO1314    -0.0482
     36  C34       46.4830  100.7230   38.8970 C.3   1314  SPO1314     0.0260
     37  C35       48.8340   99.6010   38.9130 C.3   1314  SPO1314     0.0217
     38  C36       49.6300  100.6610   38.1610 C.3   1314  SPO1314     0.0043
     39  C37       51.0280  100.1290   37.9030 C.3   1314  SPO1314     0.0003
     40  C38       51.6040  100.0270   36.5350 C.3   1314  SPO1314     0.0000
     41  C39       51.0040   99.1040   35.4970 C.3   1314  SPO1314     0.0000
     42  C40       52.8110  100.8560   36.1870 C.3   1314  SPO1314     0.0000
@<TRIPOS>BOND
     1    41    40    1
     2    31    30    1
     3    42    40    1
     4    40    39    1
     5    33    32    1
     6    33    34    1
     7    30    32    1
     8    30    29    2
     9    34    35    2
    10    39    38    1
    11    38    37    1
    12    28    29    1
    13    28    27    2
    14    26    25    1
    15    35    36    1
    16    35    37    1
    17    27    25    1
    18    25    24    1
    19    24    23    2
    20    23    22    1
    21    22    21    1
    22    21    19    1
    23    19    20    1
    24    19    18    2
    25    18    17    1
    26    17    16    2
    27    16    14    1
    28    14    13    2
    29    14    15    1
    30    13    12    1
    31    12    11    2
    32    11     9    1
    33     9     8    2
    34     9    10    1
    35     8     7    1
    36     7     6    1
    37     6     3    1
    38     4     3    1
    39     3     5    1
    40     3     2    1
    41     2     1    1
