@<TRIPOS>MOLECULE
2uwv_U10_M_1.pdb
 48 48 0 0 0
SMALL
GASTEIGER

@<TRIPOS>ATOM
      1  C1        20.7380   76.6740   18.2640 C.2   1314  U101314     0.0198
      2  C2        21.4910   75.4690   18.2030 C.2   1314  U101314     0.2282
      3  C3        21.6820   74.8040   16.9380 C.2   1314  U101314     0.2140
      4  C4        21.0960   75.3340   15.7600 C.2   1314  U101314     0.2140
      5  C5        20.3460   76.5210   15.8300 C.2   1314  U101314     0.2285
      6  C6        20.1770   77.2110   17.0770 C.2   1314  U101314     0.0235
      7  C1M       20.5610   77.3330   19.6250 C.3   1314  U101314     0.0343
      8  C3M       23.5160   73.4360   17.1300 C.3   1314  U101314     0.2528
      9  C4M       22.0940   73.9540   14.1300 C.3   1314  U101314     0.2528
     10  C7        19.2420   78.4090   17.1020 C.3   1314  U101314     0.0548
     11  C8        20.0540   79.6360   17.3140 C.2   1314  U101314    -0.0298
     12  C9        20.2870   80.6930   16.3200 C.2   1314  U101314    -0.0475
     13  C10       19.6090   80.6410   14.9660 C.3   1314  U101314     0.0260
     14  C11       21.2540   81.7890   16.7020 C.3   1314  U101314     0.0264
     15  C12       20.5840   83.1510   16.8040 C.3   1314  U101314     0.0297
     16  C13       19.4270   83.0580   17.7630 C.2   1314  U101314    -0.0342
     17  C14       19.2770   84.0780   18.8270 C.2   1314  U101314    -0.0478
     18  C15       20.3060   85.1710   18.9670 C.3   1314  U101314     0.0260
     19  C16       18.0550   83.9720   19.7300 C.3   1314  U101314     0.0263
     20  C17       17.2210   85.2500   19.7300 C.3   1314  U101314     0.0297
     21  C18       16.2030   85.0690   18.6460 C.2   1314  U101314    -0.0342
     22  C19       15.6360   86.2040   17.9280 C.2   1314  U101314    -0.0478
     23  C20       16.1300   87.6000   18.1280 C.3   1314  U101314     0.0260
     24  C21       14.5540   85.9460   16.9290 C.3   1314  U101314     0.0263
     25  C22       13.2470   85.7100   17.6350 C.3   1314  U101314     0.0297
     26  C23       12.1870   85.6250   16.5670 C.2   1314  U101314    -0.0343
     27  C24       11.0470   84.7260   16.7500 C.2   1314  U101314    -0.0482
     28  C25       10.8150   84.0800   18.0820 C.3   1314  U101314     0.0260
     29  C26       10.1230   84.4500   15.5880 C.3   1314  U101314     0.0217
     30  C27        8.9510   85.4160   15.4700 C.3   1314  U101314     0.0043
     31  C28        7.8540   84.6540   14.7590 C.3   1314  U101314     0.0003
     32  C29        6.5120   85.2230   14.5520 C.3   1314  U101314     0.0003
     33  C30        6.2610   85.9260   13.2330 C.3   1314  U101314     0.0000
     34  C31        5.4530   85.1000   15.6630 C.3   1314  U101314     0.0046
     35  C32        3.9780   84.9510   15.1960 C.3   1314  U101314     0.0254
     36  C33        3.3780   83.5470   15.3640 C.2   1314  U101314    -0.0346
     37  C34        3.9550   82.3060   14.7650 C.2   1314  U101314    -0.0478
     38  C35        5.1040   82.3620   13.7780 C.3   1314  U101314     0.0260
     39  C36        3.3870   80.9500   15.1530 C.3   1314  U101314     0.0263
     40  C37        3.0580   80.0990   13.9230 C.3   1314  U101314     0.0297
     41  C38        1.6150   80.3290   13.5230 C.2   1314  U101314    -0.0342
     42  C39        1.1520   80.9250   12.2460 C.2   1314  U101314    -0.0478
     43  C40        2.0960   81.6310   11.3050 C.3   1314  U101314     0.0260
     44  C41       -0.3210   80.8200   11.8820 C.3   1314  U101314     0.0260
     45  O2        22.1090   75.0460   19.2240 O.2   1314  U101314    -0.2836
     46  O3        22.1690   73.6240   16.9050 O.2   1314  U101314    -0.4652
     47  O4        20.9610   74.6180   14.7160 O.2   1314  U101314    -0.4652
     48  O5        19.5100   76.6390   14.9060 O.2   1314  U101314    -0.2835
@<TRIPOS>BOND
     1    43    42    1
     2    44    42    1
     3    42    41    2
     4    33    32    1
     5    41    40    1
     6    38    37    1
     7    40    39    1
     8     9    47    1
     9    32    31    1
    10    32    34    1
    11    47     4    1
    12    31    30    1
    13    37    39    1
    14    37    36    2
    15    48     5    2
    16    13    12    1
    17    35    36    1
    18    35    34    1
    19    30    29    1
    20    29    27    1
    21     4     5    1
    22     4     3    2
    23     5     6    1
    24    12    14    1
    25    12    11    2
    26    26    27    2
    27    26    25    1
    28    14    15    1
    29    27    28    1
    30    15    16    1
    31    46     3    1
    32    46     8    1
    33    24    25    1
    34    24    22    1
    35     3     2    1
    36     6    10    1
    37     6     1    2
    38    10    11    1
    39    16    17    2
    40    22    23    1
    41    22    21    2
    42     2     1    1
    43     2    45    2
    44     1     7    1
    45    21    20    1
    46    17    18    1
    47    17    19    1
    48    20    19    1
