@<TRIPOS>MOLECULE
2uwv_SPO_M_1.pdb
 42 41 0 0 0
SMALL
GASTEIGER

@<TRIPOS>ATOM
      1  CM1       43.0980   83.6600   55.5300 C.3   1315  SPO1315     0.1739
      2  O1        43.9130   84.8250   55.2940 O.3   1315  SPO1315    -0.3555
      3  C1        44.8480   84.9220   54.2010 C.3   1315  SPO1315     0.0970
      4  C2        45.8980   83.8070   54.2550 C.3   1315  SPO1315     0.0300
      5  C3        45.5720   86.2630   54.2930 C.3   1315  SPO1315     0.0300
      6  C4        44.1290   84.8320   52.8480 C.3   1315  SPO1315     0.0529
      7  C5        42.8680   85.6660   52.7770 C.2   1315  SPO1315    -0.0280
      8  C6        42.8140   86.7710   51.8300 C.2   1315  SPO1315    -0.0266
      9  C7        41.5660   87.5220   51.5460 C.3   1315  SPO1315     0.0436
     10  C8        40.4550   87.6070   52.5570 C.3   1315  SPO1315     0.0094
     11  C9        41.4470   88.2030   50.2380 C.2   1315  SPO1315    -0.0221
     12  C10       40.1970   88.8060   49.7900 C.2   1315  SPO1315    -0.0046
     13  C11       40.2040   89.5150   48.5160 C.2   1315  SPO1315    -0.0046
     14  C12       39.0320   90.2470   47.9950 C.2   1315  SPO1315    -0.0219
     15  C13       37.7450   90.3610   48.7700 C.3   1315  SPO1315     0.0310
     16  C14       39.1750   90.8750   46.6860 C.2   1315  SPO1315    -0.0043
     17  C15       37.9960   91.2990   45.9510 C.2   1315  SPO1315    -0.0010
     18  C16       38.2550   92.1610   44.8080 C.2   1315  SPO1315    -0.0085
     19  C17       37.1620   92.5720   43.9170 C.2   1315  SPO1315    -0.0436
     20  C18       35.7300   92.3110   44.2740 C.3   1315  SPO1315     0.0264
     21  C19       37.5530   93.2250   42.6620 C.3   1315  SPO1315     0.0267
     22  C20       36.5830   93.9640   41.8790 C.3   1315  SPO1315     0.0300
     23  C21       37.0660   94.9760   40.9690 C.2   1315  SPO1315    -0.0301
     24  C22       38.4580   94.9490   40.5870 C.2   1315  SPO1315    -0.0266
     25  C23       38.9210   95.8340   39.5230 C.3   1315  SPO1315     0.0436
     26  C24       37.9680   96.4150   38.5280 C.3   1315  SPO1315     0.0094
     27  C25       40.3630   96.1090   39.4760 C.2   1315  SPO1315    -0.0221
     28  C26       41.1040   96.4330   38.2710 C.2   1315  SPO1315    -0.0049
     29  C27       42.5690   96.4740   38.3510 C.2   1315  SPO1315    -0.0088
     30  C28       43.4270   96.9370   37.2420 C.2   1315  SPO1315    -0.0436
     31  C29       42.8540   97.2150   35.8860 C.3   1315  SPO1315     0.0264
     32  C30       44.9130   97.1080   37.4860 C.3   1315  SPO1315     0.0267
     33  C31       45.3450   98.5460   37.2590 C.3   1315  SPO1315     0.0297
     34  C32       46.7880   98.6720   37.6790 C.2   1315  SPO1315    -0.0343
     35  C33       47.2850   99.7980   38.4930 C.2   1315  SPO1315    -0.0482
     36  C34       46.3720  100.9100   38.9260 C.3   1315  SPO1315     0.0260
     37  C35       48.7350   99.8310   38.9060 C.3   1315  SPO1315     0.0217
     38  C36       49.5110  100.7380   37.9610 C.3   1315  SPO1315     0.0043
     39  C37       50.9330  100.2330   37.8470 C.3   1315  SPO1315     0.0003
     40  C38       51.6730  100.2560   36.5620 C.3   1315  SPO1315     0.0000
     41  C39       51.2040   99.4150   35.3920 C.3   1315  SPO1315     0.0000
     42  C40       52.9040  101.1150   36.4360 C.3   1315  SPO1315     0.0000
@<TRIPOS>BOND
     1    41    40    1
     2    31    30    1
     3    42    40    1
     4    40    39    1
     5    30    32    1
     6    30    29    2
     7    33    32    1
     8    33    34    1
     9    34    35    2
    10    39    38    1
    11    38    37    1
    12    28    29    1
    13    28    27    2
    14    35    37    1
    15    35    36    1
    16    26    25    1
    17    27    25    1
    18    25    24    1
    19    24    23    2
    20    23    22    1
    21    22    21    1
    22    21    19    1
    23    19    20    1
    24    19    18    2
    25    18    17    1
    26    17    16    2
    27    16    14    1
    28    14    13    2
    29    14    15    1
    30    13    12    1
    31    12    11    2
    32    11     9    1
    33     9     8    1
    34     9    10    1
    35     8     7    2
    36     7     6    1
    37     6     3    1
    38     3     4    1
    39     3     5    1
    40     3     2    1
    41     2     1    1
