@<TRIPOS>MOLECULE
2uwv_UQ2_L_1.pdb
 23 23 0 0 0
SMALL
GASTEIGER

@<TRIPOS>ATOM
      1  C1        35.3400   73.5460   31.3140 C.2   1285  UQ21285     0.1987
      2  C2        35.2460   73.6530   29.8950 C.3   1285  UQ21285     0.2104
      3  C3        34.5930   74.7870   29.3490 C.3   1285  UQ21285     0.2104
      4  C4        34.0880   75.7580   30.2060 C.2   1285  UQ21285     0.1987
      5  C5        34.1830   75.6420   31.6020 C.2   1285  UQ21285     0.0142
      6  C6        34.8110   74.5190   32.1760 C.2   1285  UQ21285     0.0139
      7  CM2       36.3900   72.1850   28.4540 C.3   1285  UQ21285     0.1747
      8  CM3       35.3730   75.7030   27.3420 C.3   1285  UQ21285     0.1747
      9  CM5       33.5870   76.7590   32.4380 C.3   1285  UQ21285     0.0339
     10  C7        35.1000   74.4280   33.6860 C.3   1285  UQ21285     0.0291
     11  C8        33.8830   73.9270   34.4480 C.3   1285  UQ21285     0.0048
     12  C9        33.8520   73.4680   35.8630 C.3   1285  UQ21285     0.0003
     13  C10       32.7830   72.5090   36.3170 C.3   1285  UQ21285     0.0000
     14  C11       34.8720   73.9440   36.8650 C.3   1285  UQ21285     0.0000
     15  C12       34.7910   73.1000   38.1370 C.3   1285  UQ21285     0.0000
     16  C13       35.7260   71.9080   38.0280 C.3   1285  UQ21285     0.0000
     17  C14       36.5720   71.5210   39.1620 C.3   1285  UQ21285     0.0000
     18  C15       38.0550   71.3770   38.9880 C.3   1285  UQ21285     0.0000
     19  C16       35.9390   71.2840   40.5170 C.3   1285  UQ21285     0.0000
     20  O1        36.0900   72.7070   31.8300 O.2   1285  UQ21285    -0.2890
     21  O2        36.2620   73.3160   29.2690 O.3   1285  UQ21285    -0.3429
     22  O3        34.4450   74.9570   28.1080 O.3   1285  UQ21285    -0.3429
     23  O4        33.6600   76.8010   29.7210 O.2   1285  UQ21285    -0.2890
@<TRIPOS>BOND
     1     8    22    1
     2    22     3    1
     3     7    21    1
     4    21     2    1
     5     3     2    1
     6     3     4    1
     7    23     4    2
     8     2     1    1
     9     4     5    1
    10     1    20    2
    11     1     6    1
    12     5     6    2
    13     5     9    1
    14     6    10    1
    15    10    11    1
    16    11    12    1
    17    12    13    1
    18    12    14    1
    19    14    15    1
    20    16    15    1
    21    16    17    1
    22    18    17    1
    23    17    19    1
