@<TRIPOS>MOLECULE
2uww_UQ2_L_1.pdb
 23 23 0 0 0
SMALL
GASTEIGER

@<TRIPOS>ATOM
      1  C1        35.0860   71.8190   28.1500 C.2   1289  UQ21289     0.1987
      2  C2        34.6030   71.1770   26.9810 C.3   1289  UQ21289     0.2104
      3  C3        34.1040   71.9270   25.9170 C.3   1289  UQ21289     0.2104
      4  C4        34.0650   73.3160   26.0370 C.2   1289  UQ21289     0.1987
      5  C5        34.5360   73.9610   27.1970 C.2   1289  UQ21289     0.0142
      6  C6        35.0420   73.2050   28.2590 C.2   1289  UQ21289     0.0139
      7  CM2       36.0140   69.6420   25.8970 C.3   1289  UQ21289     0.1747
      8  CM3       34.0380   71.6210   23.5230 C.3   1289  UQ21289     0.1747
      9  CM5       34.5230   75.4520   27.3370 C.3   1289  UQ21289     0.0339
     10  C7        35.7820   73.8730   29.4090 C.3   1289  UQ21289     0.0291
     11  C8        35.0660   73.6470   30.7210 C.3   1289  UQ21289     0.0048
     12  C9        35.0800   74.6400   31.8060 C.3   1289  UQ21289     0.0003
     13  C10       35.8420   74.3430   33.0760 C.3   1289  UQ21289     0.0000
     14  C11       34.2950   75.9280   31.6240 C.3   1289  UQ21289     0.0000
     15  C12       34.9140   77.1100   32.3600 C.3   1289  UQ21289     0.0000
     16  C13       33.8730   77.8080   33.2070 C.3   1289  UQ21289     0.0000
     17  C14       34.1160   78.0800   34.6390 C.3   1289  UQ21289     0.0000
     18  C15       35.3890   78.7410   35.1010 C.3   1289  UQ21289     0.0000
     19  C16       33.0660   77.6860   35.6530 C.3   1289  UQ21289     0.0000
     20  O1        35.8450   71.2420   28.9410 O.2   1289  UQ21289    -0.2890
     21  O2        34.9330   70.0090   26.7550 O.3   1289  UQ21289    -0.3429
     22  O3        33.6830   71.3570   24.8830 O.3   1289  UQ21289    -0.3429
     23  O4        33.6230   73.9310   25.0920 O.2   1289  UQ21289    -0.2890
@<TRIPOS>BOND
     1     8    22    1
     2    22     3    1
     3    23     4    2
     4     7    21    1
     5     3     4    1
     6     3     2    1
     7     4     5    1
     8    21     2    1
     9     2     1    1
    10     5     9    1
    11     5     6    2
    12     1     6    1
    13     1    20    2
    14     6    10    1
    15    10    11    1
    16    11    12    1
    17    14    12    1
    18    14    15    1
    19    12    13    1
    20    15    16    1
    21    16    17    1
    22    17    18    1
    23    17    19    1
