@<TRIPOS>MOLECULE
2uww_SPO_M_1.pdb
 42 41 0 0 0
SMALL
GASTEIGER

@<TRIPOS>ATOM
      1  CM1       42.8720   83.4640   55.7990 C.3   1313  SPO1313     0.1739
      2  O1        43.8770   84.3510   55.2920 O.3   1313  SPO1313    -0.3559
      3  C1        44.5750   84.0480   54.0740 C.3   1313  SPO1313     0.0933
      4  C2        44.0080   82.7830   53.4220 C.3   1313  SPO1313     0.0296
      5  C3        46.0590   83.8220   54.3500 C.3   1313  SPO1313     0.0296
      6  C4        44.4330   85.2250   53.1210 C.3   1313  SPO1313     0.0319
      7  C5        42.9810   85.5310   52.8380 C.3   1313  SPO1313     0.0278
      8  C6        42.6920   86.3500   51.6750 C.2   1313  SPO1313    -0.0342
      9  C7        41.5210   87.2420   51.5840 C.2   1313  SPO1313    -0.0438
     10  C8        40.4220   87.2170   52.6150 C.3   1313  SPO1313     0.0264
     11  C9        41.4770   88.1700   50.4390 C.3   1313  SPO1313     0.0476
     12  C10       40.2020   88.5770   49.8630 C.2   1313  SPO1313    -0.0221
     13  C11       40.1740   89.0920   48.5000 C.2   1313  SPO1313    -0.0088
     14  C12       38.9820   89.8080   47.9880 C.2   1313  SPO1313    -0.0261
     15  C13       37.7640   90.0420   48.8420 C.3   1313  SPO1313     0.0307
     16  C14       39.0330   90.2880   46.6140 C.2   1313  SPO1313    -0.0257
     17  C15       37.8930   90.9290   45.9750 C.3   1313  SPO1313     0.0513
     18  C16       38.1980   91.6260   44.7440 C.2   1313  SPO1313    -0.0257
     19  C17       37.1380   92.2420   43.9310 C.2   1313  SPO1313    -0.0258
     20  C18       35.6870   92.0850   44.2990 C.3   1313  SPO1313     0.0307
     21  C19       37.6010   92.9980   42.7640 C.2   1313  SPO1313    -0.0046
     22  C20       36.6640   93.6760   41.8930 C.2   1313  SPO1313    -0.0007
     23  C21       37.1360   94.7000   40.9860 C.2   1313  SPO1313    -0.0043
     24  C22       38.5160   94.6430   40.5680 C.2   1313  SPO1313    -0.0221
     25  C23       39.0220   95.4950   39.5030 C.3   1313  SPO1313     0.0440
     26  C24       38.1330   96.1440   38.4830 C.3   1313  SPO1313     0.0094
     27  C25       40.4760   95.6580   39.4720 C.2   1313  SPO1313    -0.0221
     28  C26       41.1700   96.1240   38.2890 C.2   1313  SPO1313    -0.0049
     29  C27       42.6100   96.3250   38.4270 C.2   1313  SPO1313    -0.0088
     30  C28       43.4870   96.6080   37.2840 C.2   1313  SPO1313    -0.0436
     31  C29       42.9380   96.7810   35.8920 C.3   1313  SPO1313     0.0264
     32  C30       44.9680   96.7290   37.5710 C.3   1313  SPO1313     0.0267
     33  C31       45.4260   98.1500   37.2920 C.3   1313  SPO1313     0.0297
     34  C32       46.8790   98.2790   37.6610 C.2   1313  SPO1313    -0.0343
     35  C33       47.3830   99.3710   38.5120 C.2   1313  SPO1313    -0.0482
     36  C34       46.4990  100.5110   38.9320 C.3   1313  SPO1313     0.0260
     37  C35       48.8270   99.3360   38.9620 C.3   1313  SPO1313     0.0217
     38  C36       49.6510  100.2890   38.1080 C.3   1313  SPO1313     0.0043
     39  C37       50.9910   99.6510   37.8150 C.3   1313  SPO1313     0.0003
     40  C38       51.6310   99.7920   36.4860 C.3   1313  SPO1313     0.0000
     41  C39       51.3300   98.8020   35.3800 C.3   1313  SPO1313     0.0000
     42  C40       52.5840  100.9350   36.2530 C.3   1313  SPO1313     0.0000
@<TRIPOS>BOND
     1    41    40    1
     2    31    30    1
     3    42    40    1
     4    40    39    1
     5    30    32    1
     6    30    29    2
     7    33    32    1
     8    33    34    1
     9    34    35    2
    10    39    38    1
    11    38    37    1
    12    28    29    1
    13    28    27    2
    14    26    25    1
    15    35    36    1
    16    35    37    1
    17    27    25    1
    18    25    24    1
    19    24    23    2
    20    23    22    1
    21    22    21    2
    22    21    19    1
    23    19    20    1
    24    19    18    2
    25    18    17    1
    26    17    16    1
    27    16    14    2
    28    14    13    1
    29    14    15    1
    30    13    12    2
    31    12    11    1
    32    11     9    1
    33     9     8    2
    34     9    10    1
    35     8     7    1
    36     7     6    1
    37     6     3    1
    38     4     3    1
    39     3     5    1
    40     3     2    1
    41     2     1    1
