@<TRIPOS>MOLECULE
2uww_U10_M_1.pdb
 48 48 0 0 0
SMALL
GASTEIGER

@<TRIPOS>ATOM
      1  C1        20.6320   76.3480   18.3210 C.2   1312  U101312     0.0198
      2  C2        21.4010   75.1610   18.2700 C.2   1312  U101312     0.2282
      3  C3        21.5890   74.4780   17.0280 C.2   1312  U101312     0.2140
      4  C4        20.9880   74.9950   15.8520 C.2   1312  U101312     0.2140
      5  C5        20.2250   76.1730   15.9110 C.2   1312  U101312     0.2285
      6  C6        20.0520   76.8690   17.1380 C.2   1312  U101312     0.0235
      7  C1M       20.4680   77.0000   19.6770 C.3   1312  U101312     0.0343
      8  C3M       23.4070   73.0280   17.2680 C.3   1312  U101312     0.2528
      9  C4M       22.0400   73.7070   14.2040 C.3   1312  U101312     0.2528
     10  C7        19.1670   78.1140   17.1680 C.3   1312  U101312     0.0548
     11  C8        19.9950   79.3570   17.4140 C.2   1312  U101312    -0.0298
     12  C9        20.2640   80.4010   16.4070 C.2   1312  U101312    -0.0475
     13  C10       19.6350   80.3220   15.0310 C.3   1312  U101312     0.0260
     14  C11       21.2000   81.5450   16.7700 C.3   1312  U101312     0.0264
     15  C12       20.5080   82.9150   16.7990 C.3   1312  U101312     0.0297
     16  C13       19.4100   82.8910   17.8460 C.2   1312  U101312    -0.0342
     17  C14       19.3320   83.9240   18.8960 C.2   1312  U101312    -0.0478
     18  C15       20.3130   85.0690   18.9210 C.3   1312  U101312     0.0260
     19  C16       18.2340   83.8240   19.9440 C.3   1312  U101312     0.0263
     20  C17       17.2390   84.9900   19.8530 C.3   1312  U101312     0.0297
     21  C18       16.3510   84.7830   18.6610 C.2   1312  U101312    -0.0342
     22  C19       15.6190   85.8710   18.0080 C.2   1312  U101312    -0.0478
     23  C20       15.8900   87.3150   18.3000 C.3   1312  U101312     0.0260
     24  C21       14.5680   85.5200   16.9960 C.3   1312  U101312     0.0263
     25  C22       13.2020   85.5640   17.6590 C.3   1312  U101312     0.0297
     26  C23       12.1910   85.3050   16.5800 C.2   1312  U101312    -0.0343
     27  C24       11.0010   84.4970   16.8440 C.2   1312  U101312    -0.0482
     28  C25       10.7100   84.0000   18.2300 C.3   1312  U101312     0.0260
     29  C26       10.0830   84.1810   15.6890 C.3   1312  U101312     0.0217
     30  C27        8.9050   85.1430   15.6120 C.3   1312  U101312     0.0043
     31  C28        7.8660   84.4910   14.7300 C.3   1312  U101312     0.0003
     32  C29        6.4990   85.0210   14.6010 C.3   1312  U101312     0.0003
     33  C30        6.1700   85.7840   13.3380 C.3   1312  U101312     0.0000
     34  C31        5.4800   84.7950   15.7260 C.3   1312  U101312     0.0046
     35  C32        4.0120   84.6740   15.2550 C.3   1312  U101312     0.0254
     36  C33        3.4220   83.2730   15.4350 C.2   1312  U101312    -0.0346
     37  C34        3.9950   82.0270   14.8540 C.2   1312  U101312    -0.0478
     38  C35        5.0970   82.0520   13.8140 C.3   1312  U101312     0.0260
     39  C36        3.4530   80.6890   15.3280 C.3   1312  U101312     0.0263
     40  C37        3.1720   79.7510   14.1590 C.3   1312  U101312     0.0297
     41  C38        1.8240   80.0790   13.5670 C.2   1312  U101312    -0.0342
     42  C39        1.6570   80.6390   12.2160 C.2   1312  U101312    -0.0478
     43  C40        2.8000   80.6540   11.2380 C.3   1312  U101312     0.0260
     44  C41        0.3130   81.1940   11.7980 C.3   1312  U101312     0.0260
     45  O2        21.9310   74.7340   19.3240 O.2   1312  U101312    -0.2836
     46  O3        22.0530   73.2980   16.9990 O.2   1312  U101312    -0.4652
     47  O4        20.8900   74.2850   14.8100 O.2   1312  U101312    -0.4652
     48  O5        19.5200   76.4210   14.9100 O.2   1312  U101312    -0.2835
@<TRIPOS>BOND
     1    43    42    1
     2    44    42    1
     3    42    41    2
     4    33    32    1
     5    41    40    1
     6    38    37    1
     7    40    39    1
     8     9    47    1
     9    32    31    1
    10    32    34    1
    11    31    30    1
    12    47     4    1
    13    37    39    1
    14    37    36    2
    15    48     5    2
    16    13    12    1
    17    35    36    1
    18    35    34    1
    19    30    29    1
    20    29    27    1
    21     4     5    1
    22     4     3    2
    23     5     6    1
    24    12    14    1
    25    12    11    2
    26    26    27    2
    27    26    25    1
    28    14    15    1
    29    15    16    1
    30    27    28    1
    31    24    25    1
    32    24    22    1
    33    46     3    1
    34    46     8    1
    35     3     2    1
    36     6    10    1
    37     6     1    2
    38    10    11    1
    39    16    17    2
    40    22    23    1
    41    22    21    2
    42     2     1    1
    43     2    45    2
    44     1     7    1
    45    21    20    1
    46    17    18    1
    47    17    19    1
    48    20    19    1
