@<TRIPOS>MOLECULE
2ux3_UQ2_L_1.pdb
 23 23 0 0 0
SMALL
GASTEIGER

@<TRIPOS>ATOM
      1  C1        34.9920   71.7240   28.0970 C.2   1285  UQ21285     0.1987
      2  C2        34.3950   71.1390   26.9410 C.3   1285  UQ21285     0.2104
      3  C3        33.9090   71.9360   25.8810 C.3   1285  UQ21285     0.2104
      4  C4        34.0140   73.3170   26.0340 C.2   1285  UQ21285     0.1987
      5  C5        34.6090   73.8980   27.1790 C.2   1285  UQ21285     0.0142
      6  C6        35.0880   73.1010   28.2190 C.2   1285  UQ21285     0.0139
      7  CM2       35.9580   69.6570   26.1040 C.3   1285  UQ21285     0.1747
      8  CM3       33.4440   71.0870   23.6690 C.3   1285  UQ21285     0.1747
      9  CM5       34.7370   75.3820   27.3280 C.3   1285  UQ21285     0.0339
     10  C7        35.7740   73.7020   29.4440 C.3   1285  UQ21285     0.0291
     11  C8        35.0020   73.4440   30.7280 C.3   1285  UQ21285     0.0048
     12  C9        35.1580   74.2500   31.9570 C.3   1285  UQ21285     0.0003
     13  C10       36.2490   73.9430   32.9450 C.3   1285  UQ21285     0.0000
     14  C11       34.1900   75.3840   32.2540 C.3   1285  UQ21285     0.0000
     15  C12       34.9100   76.7340   32.3500 C.3   1285  UQ21285     0.0000
     16  C13       34.0940   77.7280   33.1410 C.3   1285  UQ21285     0.0000
     17  C14       34.2180   77.8200   34.6090 C.3   1285  UQ21285     0.0000
     18  C15       35.4380   78.4280   35.2540 C.3   1285  UQ21285     0.0000
     19  C16       33.0900   77.2910   35.4630 C.3   1285  UQ21285     0.0000
     20  O1        35.7430   71.0810   28.8480 O.2   1285  UQ21285    -0.2890
     21  O2        34.6850   69.9720   26.6680 O.3   1285  UQ21285    -0.3429
     22  O3        34.2380   71.5770   24.7320 O.3   1285  UQ21285    -0.3429
     23  O4        33.7510   73.9980   25.0390 O.2   1285  UQ21285    -0.2890
@<TRIPOS>BOND
     1     8    22    1
     2    22     3    1
     3    23     4    2
     4     3     4    1
     5     3     2    1
     6     4     5    1
     7     7    21    1
     8    21     2    1
     9     2     1    1
    10     5     9    1
    11     5     6    2
    12     1     6    1
    13     1    20    2
    14     6    10    1
    15    10    11    1
    16    11    12    1
    17    12    14    1
    18    12    13    1
    19    14    15    1
    20    15    16    1
    21    16    17    1
    22    17    18    1
    23    17    19    1
