@<TRIPOS>MOLECULE
2ux3_U10_M_1.pdb
 48 48 0 0 0
SMALL
GASTEIGER

@<TRIPOS>ATOM
      1  C1        20.6230   76.1230   18.4230 C.2   1314  U101314     0.0198
      2  C2        21.4270   74.9620   18.4010 C.2   1314  U101314     0.2282
      3  C3        21.6610   74.2870   17.1890 C.2   1314  U101314     0.2140
      4  C4        21.0930   74.7910   15.9880 C.2   1314  U101314     0.2140
      5  C5        20.2990   75.9370   16.0260 C.2   1314  U101314     0.2285
      6  C6        20.0590   76.6160   17.2270 C.2   1314  U101314     0.0235
      7  C1M       20.3820   76.8270   19.7290 C.3   1314  U101314     0.0343
      8  C3M       23.5820   72.9040   17.3140 C.3   1314  U101314     0.2528
      9  C4M       22.2260   73.5980   14.3060 C.3   1314  U101314     0.2528
     10  C7        19.2380   77.9010   17.1740 C.3   1314  U101314     0.0548
     11  C8        20.0650   79.1380   17.4280 C.2   1314  U101314    -0.0298
     12  C9        20.2870   80.2530   16.4850 C.2   1314  U101314    -0.0475
     13  C10       19.7210   80.2610   15.0840 C.3   1314  U101314     0.0260
     14  C11       21.1450   81.4060   16.9800 C.3   1314  U101314     0.0264
     15  C12       20.4520   82.7510   16.8530 C.3   1314  U101314     0.0297
     16  C13       19.3280   82.8740   17.8580 C.2   1314  U101314    -0.0342
     17  C14       19.3600   83.8180   19.0070 C.2   1314  U101314    -0.0478
     18  C15       20.4510   84.8400   19.1510 C.3   1314  U101314     0.0260
     19  C16       18.2550   83.7580   20.0470 C.3   1314  U101314     0.0263
     20  C17       17.3030   84.9510   19.9090 C.3   1314  U101314     0.0297
     21  C18       16.3140   84.6560   18.8130 C.2   1314  U101314    -0.0342
     22  C19       15.5800   85.7230   18.1350 C.2   1314  U101314    -0.0478
     23  C20       15.8910   87.1660   18.3750 C.3   1314  U101314     0.0260
     24  C21       14.4950   85.3620   17.1560 C.3   1314  U101314     0.0263
     25  C22       13.1550   85.5160   17.8360 C.3   1314  U101314     0.0297
     26  C23       12.0960   85.3380   16.7900 C.2   1314  U101314    -0.0343
     27  C24       10.9600   84.4370   17.0200 C.2   1314  U101314    -0.0482
     28  C25       10.6910   83.8630   18.3810 C.3   1314  U101314     0.0260
     29  C26       10.0680   84.0870   15.8610 C.3   1314  U101314     0.0217
     30  C27        9.1300   85.2270   15.4920 C.3   1314  U101314     0.0043
     31  C28        8.0430   84.6300   14.6370 C.3   1314  U101314     0.0003
     32  C29        6.7190   85.2540   14.5890 C.3   1314  U101314     0.0003
     33  C30        6.4710   86.3140   13.5330 C.3   1314  U101314     0.0000
     34  C31        5.6640   84.8300   15.6130 C.3   1314  U101314     0.0046
     35  C32        4.2430   84.6190   15.0300 C.3   1314  U101314     0.0254
     36  C33        3.6250   83.2710   15.4120 C.2   1314  U101314    -0.0346
     37  C34        4.1890   81.9730   14.9500 C.2   1314  U101314    -0.0478
     38  C35        5.4190   81.9540   14.0780 C.3   1314  U101314     0.0260
     39  C36        3.5310   80.6640   15.3590 C.3   1314  U101314     0.0263
     40  C37        3.1690   79.8280   14.1370 C.3   1314  U101314     0.0297
     41  C38        1.7420   80.1380   13.7650 C.2   1314  U101314    -0.0342
     42  C39        1.3350   80.7360   12.4800 C.2   1314  U101314    -0.0478
     43  C40        2.3360   81.3290   11.5270 C.3   1314  U101314     0.0260
     44  C41       -0.1380   80.7450   12.1240 C.3   1314  U101314     0.0260
     45  O2        22.0190   74.5700   19.4270 O.2   1314  U101314    -0.2836
     46  O3        22.1810   73.1420   17.2240 O.2   1314  U101314    -0.4652
     47  O4        21.0720   74.1370   14.9240 O.2   1314  U101314    -0.4652
     48  O5        19.7290   76.2940   14.9860 O.2   1314  U101314    -0.2835
@<TRIPOS>BOND
     1    43    42    1
     2    44    42    1
     3    42    41    2
     4    33    32    1
     5    41    40    1
     6    38    37    1
     7    40    39    1
     8     9    47    1
     9    32    31    1
    10    32    34    1
    11    31    30    1
    12    47     4    1
    13    37    39    1
    14    37    36    2
    15    48     5    2
    16    35    36    1
    17    35    34    1
    18    13    12    1
    19    30    29    1
    20    29    27    1
    21     4     5    1
    22     4     3    2
    23     5     6    1
    24    12    14    1
    25    12    11    2
    26    26    27    2
    27    26    25    1
    28    15    14    1
    29    15    16    1
    30    27    28    1
    31    24    25    1
    32    24    22    1
    33    10     6    1
    34    10    11    1
    35     3    46    1
    36     3     2    1
    37    46     8    1
    38     6     1    2
    39    16    17    2
    40    22    23    1
    41    22    21    2
    42     2     1    1
    43     2    45    2
    44     1     7    1
    45    21    20    1
    46    17    18    1
    47    17    19    1
    48    20    19    1
