@<TRIPOS>MOLECULE
2ux3_SPO_M_1.pdb
 42 41 0 0 0
SMALL
GASTEIGER

@<TRIPOS>ATOM
      1  CM1       43.1300   83.1590   55.5750 C.3   1315  SPO1315     0.1739
      2  O1        44.0650   84.2430   55.3770 O.3   1315  SPO1315    -0.3555
      3  C1        45.0010   84.3170   54.2780 C.3   1315  SPO1315     0.0970
      4  C2        45.9920   83.1530   54.3510 C.3   1315  SPO1315     0.0300
      5  C3        45.7780   85.6300   54.3560 C.3   1315  SPO1315     0.0300
      6  C4        44.2610   84.2500   52.9350 C.3   1315  SPO1315     0.0529
      7  C5        43.0670   85.1830   52.8750 C.2   1315  SPO1315    -0.0283
      8  C6        43.0100   86.2460   51.8800 C.2   1315  SPO1315    -0.0310
      9  C7        41.7710   87.0260   51.6540 C.3   1315  SPO1315     0.0217
     10  C8        40.5920   86.9340   52.5960 C.3   1315  SPO1315     0.0047
     11  C9        41.7050   87.9110   50.4730 C.3   1315  SPO1315     0.0043
     12  C10       40.4230   88.3450   49.9380 C.3   1315  SPO1315     0.0003
     13  C11       40.3380   88.8330   48.5610 C.3   1315  SPO1315     0.0003
     14  C12       39.2370   89.7150   48.1240 C.3   1315  SPO1315     0.0043
     15  C13       37.9840   89.8590   48.9360 C.3   1315  SPO1315     0.0003
     16  C14       39.3850   90.4430   46.8630 C.3   1315  SPO1315     0.0257
     17  C15       38.2740   90.5900   45.9250 C.2   1315  SPO1315    -0.0307
     18  C16       38.3290   91.7610   45.0530 C.2   1315  SPO1315    -0.0310
     19  C17       37.3100   92.0800   44.0390 C.3   1315  SPO1315     0.0220
     20  C18       35.8540   91.8070   44.2810 C.3   1315  SPO1315     0.0047
     21  C19       37.7690   92.6830   42.7760 C.3   1315  SPO1315     0.0090
     22  C20       36.8770   93.5510   42.0170 C.3   1315  SPO1315     0.0260
     23  C21       37.4070   94.4880   41.0350 C.2   1315  SPO1315    -0.0304
     24  C22       38.7740   94.3890   40.5750 C.2   1315  SPO1315    -0.0267
     25  C23       39.2900   95.3080   39.5450 C.3   1315  SPO1315     0.0433
     26  C24       38.3870   95.9360   38.5370 C.3   1315  SPO1315     0.0094
     27  C25       40.7300   95.5830   39.5400 C.2   1315  SPO1315    -0.0267
     28  C26       41.4580   96.0600   38.3790 C.2   1315  SPO1315    -0.0304
     29  C27       42.9130   95.9360   38.4230 C.3   1315  SPO1315     0.0257
     30  C28       43.7610   96.4130   37.3160 C.3   1315  SPO1315     0.0043
     31  C29       43.1480   96.7140   35.9720 C.3   1315  SPO1315     0.0003
     32  C30       45.2480   96.6000   37.5560 C.3   1315  SPO1315     0.0003
     33  C31       45.5790   98.0860   37.5300 C.3   1315  SPO1315     0.0000
     34  C32       47.0720   98.3160   37.5330 C.3   1315  SPO1315     0.0000
     35  C33       47.7260   99.2160   38.5130 C.3   1315  SPO1315     0.0000
     36  C34       46.9480  100.3040   39.2020 C.3   1315  SPO1315     0.0000
     37  C35       49.1980   99.0330   38.8330 C.3   1315  SPO1315     0.0000
     38  C36       50.0530  100.0270   38.0560 C.3   1315  SPO1315     0.0000
     39  C37       51.4240   99.4460   37.7650 C.3   1315  SPO1315     0.0000
     40  C38       52.1310   99.7560   36.4940 C.3   1315  SPO1315     0.0000
     41  C39       52.2250   98.7300   35.3880 C.3   1315  SPO1315     0.0000
     42  C40       52.7550  101.1100   36.3070 C.3   1315  SPO1315     0.0000
@<TRIPOS>BOND
     1    41    40    1
     2    31    30    1
     3    42    40    1
     4    40    39    1
     5    30    32    1
     6    30    29    1
     7    33    34    1
     8    33    32    1
     9    34    35    1
    10    39    38    1
    11    38    37    1
    12    28    29    1
    13    28    27    2
    14    35    37    1
    15    35    36    1
    16    26    25    1
    17    27    25    1
    18    25    24    1
    19    24    23    2
    20    23    22    1
    21    22    21    1
    22    21    19    1
    23    19    20    1
    24    19    18    1
    25    18    17    2
    26    17    16    1
    27    16    14    1
    28    14    13    1
    29    14    15    1
    30    13    12    1
    31    12    11    1
    32    11     9    1
    33     9     8    1
    34     9    10    1
    35     8     7    2
    36     7     6    1
    37     6     3    1
    38     3     4    1
    39     3     5    1
    40     3     2    1
    41     2     1    1
