@<TRIPOS>MOLECULE
2ux4_U10_M_1.pdb
 48 48 0 0 0
SMALL
GASTEIGER

@<TRIPOS>ATOM
      1  C1        20.6220   76.4440   18.4760 C.2   1312  U101312     0.0198
      2  C2        21.3670   75.2420   18.4430 C.2   1312  U101312     0.2282
      3  C3        21.5690   74.5730   17.2060 C.2   1312  U101312     0.2140
      4  C4        21.0320   75.1190   16.0110 C.2   1312  U101312     0.2140
      5  C5        20.2970   76.3010   16.0600 C.2   1312  U101312     0.2285
      6  C6        20.0940   76.9740   17.2790 C.2   1312  U101312     0.0235
      7  C1M       20.4100   77.1410   19.8010 C.3   1312  U101312     0.0343
      8  C3M       23.5500   73.3220   17.1900 C.3   1312  U101312     0.2528
      9  C4M       22.0850   73.9450   14.2540 C.3   1312  U101312     0.2528
     10  C7        19.2130   78.2060   17.2700 C.3   1312  U101312     0.0548
     11  C8        20.0620   79.4210   17.4990 C.2   1312  U101312    -0.0298
     12  C9        20.2880   80.5110   16.5410 C.2   1312  U101312    -0.0475
     13  C10       19.6490   80.4800   15.1750 C.3   1312  U101312     0.0260
     14  C11       21.2100   81.6460   16.9670 C.3   1312  U101312     0.0264
     15  C12       20.5750   83.0290   16.8660 C.3   1312  U101312     0.0297
     16  C13       19.4210   83.1540   17.8340 C.2   1312  U101312    -0.0342
     17  C14       19.4110   84.1030   18.9760 C.2   1312  U101312    -0.0478
     18  C15       20.4520   85.1810   19.1220 C.3   1312  U101312     0.0260
     19  C16       18.3130   83.9860   20.0180 C.3   1312  U101312     0.0263
     20  C17       17.3730   85.1770   19.9650 C.3   1312  U101312     0.0297
     21  C18       16.2770   84.8880   18.9710 C.2   1312  U101312    -0.0343
     22  C19       15.6200   85.9850   18.2440 C.2   1312  U101312    -0.0482
     23  C20       16.0120   87.4110   18.4900 C.3   1312  U101312     0.0260
     24  C21       14.5510   85.6730   17.2260 C.3   1312  U101312     0.0217
     25  C22       13.2060   85.6580   17.9290 C.3   1312  U101312     0.0043
     26  C23       12.1000   85.5830   16.9120 C.3   1312  U101312     0.0003
     27  C24       10.9390   84.7170   17.1340 C.3   1312  U101312     0.0000
     28  C25       10.6330   84.1870   18.5030 C.3   1312  U101312     0.0000
     29  C26       10.0570   84.3420   15.9700 C.3   1312  U101312     0.0000
     30  C27        9.2740   85.5340   15.4410 C.3   1312  U101312     0.0000
     31  C28        8.1590   84.9890   14.5920 C.3   1312  U101312     0.0000
     32  C29        6.8330   85.5990   14.6950 C.3   1312  U101312     0.0003
     33  C30        6.5070   86.7210   13.7300 C.3   1312  U101312     0.0000
     34  C31        5.8660   85.1070   15.7760 C.3   1312  U101312     0.0046
     35  C32        4.4050   84.9840   15.3020 C.3   1312  U101312     0.0254
     36  C33        3.7700   83.6270   15.5940 C.2   1312  U101312    -0.0346
     37  C34        4.1680   82.3730   14.9020 C.2   1312  U101312    -0.0478
     38  C35        5.2920   82.3780   13.8960 C.3   1312  U101312     0.0260
     39  C36        3.4350   81.0820   15.2290 C.3   1312  U101312     0.0263
     40  C37        3.2400   80.2130   13.9890 C.3   1312  U101312     0.0297
     41  C38        1.7890   80.2500   13.5730 C.2   1312  U101312    -0.0342
     42  C39        1.2980   80.8790   12.3330 C.2   1312  U101312    -0.0478
     43  C40        2.2340   81.5580   11.3760 C.3   1312  U101312     0.0260
     44  C41       -0.1810   80.8370   12.0160 C.3   1312  U101312     0.0260
     45  O2        21.9540   74.8460   19.4790 O.2   1312  U101312    -0.2836
     46  O3        22.1340   73.4540   17.1830 O.2   1312  U101312    -0.4652
     47  O4        20.9620   74.4710   14.9470 O.2   1312  U101312    -0.4652
     48  O5        19.6260   76.6080   15.0620 O.2   1312  U101312    -0.2835
@<TRIPOS>BOND
     1    43    42    1
     2    44    42    1
     3    42    41    2
     4    41    40    1
     5    33    32    1
     6    38    37    1
     7    40    39    1
     8     9    47    1
     9    31    32    1
    10    31    30    1
    11    32    34    1
    12    37    39    1
    13    37    36    2
    14    47     4    1
    15    48     5    2
    16    13    12    1
    17    35    36    1
    18    35    34    1
    19    30    29    1
    20    29    27    1
    21     4     5    1
    22     4     3    2
    23     5     6    1
    24    12    14    1
    25    12    11    2
    26    15    14    1
    27    15    16    1
    28    26    27    1
    29    26    25    1
    30    27    28    1
    31    46     8    1
    32    46     3    1
    33     3     2    1
    34    24    25    1
    35    24    22    1
    36    10     6    1
    37    10    11    1
    38     6     1    2
    39    16    17    2
    40    22    23    1
    41    22    21    2
    42     2     1    1
    43     2    45    2
    44     1     7    1
    45    21    20    1
    46    17    18    1
    47    17    19    1
    48    20    19    1
