@<TRIPOS>MOLECULE
2ux4_SPO_M_1.pdb
 42 41 0 0 0
SMALL
GASTEIGER

@<TRIPOS>ATOM
      1  CM1       43.3070   83.3470   55.5760 C.3   1313  SPO1313     0.1743
      2  O1        44.0850   84.5340   55.3630 O.3   1313  SPO1313    -0.3518
      3  C1        45.1090   84.6560   54.3510 C.3   1313  SPO1313     0.1114
      4  C2        45.5380   83.2990   53.7890 C.3   1313  SPO1313     0.0342
      5  C3        46.3310   85.3310   54.9550 C.3   1313  SPO1313     0.0342
      6  C4        44.6750   85.5870   53.2190 C.2   1313  SPO1313     0.0002
      7  C5        43.2310   85.4550   52.7900 C.2   1313  SPO1313    -0.0026
      8  C6        42.7850   86.3400   51.7180 C.2   1313  SPO1313    -0.0045
      9  C7        41.6510   87.2750   51.8430 C.2   1313  SPO1313    -0.0219
     10  C8        40.6870   87.1740   52.9900 C.3   1313  SPO1313     0.0310
     11  C9        41.4740   88.3160   50.8090 C.2   1313  SPO1313    -0.0043
     12  C10       40.2800   88.3420   49.9690 C.2   1313  SPO1313    -0.0010
     13  C11       40.3030   89.1020   48.7230 C.2   1313  SPO1313    -0.0082
     14  C12       39.1450   89.8670   48.2100 C.2   1313  SPO1313    -0.0395
     15  C13       37.8930   90.0450   49.0260 C.3   1313  SPO1313     0.0267
     16  C14       39.2550   90.4580   46.8620 C.3   1313  SPO1313     0.0476
     17  C15       38.0890   90.8450   46.0750 C.2   1313  SPO1313    -0.0263
     18  C16       38.1920   92.0340   45.2270 C.2   1313  SPO1313    -0.0307
     19  C17       37.2110   92.3240   44.1640 C.3   1313  SPO1313     0.0220
     20  C18       35.7540   92.0500   44.3600 C.3   1313  SPO1313     0.0047
     21  C19       37.6900   92.8940   42.8950 C.3   1313  SPO1313     0.0090
     22  C20       36.8000   93.6730   42.0340 C.3   1313  SPO1313     0.0264
     23  C21       37.3370   94.7260   41.1830 C.2   1313  SPO1313    -0.0264
     24  C22       38.7110   94.6540   40.7160 C.2   1313  SPO1313    -0.0088
     25  C23       39.2630   95.5460   39.6770 C.2   1313  SPO1313    -0.0222
     26  C24       38.3870   96.2530   38.6910 C.3   1313  SPO1313     0.0310
     27  C25       40.7310   95.6940   39.6330 C.2   1313  SPO1313    -0.0046
     28  C26       41.4350   96.2800   38.4990 C.2   1313  SPO1313    -0.0049
     29  C27       42.8900   96.3280   38.5640 C.2   1313  SPO1313    -0.0265
     30  C28       43.6900   96.7510   37.4080 C.3   1313  SPO1313     0.0224
     31  C29       43.0250   97.0040   36.0850 C.3   1313  SPO1313     0.0047
     32  C30       45.1800   96.9220   37.5790 C.3   1313  SPO1313     0.0090
     33  C31       45.5170   98.4080   37.6320 C.3   1313  SPO1313     0.0257
     34  C32       47.0090   98.6050   37.7700 C.2   1313  SPO1313    -0.0346
     35  C33       47.5850   99.6070   38.6890 C.2   1313  SPO1313    -0.0482
     36  C34       46.7280  100.6810   39.2890 C.3   1313  SPO1313     0.0260
     37  C35       49.0550   99.5500   39.0320 C.3   1313  SPO1313     0.0217
     38  C36       49.8720  100.3350   38.0140 C.3   1313  SPO1313     0.0043
     39  C37       51.1820   99.6140   37.7860 C.3   1313  SPO1313     0.0003
     40  C38       52.0250   99.8730   36.5930 C.3   1313  SPO1313     0.0000
     41  C39       51.8640   99.0370   35.3470 C.3   1313  SPO1313     0.0000
     42  C40       53.0490  100.9770   36.6370 C.3   1313  SPO1313     0.0000
@<TRIPOS>BOND
     1    41    40    1
     2    31    30    1
     3    40    42    1
     4    40    39    1
     5    30    32    1
     6    30    29    1
     7    32    33    1
     8    33    34    1
     9    34    35    2
    10    39    38    1
    11    38    37    1
    12    28    29    2
    13    28    27    1
    14    35    37    1
    15    35    36    1
    16    26    25    1
    17    27    25    2
    18    25    24    1
    19    24    23    2
    20    23    22    1
    21    22    21    1
    22    21    19    1
    23    19    20    1
    24    19    18    1
    25    18    17    2
    26    17    16    1
    27    16    14    1
    28    14    13    2
    29    14    15    1
    30    13    12    1
    31    12    11    2
    32    11     9    1
    33     8     9    2
    34     8     7    1
    35     9    10    1
    36     7     6    2
    37     6     3    1
    38     4     3    1
    39     3     5    1
    40     3     2    1
    41     2     1    1
