@<TRIPOS>MOLECULE
2ux4_UQ2_L_1.pdb
 23 23 0 0 0
SMALL
GASTEIGER

@<TRIPOS>ATOM
      1  C1        35.0780   71.9240   28.0390 C.2   1287  UQ21287     0.1987
      2  C2        34.5820   71.3570   26.8410 C.3   1287  UQ21287     0.2104
      3  C3        34.1070   72.1710   25.7920 C.3   1287  UQ21287     0.2104
      4  C4        34.1320   73.5480   25.9810 C.2   1287  UQ21287     0.1987
      5  C5        34.6320   74.1180   27.1660 C.2   1287  UQ21287     0.0142
      6  C6        35.0950   73.3050   28.2030 C.2   1287  UQ21287     0.0139
      7  CM2       36.0880   69.8160   25.9830 C.3   1287  UQ21287     0.1747
      8  CM3       33.3660   71.2590   23.7390 C.3   1287  UQ21287     0.1747
      9  CM5       34.6670   75.6070   27.3500 C.3   1287  UQ21287     0.0339
     10  C7        35.7510   73.9060   29.4390 C.3   1287  UQ21287     0.0291
     11  C8        34.8820   73.7550   30.6720 C.3   1287  UQ21287     0.0048
     12  C9        35.0030   74.6350   31.8530 C.3   1287  UQ21287     0.0003
     13  C10       36.0230   74.3120   32.9140 C.3   1287  UQ21287     0.0000
     14  C11       34.0670   75.8310   32.0010 C.3   1287  UQ21287     0.0000
     15  C12       34.7320   77.0930   32.5670 C.3   1287  UQ21287     0.0000
     16  C13       33.8080   77.8340   33.5190 C.3   1287  UQ21287     0.0000
     17  C14       34.1170   77.9960   34.9600 C.3   1287  UQ21287     0.0000
     18  C15       35.4490   78.5200   35.4320 C.3   1287  UQ21287     0.0000
     19  C16       33.0800   77.6290   35.9930 C.3   1287  UQ21287     0.0000
     20  O1        35.7710   71.2630   28.8260 O.2   1287  UQ21287    -0.2890
     21  O2        34.8540   70.1790   26.5850 O.3   1287  UQ21287    -0.3429
     22  O3        34.3210   71.8200   24.6130 O.3   1287  UQ21287    -0.3429
     23  O4        33.6410   74.2390   25.0920 O.2   1287  UQ21287    -0.2890
@<TRIPOS>BOND
     1     8    22    1
     2    22     3    1
     3    23     4    2
     4     3     4    1
     5     3     2    1
     6     4     5    1
     7     7    21    1
     8    21     2    1
     9     2     1    1
    10     5     9    1
    11     5     6    2
    12     1     6    1
    13     1    20    2
    14     6    10    1
    15    10    11    1
    16    11    12    1
    17    12    14    1
    18    12    13    1
    19    14    15    1
    20    15    16    1
    21    16    17    1
    22    17    18    1
    23    17    19    1
