@<TRIPOS>MOLECULE
2ux5_U10_M_1.pdb
 48 48 0 0 0
SMALL
GASTEIGER

@<TRIPOS>ATOM
      1  C1        20.6820   76.4570   18.4090 C.2   1315  U101315     0.0198
      2  C2        21.4630   75.2930   18.3790 C.2   1315  U101315     0.2282
      3  C3        21.6520   74.5940   17.1270 C.2   1315  U101315     0.2140
      4  C4        21.0160   75.0680   15.9250 C.2   1315  U101315     0.2140
      5  C5        20.2440   76.2270   15.9940 C.2   1315  U101315     0.2285
      6  C6        20.0840   76.9350   17.2220 C.2   1315  U101315     0.0235
      7  C1M       20.5170   77.1670   19.7330 C.3   1315  U101315     0.0343
      8  C3M       23.5090   73.2160   17.3800 C.3   1315  U101315     0.2528
      9  C4M       22.1640   73.7760   14.2700 C.3   1315  U101315     0.2528
     10  C7        19.2030   78.1810   17.2060 C.3   1315  U101315     0.0548
     11  C8        19.9840   79.4340   17.3510 C.2   1315  U101315    -0.0298
     12  C9        20.2480   80.5150   16.3970 C.2   1315  U101315    -0.0475
     13  C10       19.6150   80.5590   15.0210 C.3   1315  U101315     0.0260
     14  C11       21.2110   81.5900   16.8750 C.3   1315  U101315     0.0264
     15  C12       20.5830   82.9750   16.8950 C.3   1315  U101315     0.0297
     16  C13       19.4110   82.9560   17.8300 C.2   1315  U101315    -0.0342
     17  C14       19.2580   83.9280   18.9430 C.2   1315  U101315    -0.0478
     18  C15       20.2970   84.9820   19.2050 C.3   1315  U101315     0.0260
     19  C16       18.0000   83.7970   19.7860 C.3   1315  U101315     0.0263
     20  C17       17.1530   85.0510   19.7990 C.3   1315  U101315     0.0297
     21  C18       16.1440   84.9340   18.6930 C.2   1315  U101315    -0.0343
     22  C19       15.6070   86.1390   18.0670 C.2   1315  U101315    -0.0482
     23  C20       16.2010   87.4720   18.3620 C.3   1315  U101315     0.0260
     24  C21       14.4630   86.0740   17.1010 C.3   1315  U101315     0.0217
     25  C22       13.2700   85.4050   17.7350 C.3   1315  U101315     0.0043
     26  C23       12.1570   85.5440   16.7350 C.3   1315  U101315     0.0003
     27  C24       10.9240   84.7710   16.8670 C.3   1315  U101315     0.0000
     28  C25       10.5730   84.1310   18.1800 C.3   1315  U101315     0.0000
     29  C26       10.0480   84.6290   15.6410 C.3   1315  U101315     0.0000
     30  C27        8.6700   85.2540   15.7910 C.3   1315  U101315     0.0000
     31  C28        7.7060   84.4570   14.9380 C.3   1315  U101315     0.0000
     32  C29        6.3290   84.9220   14.7290 C.3   1315  U101315     0.0003
     33  C30        6.0570   85.6630   13.4400 C.3   1315  U101315     0.0000
     34  C31        5.2650   84.6690   15.8100 C.3   1315  U101315     0.0046
     35  C32        3.8200   84.3580   15.3380 C.3   1315  U101315     0.0254
     36  C33        3.4360   82.8880   15.5310 C.2   1315  U101315    -0.0346
     37  C34        3.9930   81.7670   14.7190 C.2   1315  U101315    -0.0482
     38  C35        5.1600   81.9640   13.7730 C.3   1315  U101315     0.0260
     39  C36        3.3740   80.3850   14.8150 C.3   1315  U101315     0.0217
     40  C37        2.8960   79.9540   13.4300 C.3   1315  U101315     0.0043
     41  C38        1.5150   80.5350   13.2130 C.3   1315  U101315     0.0003
     42  C39        1.0450   81.1970   11.9800 C.3   1315  U101315     0.0000
     43  C40        1.9340   82.0990   11.1550 C.3   1315  U101315     0.0000
     44  C41       -0.3950   80.9610   11.5710 C.3   1315  U101315     0.0000
     45  O2        21.9560   74.8620   19.4650 O.2   1315  U101315    -0.2836
     46  O3        22.1590   73.4310   17.1420 O.2   1315  U101315    -0.4652
     47  O4        20.9920   74.4230   14.8210 O.2   1315  U101315    -0.4652
     48  O5        19.5290   76.5100   15.0030 O.2   1315  U101315    -0.2835
@<TRIPOS>BOND
     1    43    42    1
     2    44    42    1
     3    42    41    1
     4    41    40    1
     5    40    39    1
     6    33    32    1
     7    38    37    1
     8     9    47    1
     9    37    39    1
    10    37    36    2
    11    32    31    1
    12    32    34    1
    13    47     4    1
    14    31    30    1
    15    48     5    2
    16    13    12    1
    17    35    36    1
    18    35    34    1
    19    29    30    1
    20    29    27    1
    21     4     5    1
    22     4     3    2
    23     5     6    1
    24    12    14    1
    25    12    11    2
    26    26    27    1
    27    26    25    1
    28    27    28    1
    29    14    15    1
    30    15    16    1
    31    24    25    1
    32    24    22    1
    33     3    46    1
    34     3     2    1
    35    46     8    1
    36    10     6    1
    37    10    11    1
    38     6     1    2
    39    16    17    2
    40    22    23    1
    41    22    21    2
    42     2     1    1
    43     2    45    2
    44     1     7    1
    45    21    20    1
    46    17    18    1
    47    17    19    1
    48    19    20    1
