@<TRIPOS>MOLECULE
2ux5_UQ2_L_1.pdb
 23 23 0 0 0
SMALL
GASTEIGER

@<TRIPOS>ATOM
      1  C1        35.3340   73.2990   31.3220 C.2   1286  UQ21286     0.1987
      2  C2        35.2130   73.4500   29.9150 C.3   1286  UQ21286     0.2104
      3  C3        34.5480   74.5790   29.4070 C.3   1286  UQ21286     0.2104
      4  C4        34.0370   75.5340   30.2870 C.2   1286  UQ21286     0.1987
      5  C5        34.1690   75.3850   31.6760 C.2   1286  UQ21286     0.0142
      6  C6        34.8140   74.2550   32.2150 C.2   1286  UQ21286     0.0139
      7  CM2       36.1230   71.8040   28.5510 C.3   1286  UQ21286     0.1747
      8  CM3       35.2380   75.4490   27.3750 C.3   1286  UQ21286     0.1747
      9  CM5       33.5850   76.4630   32.5640 C.3   1286  UQ21286     0.0339
     10  C7        35.1900   74.1870   33.7060 C.3   1286  UQ21286     0.0291
     11  C8        34.0040   73.8320   34.5900 C.3   1286  UQ21286     0.0048
     12  C9        34.0690   73.3380   35.9920 C.3   1286  UQ21286     0.0003
     13  C10       32.9330   72.5160   36.5510 C.3   1286  UQ21286     0.0000
     14  C11       35.2600   73.6460   36.8690 C.3   1286  UQ21286     0.0000
     15  C12       35.0710   73.0970   38.2860 C.3   1286  UQ21286     0.0000
     16  C13       35.4610   71.6300   38.3710 C.3   1286  UQ21286     0.0000
     17  C14       36.5680   71.1880   39.2290 C.3   1286  UQ21286     0.0000
     18  C15       37.8960   70.8830   38.6230 C.3   1286  UQ21286     0.0000
     19  C16       36.3860   71.0370   40.7240 C.3   1286  UQ21286     0.0000
     20  O1        35.8550   72.2750   31.7950 O.2   1286  UQ21286    -0.2890
     21  O2        36.1360   73.0480   29.1950 O.3   1286  UQ21286    -0.3429
     22  O3        34.3530   74.7000   28.1780 O.3   1286  UQ21286    -0.3429
     23  O4        33.5060   76.5460   29.8230 O.2   1286  UQ21286    -0.2890
@<TRIPOS>BOND
     1     8    22    1
     2    22     3    1
     3     7    21    1
     4    21     2    1
     5     3     2    1
     6     3     4    1
     7    23     4    2
     8     2     1    1
     9     4     5    1
    10     1    20    2
    11     1     6    1
    12     5     6    2
    13     5     9    1
    14     6    10    1
    15    10    11    1
    16    11    12    1
    17    12    13    1
    18    12    14    1
    19    14    15    1
    20    15    16    1
    21    16    17    1
    22    18    17    1
    23    17    19    1
