@<TRIPOS>MOLECULE
2ux5_SPO_M_1.pdb
 42 41 0 0 0
SMALL
GASTEIGER

@<TRIPOS>ATOM
      1  CM1       42.6720   83.5500   55.7870 C.3   1316  SPO1316     0.1739
      2  O1        43.7930   84.3840   55.4560 O.3   1316  SPO1316    -0.3559
      3  C1        44.4740   84.2000   54.2040 C.3   1316  SPO1316     0.0933
      4  C2        43.8710   82.9970   53.4730 C.3   1316  SPO1316     0.0296
      5  C3        45.9710   83.9790   54.3790 C.3   1316  SPO1316     0.0296
      6  C4        44.2960   85.4690   53.3930 C.3   1316  SPO1316     0.0319
      7  C5        42.8590   85.5850   52.9270 C.3   1316  SPO1316     0.0281
      8  C6        42.5880   86.4360   51.7920 C.2   1316  SPO1316    -0.0303
      9  C7        41.4150   87.3210   51.6980 C.2   1316  SPO1316    -0.0264
     10  C8        40.2990   87.2860   52.7070 C.3   1316  SPO1316     0.0307
     11  C9        41.3860   88.2490   50.5550 C.2   1316  SPO1316    -0.0088
     12  C10       40.1730   88.4430   49.7760 C.2   1316  SPO1316    -0.0221
     13  C11       40.2610   89.2490   48.5600 C.3   1316  SPO1316     0.0480
     14  C12       39.0850   89.9390   48.0040 C.2   1316  SPO1316    -0.0395
     15  C13       37.8210   90.1300   48.8030 C.3   1316  SPO1316     0.0267
     16  C14       39.1870   90.4280   46.6310 C.2   1316  SPO1316    -0.0085
     17  C15       38.0520   91.1010   46.0310 C.2   1316  SPO1316    -0.0052
     18  C16       38.3490   91.9450   44.8790 C.2   1316  SPO1316    -0.0265
     19  C17       37.2440   92.3560   43.9940 C.3   1316  SPO1316     0.0224
     20  C18       35.8140   92.1970   44.4160 C.3   1316  SPO1316     0.0047
     21  C19       37.5900   92.9370   42.6860 C.3   1316  SPO1316     0.0090
     22  C20       36.6120   93.7370   41.9840 C.3   1316  SPO1316     0.0260
     23  C21       37.0480   94.6910   40.9890 C.2   1316  SPO1316    -0.0304
     24  C22       38.4510   94.7630   40.6850 C.2   1316  SPO1316    -0.0267
     25  C23       38.9440   95.6060   39.6050 C.3   1316  SPO1316     0.0433
     26  C24       38.0250   96.2850   38.6450 C.3   1316  SPO1316     0.0094
     27  C25       40.4040   95.7360   39.5360 C.2   1316  SPO1316    -0.0267
     28  C26       41.0720   96.3310   38.4000 C.2   1316  SPO1316    -0.0304
     29  C27       42.5250   96.2160   38.3950 C.3   1316  SPO1316     0.0257
     30  C28       43.3650   96.6520   37.2760 C.3   1316  SPO1316     0.0047
     31  C29       42.7800   96.9050   35.9130 C.3   1316  SPO1316     0.0004
     32  C30       44.8570   96.7840   37.5300 C.3   1316  SPO1316     0.0050
     33  C31       45.3030   98.2350   37.4700 C.3   1316  SPO1316     0.0254
     34  C32       46.7280   98.3170   37.9780 C.2   1316  SPO1316    -0.0346
     35  C33       47.2670   99.5200   38.6560 C.2   1316  SPO1316    -0.0482
     36  C34       46.3410  100.5980   39.1310 C.3   1316  SPO1316     0.0260
     37  C35       48.7590   99.6660   38.8920 C.3   1316  SPO1316     0.0217
     38  C36       49.4420  100.2800   37.6740 C.3   1316  SPO1316     0.0043
     39  C37       50.9490  100.1060   37.7720 C.3   1316  SPO1316     0.0003
     40  C38       51.8530  100.3020   36.6050 C.3   1316  SPO1316     0.0000
     41  C39       52.7530   99.1760   36.1540 C.3   1316  SPO1316     0.0000
     42  C40       51.8850  101.6200   35.8620 C.3   1316  SPO1316     0.0000
@<TRIPOS>BOND
     1    42    40    1
     2    31    30    1
     3    41    40    1
     4    40    39    1
     5    30    32    1
     6    30    29    1
     7    33    32    1
     8    33    34    1
     9    38    39    1
    10    38    37    1
    11    34    35    2
    12    29    28    1
    13    28    27    2
    14    26    25    1
    15    35    37    1
    16    35    36    1
    17    27    25    1
    18    25    24    1
    19    24    23    2
    20    23    22    1
    21    22    21    1
    22    21    19    1
    23    19    20    1
    24    19    18    1
    25    18    17    2
    26    17    16    1
    27    16    14    2
    28    14    13    1
    29    14    15    1
    30    13    12    1
    31    12    11    2
    32    11     9    1
    33     9     8    2
    34     9    10    1
    35     8     7    1
    36     7     6    1
    37     6     3    1
    38     4     3    1
    39     3     5    1
    40     3     2    1
    41     2     1    1
