@<TRIPOS>MOLECULE
2ux8_G1P_A_1.pdb
 16 16 0 0 0
SMALL
GASTEIGER

@<TRIPOS>ATOM
      1  C1        42.9680   70.2490   97.4540 C.3   1290  G1P1290     0.2781
      2  C2        43.8310   71.5340   97.4110 C.3   1290  G1P1290     0.2410
      3  C3        43.5800   72.2740   96.0870 C.3   1290  G1P1290     0.2198
      4  C4        43.9760   71.3270   94.9410 C.3   1290  G1P1290     0.2144
      5  C5        43.0880   70.0640   95.0330 C.3   1290  G1P1290     0.1835
      6  C6        43.4630   69.1000   93.9000 C.3   1290  G1P1290     0.2142
      7  O1        41.5670   70.5790   97.4800 O.3   1290  G1P1290    -0.2416
      8  O2        43.4860   72.3670   98.5200 O.3   1290  G1P1290    -0.2149
      9  O3        44.3810   73.4580   96.0400 O.3   1290  G1P1290    -0.2174
     10  O4        43.7560   71.9790   93.6880 O.3   1290  G1P1290    -0.2176
     11  O5        43.2970   69.3880   96.3110 O.3   1290  G1P1290    -0.3253
     12  O6        42.6490   67.9280   93.9680 O.3   1290  G1P1290    -0.2176
     13  P         40.7770   69.4070   98.2830 P.3   1290  G1P1290     0.5346
     14  O1P       41.3050   69.2700   99.6580 O.3   1290  G1P1290    -0.1145
     15  O2P       39.2120   69.7590   98.3450 O.3   1290  G1P1290    -0.1145
     16  O3P       40.9550   68.0070   97.5070 O.2   1290  G1P1290    -0.2223
@<TRIPOS>BOND
     1    10     4    1
     2     6    12    1
     3     6     5    1
     4     4     5    1
     5     4     3    1
     6     5    11    1
     7     9     3    1
     8     3     2    1
     9    11     1    1
    10     2     1    1
    11     2     8    1
    12     1     7    1
    13     7    13    1
    14    16    13    2
    15    13    15    1
    16    13    14    1
