@<TRIPOS>MOLECULE
2ux9_FMN_A_1.pdb
 31 33 0 0 0
SMALL
GASTEIGER

@<TRIPOS>ATOM
      1  N1        26.3710   41.8530   -0.1730 N.2   1069  FMN1069    -0.2887
      2  C2        26.9350   41.1260    0.8310 C.1   1069  FMN1069     0.3669
      3  O2        27.7870   41.6560    1.5240 O.2   1069  FMN1069    -0.1744
      4  N3        26.5230   39.8310    1.0760 N.2   1069  FMN1069    -0.2300
      5  C4        25.5350   39.2520    0.3080 C.1   1069  FMN1069     0.2513
      6  O4        25.4810   38.0200    0.2820 O.2   1069  FMN1069    -0.2057
      7  C4A       24.9510   40.0010   -0.7030 C.2   1069  FMN1069     0.2703
      8  N5        23.9290   39.4660   -1.4540 N.2   1069  FMN1069    -0.3882
      9  C5A       23.3450   40.1990   -2.4610 C.2   1069  FMN1069     0.1277
     10  C6        22.3230   39.6230   -3.2110 C.3   1069  FMN1069     0.0820
     11  C7        21.7190   40.3400   -4.2410 C.2   1069  FMN1069    -0.0408
     12  C7M       20.4950   39.7730   -4.8950 C.3   1069  FMN1069     0.0265
     13  C8        22.1560   41.6400   -4.5140 C.2   1069  FMN1069    -0.0280
     14  C8M       21.6060   42.4230   -5.6720 C.3   1069  FMN1069     0.0304
     15  C9        23.1650   42.2160   -3.7550 C.2   1069  FMN1069     0.0123
     16  C9A       23.7730   41.4980   -2.7260 C.2   1069  FMN1069     0.0793
     17  N10       24.8060   42.0500   -1.9580 N.pl3 1069  FMN1069    -0.2545
     18  C10       25.3680   41.3030   -0.9390 C.2   1069  FMN1069     0.2449
     19  C1'       25.3770   43.4190   -2.2640 C.3   1069  FMN1069     0.1336
     20  C2'       26.2760   43.3870   -3.5010 C.3   1069  FMN1069     0.2048
     21  O2'       27.4160   42.5930   -3.2490 O.3   1069  FMN1069    -0.2185
     22  C3'       26.7410   44.7790   -3.9330 C.3   1069  FMN1069     0.2165
     23  O3'       27.5010   45.3780   -2.9050 O.3   1069  FMN1069    -0.2175
     24  C4'       25.5840   45.6980   -4.3090 C.3   1069  FMN1069     0.2147
     25  O4'       24.6670   45.0110   -5.1340 O.3   1069  FMN1069    -0.2176
     26  C5'       26.0840   46.9370   -5.0430 C.3   1069  FMN1069     0.1892
     27  O5'       26.7910   46.4990   -6.1850 O.3   1069  FMN1069    -0.2674
     28  P         27.3340   47.5430   -7.2680 P.3   1069  FMN1069     0.5327
     29  O1P       28.1630   46.7480   -8.2520 O.2   1069  FMN1069    -0.2224
     30  O2P       26.1800   48.2080   -7.9840 O.3   1069  FMN1069    -0.1145
     31  O3P       28.1890   48.5820   -6.5790 O.3   1069  FMN1069    -0.1145
@<TRIPOS>BOND
     1    29    28    2
     2    30    28    1
     3    28    31    1
     4    28    27    1
     5    27    26    1
     6    14    13    1
     7    25    24    1
     8    26    24    1
     9    12    11    1
    10    13    11    2
    11    13    15    1
    12    24    22    1
    13    11    10    1
    14    22    20    1
    15    22    23    1
    16    15    16    2
    17    20    21    1
    18    20    19    1
    19    10     9    1
    20    16     9    1
    21    16    17    1
    22     9     8    2
    23    19    17    1
    24    17    18    1
    25     8     7    2
    26    18     7    1
    27    18     1    2
    28     7     5    1
    29     1     2    2
    30     6     5    2
    31     5     4    2
    32     2     4    2
    33     2     3    2
