@<TRIPOS>MOLECULE
2ux9_COA_A_1.pdb
 48 50 0 0 0
SMALL
GASTEIGER

@<TRIPOS>ATOM
      1  N1A       28.8340   43.4030  -17.7260 N.2   1070  COA1070     0.0021
      2  C2A       28.6490   43.1230  -19.0640 C.3   1070  COA1070     0.5254
      3  N3A       29.5860   42.4100  -19.7760 N.2   1070  COA1070    -0.0055
      4  C4A       30.6880   41.9710  -19.1170 C.2   1070  COA1070     0.3518
      5  C5A       30.8930   42.2390  -17.7740 C.2   1070  COA1070     0.2526
      6  C6A       29.9500   42.9570  -17.0590 C.2   1070  COA1070     0.4393
      7  N6A       30.0920   43.1720  -15.7610 N.pl3 1070  COA1070     0.2180
      8  N7A       32.0620   41.6760  -17.4050 N.2   1070  COA1070    -0.2095
      9  C8A       32.6000   41.0800  -18.4790 C.3   1070  COA1070     0.3377
     10  N9A       31.7660   41.2600  -19.5460 N.pl3 1070  COA1070    -0.1439
     11  C1B       31.8660   40.6350  -20.8540 C.3   1070  COA1070     0.3185
     12  C2B       33.2770   40.6670  -21.4130 C.3   1070  COA1070     0.2543
     13  O2B       33.6320   41.9140  -21.9640 O.3   1070  COA1070    -0.2131
     14  C3B       33.1160   39.5890  -22.4430 C.3   1070  COA1070     0.1928
     15  O3B       32.3270   40.1500  -23.4640 O.3   1070  COA1070    -0.2673
     16  P3B       32.4930   39.7490  -24.9970 P.3   1070  COA1070     0.5327
     17  O7A       31.4930   40.5410  -25.8110 O.2   1070  COA1070    -0.2224
     18  O8A       33.9200   40.0210  -25.3940 O.3   1070  COA1070    -0.1145
     19  O9A       32.1950   38.2770  -25.1390 O.3   1070  COA1070    -0.1145
     20  C4B       32.2980   38.5310  -21.7190 C.3   1070  COA1070     0.1795
     21  O4B       31.5420   39.2660  -20.7760 O.3   1070  COA1070    -0.3136
     22  C5B       33.0860   37.4850  -20.9440 C.3   1070  COA1070     0.1812
     23  O5B       33.9920   36.7930  -21.7700 O.3   1070  COA1070    -0.3112
     24  P1A       33.5650   35.4850  -22.5970 P.3   1070  COA1070     0.2189
     25  O1A       34.1010   35.5980  -24.0120 O.2   1070  COA1070    -0.5170
     26  O2A       32.0670   35.2750  -22.5760 O.3   1070  COA1070    -0.4371
     27  O3A       34.3030   34.2410  -21.8800 O.3   1070  COA1070    -0.2703
     28  P2A       34.0650   33.7310  -20.3750 P.3   1070  COA1070     0.2188
     29  O4A       35.4070   33.2220  -19.9180 O.2   1070  COA1070    -0.5170
     30  O5A       33.5690   34.8270  -19.4600 O.3   1070  COA1070    -0.4371
     31  O6A       33.0390   32.4910  -20.4970 O.3   1070  COA1070    -0.3138
     32  CBP       31.9730   30.5450  -21.5070 C.3   1070  COA1070     0.0645
     33  CCP       33.1810   31.4870  -21.4920 C.3   1070  COA1070     0.1519
     34  CDP       31.9660   29.7390  -22.7990 C.3   1070  COA1070     0.0056
     35  CEP       32.0940   29.5840  -20.3270 C.3   1070  COA1070     0.0056
     36  CAP       30.6780   31.3570  -21.4340 C.3   1070  COA1070     0.2312
     37  OAP       30.5660   32.1460  -22.5980 O.3   1070  COA1070    -0.2131
     38  C9P       29.4550   30.4950  -21.2710 C.2   1070  COA1070     0.2719
     39  O9P       29.1580   29.8810  -20.0470 O.2   1070  COA1070    -0.2706
     40  N8P       28.6590   30.3410  -22.3180 N.am  1070  COA1070    -0.2028
     41  C7P       27.3280   29.7870  -22.1530 C.3   1070  COA1070     0.1248
     42  C6P       26.9640   29.0640  -23.4280 C.3   1070  COA1070     0.1102
     43  C5P       25.6800   28.2890  -23.3320 C.2   1070  COA1070     0.2432
     44  O5P       24.9890   28.2360  -22.3050 O.2   1070  COA1070    -0.2733
     45  N4P       25.3930   27.6770  -24.4680 N.am  1070  COA1070    -0.2044
     46  C3P       24.0800   27.1690  -24.7820 C.3   1070  COA1070     0.1276
     47  C2P       24.1890   25.6610  -24.8580 C.3   1070  COA1070     0.0920
     48  S1P       22.6440   24.9470  -25.4140 S.3   1070  COA1070    -0.0802
@<TRIPOS>BOND
     1    17    16    2
     2    48    47    1
     3    18    16    1
     4    19    16    1
     5    16    15    1
     6    47    46    1
     7    46    45    1
     8    45    43   am
     9    25    24    2
    10    15    14    1
    11    42    43    1
    12    42    41    1
    13    43    44    2
    14    34    32    1
    15    37    36    1
    16    24    26    1
    17    24    27    1
    18    24    23    1
    19    14    20    1
    20    14    12    1
    21    40    41    1
    22    40    38   am
    23    13    12    1
    24    27    28    1
    25    23    22    1
    26    20    22    1
    27    20    21    1
    28    32    33    1
    29    32    36    1
    30    32    35    1
    31    33    31    1
    32    36    38    1
    33    12    11    1
    34    38    39    2
    35    11    21    1
    36    11    10    1
    37    31    28    1
    38    28    29    2
    39    28    30    1
    40     3     4    2
    41     3     2    1
    42    10     4    1
    43    10     9    1
    44     4     5    1
    45     2     1    1
    46     9     8    1
    47     5     8    2
    48     5     6    1
    49     1     6    2
    50     6     7    1
