@<TRIPOS>MOLECULE
2uxa_GLU_A_1.pdb
 10 9 0 0 0
SMALL
GASTEIGER

@<TRIPOS>ATOM
      1  N         75.5580   27.4860   43.4230 N.3   1264  GLU1264    -0.1208
      2  CA        76.5070   26.3330   43.6960 C.3   1264  GLU1264     0.1949
      3  C         76.6050   25.9590   45.1610 C.2   1264  GLU1264     0.3819
      4  O         77.4350   25.0770   45.4560 O.co2 1264  GLU1264    -0.2441
      5  CB        77.9150   26.6550   43.1930 C.3   1264  GLU1264     0.0424
      6  CG        78.0780   26.5910   41.6740 C.3   1264  GLU1264     0.1161
      7  CD        78.1120   25.1510   41.2040 C.2   1264  GLU1264     0.3649
      8  OE1       77.9910   24.8760   40.0030 O.co2 1264  GLU1264    -0.2457
      9  OE2       78.3170   24.2880   42.0500 O.co2 1264  GLU1264    -0.2457
     10  OXT       75.9000   26.5190   46.0470 O.co2 1264  GLU1264    -0.2441
@<TRIPOS>BOND
     1     8     7   ar
     2     7     6    1
     3     7     9   ar
     4     6     5    1
     5     5     2    1
     6     1     2    1
     7     2     3    1
     8     3     4   ar
     9     3    10   ar
