@<TRIPOS>MOLECULE
2uxh_QUE_A_1.pdb
 22 24 0 0 0
SMALL
GASTEIGER

@<TRIPOS>ATOM
      1  C1        17.4500   39.3530   -2.9610 C.ar  1211  QUE1211     0.0843
      2  C2        17.7020   38.1920   -3.6580 C.ar  1211  QUE1211     0.2050
      3  C3        16.9160   37.0630   -3.4350 C.ar  1211  QUE1211     0.1158
      4  C4        15.8370   37.0910   -2.5320 C.ar  1211  QUE1211     0.1549
      5  C5        15.5940   38.2690   -1.8260 C.ar  1211  QUE1211     0.0798
      6  C6        16.4070   39.3860   -2.0510 C.ar  1211  QUE1211     0.2020
      7  C9        17.1640   35.9230   -4.1770 C.ar  1211  QUE1211     0.2433
      8  C10       16.3190   34.8390   -4.0310 C.ar  1211  QUE1211     0.2685
      9  C11       15.2630   34.8830   -3.1070 C.ar  1211  QUE1211     0.1872
     10  C14       14.4560   33.7500   -3.0170 C.ar  1211  QUE1211     0.0413
     11  C15       13.7300   33.4560   -1.8650 C.ar  1211  QUE1211     0.0066
     12  C16       12.9460   32.3030   -1.8590 C.ar  1211  QUE1211     0.0455
     13  C17       12.8710   31.4590   -2.9810 C.ar  1211  QUE1211     0.2343
     14  C18       13.5960   31.7620   -4.1310 C.ar  1211  QUE1211     0.2344
     15  C19       14.3720   32.9100   -4.1380 C.ar  1211  QUE1211     0.0485
     16  O12       15.0210   35.9950   -2.3200 O.2   1211  QUE1211    -0.4498
     17  O13       18.0820   35.8870   -4.9940 O.2   1211  QUE1211    -0.2828
     18  O23       13.5480   30.9600   -5.2290 O.3   1211  QUE1211    -0.2831
     19  O24       12.0920   30.3380   -2.9470 O.3   1211  QUE1211    -0.2831
     20  O27       16.5470   33.7290   -4.7900 O.3   1211  QUE1211    -0.2798
     21  O29       16.2110   40.5520   -1.3990 O.3   1211  QUE1211    -0.2864
     22  O30       18.7320   38.1800   -4.5390 O.3   1211  QUE1211    -0.2862
@<TRIPOS>BOND
     1    18    14    1
     2    17     7    2
     3    20     8    1
     4    22     2    1
     5     7     8   ar
     6     7     3   ar
     7    15    14   ar
     8    15    10   ar
     9    14    13   ar
    10     8     9   ar
    11     2     3   ar
    12     2     1   ar
    13     3     4   ar
    14     9    10    1
    15     9    16   ar
    16    10    11   ar
    17    13    19    1
    18    13    12   ar
    19     1     6   ar
    20     4    16   ar
    21     4     5   ar
    22     6     5   ar
    23     6    21    1
    24    11    12   ar
