@<TRIPOS>MOLECULE
2uxi_G50_A_1.pdb
 20 21 0 0 0
SMALL
GASTEIGER

@<TRIPOS>ATOM
      1  C1        22.0700   37.5490   -4.4390 C.ar  1211  G501211     0.0843
      2  C2        22.2280   38.8360   -4.9340 C.ar  1211  G501211     0.2021
      3  C3        21.1540   39.6940   -5.0340 C.ar  1211  G501211     0.0843
      4  C4        19.8980   39.2480   -4.6430 C.ar  1211  G501211     0.2047
      5  C5        19.6980   37.9460   -4.1390 C.ar  1211  G501211     0.1126
      6  C6        20.8140   37.0930   -4.0360 C.ar  1211  G501211     0.2047
      7  C7        18.2600   37.5140   -3.7140 C.2   1211  G501211     0.1796
      8  C8        17.6440   36.1170   -4.0290 C.3   1211  G501211     0.0740
      9  C9        16.3330   35.8790   -3.1190 C.3   1211  G501211     0.0345
     10  O1        20.7340   35.8220   -3.5610 O.3   1211  G501211    -0.2863
     11  O2        17.5670   38.3320   -3.1090 O.2   1211  G501211    -0.2911
     12  C10       15.6880   34.5080   -3.4520 C.ar  1211  G501211    -0.0215
     13  C11       15.7370   34.0680   -4.7790 C.ar  1211  G501211    -0.0010
     14  C12       15.2050   32.8380   -5.1300 C.ar  1211  G501211     0.0417
     15  C13       14.5930   32.0420   -4.1790 C.ar  1211  G501211     0.1957
     16  C14       14.5270   32.4680   -2.8400 C.ar  1211  G501211     0.0417
     17  C15       15.0800   33.7010   -2.4690 C.ar  1211  G501211    -0.0010
     18  O3        14.0870   30.8460   -4.5950 O.3   1211  G501211    -0.2866
     19  O4        23.4320   39.2650   -5.3290 O.3   1211  G501211    -0.2864
     20  O5        18.8950   40.1380   -4.7770 O.3   1211  G501211    -0.2863
@<TRIPOS>BOND
     1    19     2    1
     2    14    13   ar
     3    14    15   ar
     4     3     2   ar
     5     3     4   ar
     6     2     1   ar
     7    13    12   ar
     8    20     4    1
     9     4     5   ar
    10    18    15    1
    11     1     6   ar
    12    15    16   ar
    13     5     6   ar
    14     5     7    1
    15     6    10    1
    16     8     7    1
    17     8     9    1
    18     7    11    2
    19    12     9    1
    20    12    17   ar
    21    16    17   ar
