@<TRIPOS>MOLECULE
2uxj_U10_M_1.pdb
 48 48 0 0 0
SMALL
GASTEIGER

@<TRIPOS>ATOM
      1  C1       -32.4190  -10.4920 -159.8200 C.2   1314  U101314     0.0198
      2  C2       -32.5230   -9.0970 -159.8270 C.2   1314  U101314     0.2282
      3  C3       -32.5100   -8.3990 -161.0620 C.2   1314  U101314     0.2140
      4  C4       -32.4100   -9.1080 -162.2960 C.2   1314  U101314     0.2140
      5  C5       -32.3070  -10.5160 -162.2770 C.2   1314  U101314     0.2285
      6  C6       -32.3070  -11.2050 -161.0340 C.2   1314  U101314     0.0235
      7  C1M      -32.4400  -11.2040 -158.4840 C.3   1314  U101314     0.0343
      8  C3M      -33.3410   -6.2720 -160.7810 C.3   1314  U101314     0.2528
      9  C4M      -32.8270   -7.3820 -163.8640 C.3   1314  U101314     0.2528
     10  C7       -32.1090  -12.7190 -161.0110 C.3   1314  U101314     0.0548
     11  C8       -33.4130  -13.3620 -160.5760 C.2   1314  U101314    -0.0298
     12  C9       -34.2610  -14.1950 -161.4470 C.2   1314  U101314    -0.0475
     13  C10      -33.8910  -14.4540 -162.8990 C.3   1314  U101314     0.0260
     14  C11      -35.5170  -14.7690 -160.8330 C.3   1314  U101314     0.0264
     15  C12      -35.6010  -16.2770 -160.9490 C.3   1314  U101314     0.0297
     16  C13      -34.6030  -16.8200 -159.9660 C.2   1314  U101314    -0.0343
     17  C14      -35.0100  -17.6820 -158.8460 C.2   1314  U101314    -0.0482
     18  C15      -36.4550  -18.0610 -158.6670 C.3   1314  U101314     0.0260
     19  C16      -33.9360  -18.1830 -157.9060 C.3   1314  U101314     0.0217
     20  C17      -33.5950  -19.6550 -158.0980 C.3   1314  U101314     0.0043
     21  C18      -32.9710  -19.9390 -159.4430 C.3   1314  U101314     0.0003
     22  C19      -32.7750  -21.3220 -159.9270 C.3   1314  U101314     0.0000
     23  C20      -33.4950  -22.4670 -159.2680 C.3   1314  U101314     0.0000
     24  C21      -31.8560  -21.6040 -161.0980 C.3   1314  U101314     0.0000
     25  C22      -30.4700  -22.0040 -160.6040 C.3   1314  U101314     0.0000
     26  C23      -29.6400  -22.5620 -161.7410 C.3   1314  U101314     0.0000
     27  C24      -28.1670  -22.6160 -161.6510 C.3   1314  U101314     0.0000
     28  C25      -27.4980  -22.5890 -160.3020 C.3   1314  U101314     0.0000
     29  C26      -27.3120  -22.6840 -162.9080 C.3   1314  U101314     0.0000
     30  C27      -26.9990  -24.1140 -163.3360 C.3   1314  U101314     0.0000
     31  C28      -26.0180  -24.0740 -164.4920 C.3   1314  U101314     0.0000
     32  C29      -24.8910  -25.0270 -164.6690 C.3   1314  U101314     0.0000
     33  C30      -24.7760  -25.7570 -165.9880 C.3   1314  U101314     0.0000
     34  C31      -23.8640  -25.2600 -163.5540 C.3   1314  U101314     0.0000
     35  C32      -22.4720  -25.6820 -164.0690 C.3   1314  U101314     0.0000
     36  C33      -21.4340  -24.5750 -163.9410 C.3   1314  U101314     0.0000
     37  C34      -21.3650  -23.4270 -164.8720 C.3   1314  U101314     0.0003
     38  C35      -22.6290  -22.8120 -165.4030 C.3   1314  U101314     0.0000
     39  C36      -20.0300  -22.8610 -165.3110 C.3   1314  U101314     0.0046
     40  C37      -20.0160  -22.6390 -166.8270 C.3   1314  U101314     0.0254
     41  C38      -19.0880  -23.6320 -167.5000 C.2   1314  U101314    -0.0346
     42  C39      -19.4960  -24.5670 -168.5710 C.2   1314  U101314    -0.0478
     43  C40      -20.9300  -24.6990 -169.0290 C.3   1314  U101314     0.0260
     44  C41      -18.4200  -25.4120 -169.2210 C.3   1314  U101314     0.0260
     45  O2       -32.5560   -8.4650 -158.7320 O.2   1314  U101314    -0.2836
     46  O3       -32.2670   -7.1670 -161.0180 O.2   1314  U101314    -0.4652
     47  O4       -32.1240   -8.5290 -163.3830 O.2   1314  U101314    -0.4652
     48  O5       -31.9000  -11.0900 -163.3110 O.2   1314  U101314    -0.2835
@<TRIPOS>BOND
     1    44    42    1
     2    43    42    1
     3    42    41    2
     4    41    40    1
     5    40    39    1
     6    33    32    1
     7    38    37    1
     8    39    37    1
     9    37    36    1
    10    32    31    1
    11    32    34    1
    12    31    30    1
    13    35    36    1
    14    35    34    1
    15     9    47    1
    16    47     4    1
    17    30    29    1
    18    48     5    2
    19    29    27    1
    20    13    12    1
    21     4     5    1
    22     4     3    2
    23     5     6    1
    24    26    27    1
    25    26    25    1
    26    27    28    1
    27    12    14    1
    28    12    11    2
    29    24    25    1
    30    24    22    1
    31     3    46    1
    32     3     2    1
    33     6    10    1
    34     6     1    2
    35    46     8    1
    36    10    11    1
    37    15    14    1
    38    15    16    1
    39    16    17    2
    40    22    21    1
    41    22    23    1
    42     2     1    1
    43     2    45    2
    44     1     7    1
    45    21    20    1
    46    17    18    1
    47    17    19    1
    48    20    19    1
