@<TRIPOS>MOLECULE
2uxj_SPO_M_1.pdb
 42 41 0 0 0
SMALL
GASTEIGER

@<TRIPOS>ATOM
      1  CM1      -50.8430   -5.5020 -120.2560 C.3   1315  SPO1315     0.1739
      2  O1       -52.2030   -5.9600 -120.4130 O.3   1315  SPO1315    -0.3555
      3  C1       -53.0670   -5.4100 -121.4190 C.3   1315  SPO1315     0.0970
      4  C2       -53.1300   -3.8920 -121.2350 C.3   1315  SPO1315     0.0300
      5  C3       -54.4560   -6.0160 -121.2480 C.3   1315  SPO1315     0.0300
      6  C4       -52.5600   -5.6730 -122.8560 C.3   1315  SPO1315     0.0529
      7  C5       -51.8980   -7.0180 -123.0560 C.2   1315  SPO1315    -0.0283
      8  C6       -52.5390   -7.9680 -123.9450 C.2   1315  SPO1315    -0.0306
      9  C7       -51.9080   -9.2530 -124.2760 C.3   1315  SPO1315     0.0260
     10  C8       -50.8350   -9.8240 -123.3840 C.3   1315  SPO1315     0.0050
     11  C9       -52.3860   -9.9620 -125.4800 C.3   1315  SPO1315     0.0303
     12  C10      -51.6050  -11.0670 -126.0240 C.2   1315  SPO1315    -0.0261
     13  C11      -51.8520  -11.5010 -127.3910 C.2   1315  SPO1315    -0.0088
     14  C12      -51.4270  -12.8370 -127.8810 C.2   1315  SPO1315    -0.0222
     15  C13      -50.5190  -13.7470 -127.0980 C.3   1315  SPO1315     0.0310
     16  C14      -51.9230  -13.2520 -129.2000 C.2   1315  SPO1315    -0.0046
     17  C15      -51.3630  -14.3990 -129.8940 C.2   1315  SPO1315    -0.0046
     18  C16      -51.9680  -14.6980 -131.1740 C.2   1315  SPO1315    -0.0221
     19  C17      -51.5230  -15.8490 -131.9670 C.3   1315  SPO1315     0.0440
     20  C18      -50.2210  -16.5520 -131.6820 C.3   1315  SPO1315     0.0094
     21  C19      -52.4120  -16.2710 -133.0450 C.2   1315  SPO1315    -0.0221
     22  C20      -51.9980  -17.2990 -133.9400 C.2   1315  SPO1315    -0.0043
     23  C21      -52.9940  -17.8430 -134.8420 C.2   1315  SPO1315    -0.0006
     24  C22      -54.2820  -17.1980 -134.9070 C.2   1315  SPO1315    -0.0043
     25  C23      -55.2490  -17.6280 -135.9230 C.2   1315  SPO1315    -0.0219
     26  C24      -54.9160  -18.6440 -136.9850 C.3   1315  SPO1315     0.0310
     27  C25      -56.5610  -16.9960 -135.8520 C.2   1315  SPO1315    -0.0046
     28  C26      -57.6560  -17.3080 -136.7570 C.2   1315  SPO1315    -0.0049
     29  C27      -58.8010  -16.4170 -136.6680 C.2   1315  SPO1315    -0.0265
     30  C28      -59.8920  -16.4390 -137.6350 C.3   1315  SPO1315     0.0224
     31  C29      -59.6710  -17.0010 -139.0220 C.3   1315  SPO1315     0.0047
     32  C30      -61.2150  -15.8480 -137.1840 C.3   1315  SPO1315     0.0090
     33  C31      -62.3520  -16.8380 -137.4220 C.3   1315  SPO1315     0.0257
     34  C32      -63.6630  -16.2200 -137.0270 C.2   1315  SPO1315    -0.0346
     35  C33      -64.5650  -16.7730 -135.9920 C.2   1315  SPO1315    -0.0482
     36  C34      -64.2500  -18.0910 -135.3360 C.3   1315  SPO1315     0.0260
     37  C35      -65.8020  -15.9750 -135.5990 C.3   1315  SPO1315     0.0217
     38  C36      -67.0790  -16.5510 -136.2000 C.3   1315  SPO1315     0.0043
     39  C37      -68.0260  -15.4520 -136.6740 C.3   1315  SPO1315     0.0003
     40  C38      -68.0790  -14.9550 -138.0840 C.3   1315  SPO1315     0.0000
     41  C39      -68.7320  -15.7560 -139.1830 C.3   1315  SPO1315     0.0000
     42  C40      -67.4910  -13.6160 -138.4420 C.3   1315  SPO1315     0.0000
@<TRIPOS>BOND
     1    41    40    1
     2    31    30    1
     3    42    40    1
     4    40    39    1
     5    30    32    1
     6    30    29    1
     7    33    32    1
     8    33    34    1
     9    34    35    2
    10    26    25    1
    11    28    29    2
    12    28    27    1
    13    39    38    1
    14    38    37    1
    15    35    37    1
    16    35    36    1
    17    25    27    2
    18    25    24    1
    19    24    23    2
    20    23    22    1
    21    22    21    2
    22    21    19    1
    23    19    20    1
    24    19    18    1
    25    18    17    2
    26    17    16    1
    27    16    14    2
    28    14    13    1
    29    14    15    1
    30    13    12    2
    31    12    11    1
    32    11     9    1
    33     9     8    1
    34     9    10    1
    35     8     7    2
    36     7     6    1
    37     6     3    1
    38     3     5    1
    39     3     4    1
    40     3     2    1
    41     2     1    1
