@<TRIPOS>MOLECULE
2uxj_UQ2_L_1.pdb
 23 23 0 0 0
SMALL
GASTEIGER

@<TRIPOS>ATOM
      1  C1       -41.8920   -0.4340 -145.5350 C.2   1286  UQ21286     0.1987
      2  C2       -41.9990   -0.5640 -146.9460 C.3   1286  UQ21286     0.2104
      3  C3       -42.0180   -1.8270 -147.5320 C.3   1286  UQ21286     0.2104
      4  C4       -41.9550   -3.0020 -146.7420 C.2   1286  UQ21286     0.1987
      5  C5       -41.8540   -2.8770 -145.3370 C.2   1286  UQ21286     0.0142
      6  C6       -41.8200   -1.5980 -144.7170 C.2   1286  UQ21286     0.0139
      7  CM2      -41.7960    1.2970 -148.3620 C.3   1286  UQ21286     0.1747
      8  CM3      -43.0310   -2.3770 -149.5160 C.3   1286  UQ21286     0.1747
      9  CM5      -41.7650   -4.1420 -144.5260 C.3   1286  UQ21286     0.0339
     10  C7       -41.7230   -1.4840 -143.1960 C.3   1286  UQ21286     0.0291
     11  C8       -40.2800   -1.3450 -142.7510 C.3   1286  UQ21286     0.0048
     12  C9       -39.7540   -1.2330 -141.3530 C.3   1286  UQ21286     0.0003
     13  C10      -38.3530   -1.6720 -141.0040 C.3   1286  UQ21286     0.0000
     14  C11      -40.5460   -0.6680 -140.2050 C.3   1286  UQ21286     0.0000
     15  C12      -39.5910   -0.4220 -139.0300 C.3   1286  UQ21286     0.0000
     16  C13      -39.5230    1.0560 -138.7060 C.3   1286  UQ21286     0.0000
     17  C14      -40.4980    1.6980 -137.8100 C.3   1286  UQ21286     0.0000
     18  C15      -41.7240    2.3470 -138.3810 C.3   1286  UQ21286     0.0000
     19  C16      -40.2710    1.7040 -136.3160 C.3   1286  UQ21286     0.0000
     20  O1       -41.4660    0.6580 -145.1020 O.2   1286  UQ21286    -0.2890
     21  O2       -42.5160    0.3550 -147.6230 O.3   1286  UQ21286    -0.3429
     22  O3       -41.9320   -1.8870 -148.7620 O.3   1286  UQ21286    -0.3429
     23  O4       -42.0600   -4.1370 -147.2800 O.2   1286  UQ21286    -0.2890
@<TRIPOS>BOND
     1     8    22    1
     2    22     3    1
     3     7    21    1
     4    21     2    1
     5     3     2    1
     6     3     4    1
     7    23     4    2
     8     2     1    1
     9     4     5    1
    10     1    20    2
    11     1     6    1
    12     5     6    2
    13     5     9    1
    14     6    10    1
    15    10    11    1
    16    11    12    1
    17    12    13    1
    18    12    14    1
    19    14    15    1
    20    15    16    1
    21    16    17    1
    22    18    17    1
    23    17    19    1
