@<TRIPOS>MOLECULE
2uxk_UQ2_L_1.pdb
 23 23 0 0 0
SMALL
GASTEIGER

@<TRIPOS>ATOM
      1  C1       -41.9510    0.0530 -146.0450 C.2   1288  UQ21288     0.1990
      2  C2       -42.0800   -0.0870 -147.4390 C.3   1288  UQ21288     0.2105
      3  C3       -42.2550   -1.3910 -147.9690 C.3   1288  UQ21288     0.2104
      4  C4       -42.2800   -2.4990 -147.0990 C.2   1288  UQ21288     0.1987
      5  C5       -42.1480   -2.3410 -145.7250 C.2   1288  UQ21288     0.0145
      6  C6       -41.9790   -1.0530 -145.1770 C.2   1288  UQ21288     0.0182
      7  CM2      -42.0060    1.4400 -149.2230 C.3   1288  UQ21288     0.1747
      8  CM3      -43.3550   -2.0020 -149.9240 C.3   1288  UQ21288     0.1747
      9  CM5      -42.1870   -3.5900 -144.8820 C.3   1288  UQ21288     0.0339
     10  C7       -42.0380   -0.8300 -143.6670 C.3   1288  UQ21288     0.0544
     11  C8       -40.6460   -0.6590 -143.0790 C.2   1288  UQ21288    -0.0298
     12  C9       -40.3360   -0.5200 -141.6260 C.2   1288  UQ21288    -0.0478
     13  C10      -38.8990   -0.6100 -141.1660 C.3   1288  UQ21288     0.0260
     14  C11      -41.4340   -0.2850 -140.6000 C.3   1288  UQ21288     0.0217
     15  C12      -40.9190    0.3520 -139.2940 C.3   1288  UQ21288     0.0043
     16  C13      -41.2640    1.8310 -139.2240 C.3   1288  UQ21288     0.0003
     17  C14      -41.1840    2.6220 -137.9790 C.3   1288  UQ21288     0.0000
     18  C15      -40.1760    2.3050 -136.8980 C.3   1288  UQ21288     0.0000
     19  C16      -42.1240    3.7710 -137.7700 C.3   1288  UQ21288     0.0000
     20  O1       -41.8330    1.1900 -145.5770 O.2   1288  UQ21288    -0.2890
     21  O2       -42.5400    0.9070 -148.0400 O.3   1288  UQ21288    -0.3429
     22  O3       -42.2050   -1.6070 -149.1960 O.3   1288  UQ21288    -0.3429
     23  O4       -42.2890   -3.6420 -147.5550 O.2   1288  UQ21288    -0.2890
@<TRIPOS>BOND
     1     8    22    1
     2     7    21    1
     3    22     3    1
     4    21     2    1
     5     3     2    1
     6     3     4    1
     7    23     4    2
     8     2     1    1
     9     4     5    1
    10     1    20    2
    11     1     6    1
    12     5     6    2
    13     5     9    1
    14     6    10    1
    15    10    11    1
    16    11    12    2
    17    12    13    1
    18    12    14    1
    19    14    15    1
    20    15    16    1
    21    16    17    1
    22    17    19    1
    23    17    18    1
