@<TRIPOS>MOLECULE
2uxk_SPO_M_1.pdb
 42 41 0 0 0
SMALL
GASTEIGER

@<TRIPOS>ATOM
      1  CM1      -50.8290   -5.0300 -120.6090 C.3   1313  SPO1313     0.1739
      2  O1       -52.1330   -5.6100 -120.6990 O.3   1313  SPO1313    -0.3555
      3  C1       -53.0770   -5.1710 -121.6850 C.3   1313  SPO1313     0.0970
      4  C2       -53.3110   -3.6640 -121.5160 C.3   1313  SPO1313     0.0300
      5  C3       -54.4140   -5.8860 -121.5130 C.3   1313  SPO1313     0.0300
      6  C4       -52.5170   -5.4800 -123.0760 C.3   1313  SPO1313     0.0529
      7  C5       -51.9860   -6.9030 -123.1900 C.2   1313  SPO1313    -0.0280
      8  C6       -52.4020   -7.7550 -124.2940 C.2   1313  SPO1313    -0.0266
      9  C7       -51.8220   -9.0900 -124.5450 C.3   1313  SPO1313     0.0436
     10  C8       -50.7730   -9.7180 -123.6690 C.3   1313  SPO1313     0.0094
     11  C9       -52.3100   -9.8280 -125.7120 C.2   1313  SPO1313    -0.0221
     12  C10      -51.4200  -10.7330 -126.4190 C.2   1313  SPO1313    -0.0046
     13  C11      -51.9430  -11.3520 -127.6220 C.2   1313  SPO1313    -0.0046
     14  C12      -51.3660  -12.5880 -128.1690 C.2   1313  SPO1313    -0.0219
     15  C13      -50.2780  -13.3540 -127.4690 C.3   1313  SPO1313     0.0310
     16  C14      -51.9150  -13.0290 -129.4470 C.2   1313  SPO1313    -0.0043
     17  C15      -51.3150  -14.0960 -130.2110 C.2   1313  SPO1313    -0.0006
     18  C16      -51.9810  -14.4490 -131.4500 C.2   1313  SPO1313    -0.0043
     19  C17      -51.4340  -15.5470 -132.2600 C.2   1313  SPO1313    -0.0218
     20  C18      -50.1090  -16.1600 -131.8860 C.3   1313  SPO1313     0.0310
     21  C19      -52.2350  -15.9960 -133.4130 C.2   1313  SPO1313    -0.0043
     22  C20      -51.8760  -17.1700 -134.1850 C.2   1313  SPO1313    -0.0003
     23  C21      -52.8600  -17.6940 -135.1170 C.2   1313  SPO1313    -0.0003
     24  C22      -54.1660  -17.0570 -135.1720 C.2   1313  SPO1313    -0.0043
     25  C23      -55.1850  -17.4930 -136.1350 C.2   1313  SPO1313    -0.0219
     26  C24      -54.8700  -18.4890 -137.2100 C.3   1313  SPO1313     0.0310
     27  C25      -56.5190  -16.8990 -136.0060 C.2   1313  SPO1313    -0.0046
     28  C26      -57.5550  -17.0160 -137.0310 C.2   1313  SPO1313    -0.0049
     29  C27      -58.7870  -16.2440 -136.8690 C.2   1313  SPO1313    -0.0265
     30  C28      -59.8860  -16.3050 -137.8430 C.3   1313  SPO1313     0.0224
     31  C29      -59.6770  -16.8780 -139.2240 C.3   1313  SPO1313     0.0047
     32  C30      -61.2250  -15.7440 -137.4240 C.3   1313  SPO1313     0.0090
     33  C31      -62.3350  -16.7720 -137.6140 C.3   1313  SPO1313     0.0257
     34  C32      -63.6420  -16.1580 -137.1780 C.2   1313  SPO1313    -0.0346
     35  C33      -64.5180  -16.7150 -136.1220 C.2   1313  SPO1313    -0.0478
     36  C34      -64.1870  -18.0170 -135.4570 C.3   1313  SPO1313     0.0260
     37  C35      -65.7670  -15.9500 -135.7100 C.3   1313  SPO1313     0.0263
     38  C36      -66.9590  -16.3570 -136.5680 C.3   1313  SPO1313     0.0297
     39  C37      -68.0160  -15.2610 -136.5680 C.2   1313  SPO1313    -0.0342
     40  C38      -68.5300  -14.5840 -137.7960 C.2   1313  SPO1313    -0.0478
     41  C39      -67.9870  -14.8560 -139.1770 C.3   1313  SPO1313     0.0260
     42  C40      -69.6440  -13.5790 -137.6610 C.3   1313  SPO1313     0.0260
@<TRIPOS>BOND
     1    31    30    1
     2    41    40    1
     3    30    32    1
     4    30    29    1
     5    40    42    1
     6    40    39    2
     7    33    32    1
     8    33    34    1
     9    26    25    1
    10    34    35    2
    11    28    29    2
    12    28    27    1
    13    38    39    1
    14    38    37    1
    15    25    27    2
    16    25    24    1
    17    35    37    1
    18    35    36    1
    19    24    23    2
    20    23    22    1
    21    22    21    2
    22    21    19    1
    23    19    20    1
    24    19    18    2
    25    18    17    1
    26    17    16    2
    27    16    14    1
    28    14    13    2
    29    14    15    1
    30    13    12    1
    31    12    11    2
    32    11     9    1
    33     9     8    1
    34     9    10    1
    35     8     7    2
    36     7     6    1
    37     6     3    1
    38     3     4    1
    39     3     5    1
    40     3     2    1
    41     2     1    1
