@<TRIPOS>MOLECULE
2uxk_U10_M_1.pdb
 48 48 0 0 0
SMALL
GASTEIGER

@<TRIPOS>ATOM
      1  C1       -32.6190   -9.9640 -160.2150 C.2   1312  U101312     0.0198
      2  C2       -32.7100   -8.5620 -160.2210 C.2   1312  U101312     0.2282
      3  C3       -32.7190   -7.8600 -161.4480 C.2   1312  U101312     0.2140
      4  C4       -32.6630   -8.5650 -162.6610 C.2   1312  U101312     0.2140
      5  C5       -32.5720   -9.9690 -162.6320 C.2   1312  U101312     0.2285
      6  C6       -32.5520  -10.6750 -161.4210 C.2   1312  U101312     0.0235
      7  C1M      -32.5970  -10.6750 -158.8890 C.3   1312  U101312     0.0343
      8  C3M      -33.5480   -5.7370 -161.3200 C.3   1312  U101312     0.2528
      9  C4M      -33.1310   -7.0030 -164.3810 C.3   1312  U101312     0.2528
     10  C7       -32.4350  -12.2060 -161.4530 C.3   1312  U101312     0.0548
     11  C8       -33.7150  -12.9180 -161.0500 C.2   1312  U101312    -0.0298
     12  C9       -34.5720  -13.6880 -161.9660 C.2   1312  U101312    -0.0475
     13  C10      -34.1780  -13.8920 -163.4020 C.3   1312  U101312     0.0260
     14  C11      -35.8730  -14.2810 -161.4520 C.3   1312  U101312     0.0264
     15  C12      -35.8150  -15.8080 -161.3100 C.3   1312  U101312     0.0297
     16  C13      -34.8220  -16.2080 -160.2450 C.2   1312  U101312    -0.0342
     17  C14      -35.1600  -17.1690 -159.1780 C.2   1312  U101312    -0.0478
     18  C15      -36.5690  -17.6270 -158.9870 C.3   1312  U101312     0.0260
     19  C16      -34.0680  -17.7070 -158.2770 C.3   1312  U101312     0.0263
     20  C17      -33.8420  -19.2010 -158.5190 C.3   1312  U101312     0.0297
     21  C18      -33.0780  -19.4640 -159.7980 C.2   1312  U101312    -0.0342
     22  C19      -33.0080  -20.8230 -160.3840 C.2   1312  U101312    -0.0478
     23  C20      -33.7790  -21.9600 -159.7810 C.3   1312  U101312     0.0260
     24  C21      -32.1620  -21.1010 -161.6060 C.3   1312  U101312     0.0263
     25  C22      -30.8290  -21.6750 -161.1520 C.3   1312  U101312     0.0297
     26  C23      -29.9760  -22.0160 -162.3480 C.2   1312  U101312    -0.0343
     27  C24      -28.5100  -22.0760 -162.2450 C.2   1312  U101312    -0.0482
     28  C25      -27.8320  -22.0680 -160.9030 C.3   1312  U101312     0.0260
     29  C26      -27.6820  -22.1430 -163.5090 C.3   1312  U101312     0.0217
     30  C27      -27.4620  -23.6020 -163.8890 C.3   1312  U101312     0.0043
     31  C28      -26.4120  -23.6750 -164.9690 C.3   1312  U101312     0.0003
     32  C29      -25.5070  -24.8330 -165.0970 C.3   1312  U101312     0.0000
     33  C30      -25.6580  -25.7120 -166.3160 C.3   1312  U101312     0.0000
     34  C31      -24.4600  -25.1200 -164.0160 C.3   1312  U101312     0.0000
     35  C32      -23.0540  -25.4020 -164.5790 C.3   1312  U101312     0.0000
     36  C33      -22.1230  -24.2030 -164.4270 C.3   1312  U101312     0.0000
     37  C34      -21.9850  -23.1450 -165.4560 C.3   1312  U101312     0.0000
     38  C35      -23.1800  -22.7320 -166.2690 C.3   1312  U101312     0.0000
     39  C36      -20.6440  -22.4690 -165.6930 C.3   1312  U101312     0.0000
     40  C37      -20.4910  -22.0840 -167.1660 C.3   1312  U101312     0.0000
     41  C38      -19.2870  -22.7660 -167.7760 C.3   1312  U101312     0.0000
     42  C39      -19.3620  -23.8800 -168.7410 C.3   1312  U101312     0.0000
     43  C40      -20.6110  -24.1680 -169.5330 C.3   1312  U101312     0.0000
     44  C41      -18.1350  -24.7490 -168.9320 C.3   1312  U101312     0.0000
     45  O2       -32.9110   -7.9490 -159.1560 O.2   1312  U101312    -0.2836
     46  O3       -32.4670   -6.6460 -161.4440 O.2   1312  U101312    -0.4652
     47  O4       -32.3420   -7.9750 -163.7230 O.2   1312  U101312    -0.4652
     48  O5       -32.3390  -10.5740 -163.6930 O.2   1312  U101312    -0.2835
@<TRIPOS>BOND
     1    43    42    1
     2    44    42    1
     3    42    41    1
     4    41    40    1
     5    40    39    1
     6    33    32    1
     7    38    37    1
     8    39    37    1
     9    37    36    1
    10    32    31    1
    11    32    34    1
    12    31    30    1
    13    35    36    1
    14    35    34    1
    15     9    47    1
    16    30    29    1
    17    47     4    1
    18    48     5    2
    19    29    27    1
    20    13    12    1
    21     4     5    1
    22     4     3    2
    23     5     6    1
    24    26    27    2
    25    26    25    1
    26    27    28    1
    27    12    14    1
    28    12    11    2
    29    24    25    1
    30    24    22    1
    31    10     6    1
    32    10    11    1
    33    14    15    1
    34     3    46    1
    35     3     2    1
    36    46     8    1
    37     6     1    2
    38    15    16    1
    39    22    21    2
    40    22    23    1
    41    16    17    2
    42     2     1    1
    43     2    45    2
    44     1     7    1
    45    21    20    1
    46    17    18    1
    47    17    19    1
    48    20    19    1
