@<TRIPOS>MOLECULE
2uxl_SPO_M_1.pdb
 42 41 0 0 0
SMALL
GASTEIGER

@<TRIPOS>ATOM
      1  CM1       44.6670   82.8040   55.0590 C.3   1311  SPO1311     0.1739
      2  O1        45.5440   83.8810   54.6760 O.3   1311  SPO1311    -0.3555
      3  C1        46.3870   83.8910   53.5070 C.3   1311  SPO1311     0.0970
      4  C2        47.3390   82.7040   53.5870 C.3   1311  SPO1311     0.0300
      5  C3        47.2210   85.1610   53.4480 C.3   1311  SPO1311     0.0300
      6  C4        45.5480   83.8040   52.2280 C.3   1311  SPO1311     0.0529
      7  C5        44.3770   84.7640   52.2530 C.2   1311  SPO1311    -0.0280
      8  C6        44.0640   85.5900   51.0810 C.2   1311  SPO1311    -0.0266
      9  C7        42.8700   86.4730   51.0050 C.3   1311  SPO1311     0.0433
     10  C8        41.7710   86.3960   52.0290 C.3   1311  SPO1311     0.0094
     11  C9        42.7630   87.4500   49.9090 C.2   1311  SPO1311    -0.0267
     12  C10       41.7310   87.3150   48.8890 C.2   1311  SPO1311    -0.0301
     13  C11       41.7390   88.2560   47.7590 C.3   1311  SPO1311     0.0300
     14  C12       40.5780   89.0900   47.3470 C.3   1311  SPO1311     0.0260
     15  C13       39.4410   89.3640   48.3020 C.3   1311  SPO1311     0.0050
     16  C14       40.5640   89.6410   45.9770 C.2   1311  SPO1311    -0.0307
     17  C15       39.3120   89.9590   45.3150 C.2   1311  SPO1311    -0.0304
     18  C16       39.3620   90.3310   43.9050 C.3   1311  SPO1311     0.0300
     19  C17       38.5140   91.3680   43.2730 C.3   1311  SPO1311     0.0264
     20  C18       37.1140   91.5890   43.7320 C.3   1311  SPO1311     0.0050
     21  C19       39.0400   92.1790   42.1760 C.2   1311  SPO1311    -0.0261
     22  C20       38.2120   92.4800   41.0190 C.2   1311  SPO1311    -0.0049
     23  C21       38.6280   93.4770   40.0280 C.2   1311  SPO1311    -0.0049
     24  C22       39.9980   93.5370   39.5210 C.2   1311  SPO1311    -0.0261
     25  C23       40.3500   94.5150   38.4740 C.3   1311  SPO1311     0.0264
     26  C24       39.3230   94.9410   37.4580 C.3   1311  SPO1311     0.0050
     27  C25       41.7190   95.0780   38.4020 C.3   1311  SPO1311     0.0300
     28  C26       42.5640   94.9570   37.2040 C.2   1311  SPO1311    -0.0304
     29  C27       43.9890   95.2880   37.2940 C.2   1311  SPO1311    -0.0310
     30  C28       44.8530   95.5280   36.1170 C.3   1311  SPO1311     0.0220
     31  C29       44.2590   95.6610   34.7440 C.3   1311  SPO1311     0.0047
     32  C30       46.3520   95.6200   36.3140 C.3   1311  SPO1311     0.0090
     33  C31       46.8630   96.9850   35.8770 C.3   1311  SPO1311     0.0257
     34  C32       48.3190   97.0550   36.2490 C.2   1311  SPO1311    -0.0346
     35  C33       48.9360   98.1020   37.1010 C.2   1311  SPO1311    -0.0482
     36  C34       48.1240   99.1550   37.8120 C.3   1311  SPO1311     0.0260
     37  C35       50.4450   98.0940   37.2770 C.3   1311  SPO1311     0.0217
     38  C36       51.1870   98.7760   36.1220 C.3   1311  SPO1311     0.0043
     39  C37       52.6300   98.3070   36.1330 C.3   1311  SPO1311     0.0003
     40  C38       53.2350   97.6590   34.9410 C.3   1311  SPO1311     0.0000
     41  C39       52.3880   96.8790   33.9620 C.3   1311  SPO1311     0.0000
     42  C40       54.7210   97.7930   34.7070 C.3   1311  SPO1311     0.0000
@<TRIPOS>BOND
     1    41    40    1
     2    42    40    1
     3    31    30    1
     4    40    39    1
     5    33    34    1
     6    33    32    1
     7    30    32    1
     8    30    29    1
     9    38    39    1
    10    38    37    1
    11    34    35    2
    12    35    37    1
    13    35    36    1
    14    28    29    2
    15    28    27    1
    16    26    25    1
    17    27    25    1
    18    25    24    1
    19    24    23    2
    20    23    22    1
    21    22    21    2
    22    21    19    1
    23    19    20    1
    24    19    18    1
    25    18    17    1
    26    17    16    2
    27    16    14    1
    28    14    13    1
    29    14    15    1
    30    13    12    1
    31    12    11    2
    32    11     9    1
    33     9     8    1
    34     9    10    1
    35     8     7    2
    36     6     7    1
    37     6     3    1
    38     5     3    1
    39     3     4    1
    40     3     2    1
    41     2     1    1
