@<TRIPOS>MOLECULE
2uxl_U10_M_1.pdb
 48 48 0 0 0
SMALL
GASTEIGER

@<TRIPOS>ATOM
      1  C1        20.7290   75.0460   18.1650 C.2   1310  U101310     0.0145
      2  C2        21.5390   73.8910   18.1880 C.2   1310  U101310     0.1987
      3  C3        21.8150   73.1640   16.9980 C.3   1310  U101310     0.2104
      4  C4        21.2560   73.6110   15.7740 C.3   1310  U101310     0.2105
      5  C5        20.4600   74.7790   15.7860 C.2   1310  U101310     0.1990
      6  C6        20.1880   75.4940   16.9580 C.2   1310  U101310     0.0182
      7  C1M       20.4420   75.7980   19.4440 C.3   1310  U101310     0.0339
      8  C3M       23.6320   71.7430   17.2950 C.3   1310  U101310     0.1747
      9  C4M       22.1640   72.4630   13.9290 C.3   1310  U101310     0.1747
     10  C7        19.4770   76.8200   16.8770 C.3   1310  U101310     0.0544
     11  C8        20.4540   77.9410   17.0970 C.2   1310  U101310    -0.0298
     12  C9        20.6540   79.0260   16.1310 C.2   1310  U101310    -0.0475
     13  C10       20.0240   78.9330   14.7610 C.3   1310  U101310     0.0260
     14  C11       21.5430   80.1970   16.5430 C.3   1310  U101310     0.0264
     15  C12       20.9790   81.5900   16.2610 C.3   1310  U101310     0.0297
     16  C13       19.8040   81.8330   17.1940 C.2   1310  U101310    -0.0342
     17  C14       19.8560   82.5760   18.4730 C.2   1310  U101310    -0.0478
     18  C15       21.0730   83.2990   18.9160 C.3   1310  U101310     0.0260
     19  C16       18.6520   82.6210   19.3610 C.3   1310  U101310     0.0263
     20  C17       17.8760   83.8950   19.0570 C.3   1310  U101310     0.0297
     21  C18       16.6520   83.5890   18.2180 C.2   1310  U101310    -0.0343
     22  C19       15.8370   84.7030   17.7040 C.2   1310  U101310    -0.0482
     23  C20       16.0250   86.1150   18.1670 C.3   1310  U101310     0.0260
     24  C21       14.7770   84.4460   16.6760 C.3   1310  U101310     0.0217
     25  C22       13.5190   83.8700   17.3260 C.3   1310  U101310     0.0043
     26  C23       12.3230   84.2260   16.4730 C.3   1310  U101310     0.0003
     27  C24       11.0810   83.4540   16.5970 C.3   1310  U101310     0.0000
     28  C25       10.5380   83.2040   17.9770 C.3   1310  U101310     0.0000
     29  C26       10.3860   82.9220   15.3530 C.3   1310  U101310     0.0000
     30  C27        9.3450   83.8880   14.8080 C.3   1310  U101310     0.0000
     31  C28        7.9780   83.5860   15.4000 C.3   1310  U101310     0.0000
     32  C29        6.8580   83.0690   14.5720 C.3   1310  U101310     0.0000
     33  C30        6.7630   83.4340   13.1050 C.3   1310  U101310     0.0000
     34  C31        5.8200   82.1550   15.2330 C.3   1310  U101310     0.0000
     35  C32        4.4630   81.9540   14.5240 C.3   1310  U101310     0.0000
     36  C33        3.9810   80.5030   14.4830 C.3   1310  U101310     0.0000
     37  C34        3.3930   80.0180   13.2030 C.3   1310  U101310     0.0000
     38  C35        4.1290   80.2720   11.9040 C.3   1310  U101310     0.0000
     39  C36        2.0440   79.3050   13.1560 C.3   1310  U101310     0.0000
     40  C37        1.3000   79.6610   11.8530 C.3   1310  U101310     0.0000
     41  C38       -0.1190   80.1870   12.0640 C.3   1310  U101310     0.0000
     42  C39       -1.3330   79.8020   11.2650 C.3   1310  U101310     0.0000
     43  C40       -1.2770   79.6530    9.7580 C.3   1310  U101310     0.0000
     44  C41       -2.6810   79.5730   11.9500 C.3   1310  U101310     0.0000
     45  O2        21.8750   73.4430   19.2940 O.2   1310  U101310    -0.2890
     46  O3        22.2740   72.0040   17.0480 O.3   1310  U101310    -0.3429
     47  O4        21.1080   72.8170   14.8050 O.3   1310  U101310    -0.3429
     48  O5        20.1920   75.3060   14.7100 O.2   1310  U101310    -0.2890
@<TRIPOS>BOND
     1    43    42    1
     2    42    44    1
     3    42    41    1
     4    40    41    1
     5    40    39    1
     6    38    37    1
     7    33    32    1
     8    39    37    1
     9    37    36    1
    10     9    47    1
    11    36    35    1
    12    35    34    1
    13    32    34    1
    14    32    31    1
    15    48     5    2
    16    13    12    1
    17    47     4    1
    18    30    29    1
    19    30    31    1
    20    29    27    1
    21     4     5    1
    22     4     3    1
    23     5     6    1
    24    12    14    1
    25    12    11    2
    26    15    14    1
    27    15    16    1
    28    26    27    1
    29    26    25    1
    30    27    28    1
    31    24    25    1
    32    24    22    1
    33    10     6    1
    34    10    11    1
    35     6     1    2
    36     3    46    1
    37     3     2    1
    38    46     8    1
    39    16    17    2
    40    22    23    1
    41    22    21    2
    42     1     2    1
    43     1     7    1
    44     2    45    2
    45    21    20    1
    46    17    18    1
    47    17    19    1
    48    20    19    1
