@<TRIPOS>MOLECULE
2uxl_UQ2_L_1.pdb
 23 23 0 0 0
SMALL
GASTEIGER

@<TRIPOS>ATOM
      1  C1        35.6890   71.7630   31.0880 C.2   1284  UQ21284     0.1987
      2  C2        35.6570   71.8020   29.6750 C.3   1284  UQ21284     0.2104
      3  C3        35.2550   72.9870   29.0270 C.3   1284  UQ21284     0.2104
      4  C4        34.8960   74.1230   29.7770 C.2   1284  UQ21284     0.1987
      5  C5        34.9580   74.0660   31.1810 C.2   1284  UQ21284     0.0142
      6  C6        35.3440   72.8900   31.8700 C.2   1284  UQ21284     0.0139
      7  CM2       36.1810   69.9320   28.3480 C.3   1284  UQ21284     0.1747
      8  CM3       35.7700   73.6770   26.8910 C.3   1284  UQ21284     0.1747
      9  CM5       34.5710   75.3090   31.9230 C.3   1284  UQ21284     0.0339
     10  C7        35.5340   72.9040   33.4050 C.3   1284  UQ21284     0.0291
     11  C8        34.7410   71.8500   34.1800 C.3   1284  UQ21284     0.0048
     12  C9        34.2170   71.9780   35.5730 C.3   1284  UQ21284     0.0003
     13  C10       33.4590   73.2230   36.0000 C.3   1284  UQ21284     0.0000
     14  C11       34.4040   70.8360   36.5810 C.3   1284  UQ21284     0.0000
     15  C12       34.4680   71.3150   38.0440 C.3   1284  UQ21284     0.0000
     16  C13       34.8620   70.2120   39.0060 C.3   1284  UQ21284     0.0000
     17  C14       35.8830   70.3640   40.0810 C.3   1284  UQ21284     0.0000
     18  C15       37.3390   70.0940   39.7750 C.3   1284  UQ21284     0.0000
     19  C16       35.4930   70.7610   41.5020 C.3   1284  UQ21284     0.0000
     20  O1        36.1850   70.7710   31.6300 O.2   1284  UQ21284    -0.2890
     21  O2        36.5030   71.1020   29.0770 O.3   1284  UQ21284    -0.3429
     22  O3        35.0080   72.9480   27.8180 O.3   1284  UQ21284    -0.3429
     23  O4        34.1810   75.0010   29.2580 O.2   1284  UQ21284    -0.2890
@<TRIPOS>BOND
     1     8    22    1
     2    22     3    1
     3     7    21    1
     4     3     2    1
     5     3     4    1
     6    21     2    1
     7    23     4    2
     8     2     1    1
     9     4     5    1
    10     1    20    2
    11     1     6    1
    12     5     6    2
    13     5     9    1
    14     6    10    1
    15    10    11    1
    16    11    12    1
    17    12    13    1
    18    12    14    1
    19    14    15    1
    20    15    16    1
    21    16    17    1
    22    18    17    1
    23    17    19    1
