@<TRIPOS>MOLECULE
2uxm_SPO_M_1.pdb
 42 41 0 0 0
SMALL
GASTEIGER

@<TRIPOS>ATOM
      1  CM1       43.5280   82.8600   55.7040 C.3   1316  SPO1316     0.1739
      2  O1        44.3100   84.0260   55.3690 O.3   1316  SPO1316    -0.3555
      3  C1        45.3320   84.0470   54.3500 C.3   1316  SPO1316     0.0970
      4  C2        46.2350   82.8130   54.4730 C.3   1316  SPO1316     0.0300
      5  C3        46.1900   85.2990   54.4960 C.3   1316  SPO1316     0.0300
      6  C4        44.6740   84.0500   52.9690 C.3   1316  SPO1316     0.0529
      7  C5        43.3920   84.8550   52.9410 C.2   1316  SPO1316    -0.0280
      8  C6        43.3260   86.1070   52.1900 C.2   1316  SPO1316    -0.0266
      9  C7        42.0150   86.6890   51.8340 C.3   1316  SPO1316     0.0436
     10  C8        40.8340   86.5540   52.7600 C.3   1316  SPO1316     0.0094
     11  C9        41.8800   87.4080   50.5520 C.2   1316  SPO1316    -0.0221
     12  C10       40.5850   87.8860   50.0780 C.2   1316  SPO1316    -0.0049
     13  C11       40.5860   88.7650   48.9100 C.2   1316  SPO1316    -0.0085
     14  C12       39.3870   89.4400   48.3510 C.2   1316  SPO1316    -0.0396
     15  C13       38.1070   89.5230   49.1280 C.3   1316  SPO1316     0.0267
     16  C14       39.4960   90.0450   47.0060 C.3   1316  SPO1316     0.0476
     17  C15       38.3290   90.5100   46.2570 C.2   1316  SPO1316    -0.0260
     18  C16       38.5770   90.9860   44.8980 C.2   1316  SPO1316    -0.0263
     19  C17       37.5870   91.7780   44.1640 C.3   1316  SPO1316     0.0437
     20  C18       36.1240   91.5850   44.4170 C.3   1316  SPO1316     0.0094
     21  C19       38.0730   92.7510   43.1710 C.2   1316  SPO1316    -0.0221
     22  C20       37.2450   93.1480   42.0390 C.2   1316  SPO1316    -0.0046
     23  C21       37.6910   94.2180   41.1700 C.2   1316  SPO1316    -0.0046
     24  C22       39.0500   94.1400   40.6580 C.2   1316  SPO1316    -0.0221
     25  C23       39.5390   95.0200   39.5880 C.3   1316  SPO1316     0.0436
     26  C24       38.5770   95.8140   38.7510 C.3   1316  SPO1316     0.0094
     27  C25       41.0040   95.0690   39.4040 C.2   1316  SPO1316    -0.0267
     28  C26       41.7240   95.7180   38.3130 C.2   1316  SPO1316    -0.0304
     29  C27       43.1880   95.6720   38.4000 C.3   1316  SPO1316     0.0257
     30  C28       44.0710   96.2060   37.3410 C.3   1316  SPO1316     0.0047
     31  C29       43.5050   96.4920   35.9730 C.3   1316  SPO1316     0.0004
     32  C30       45.5410   96.4500   37.6480 C.3   1316  SPO1316     0.0050
     33  C31       45.9480   97.9060   37.4180 C.3   1316  SPO1316     0.0254
     34  C32       47.4340   98.0070   37.6330 C.2   1316  SPO1316    -0.0346
     35  C33       48.0890   98.9630   38.5540 C.2   1316  SPO1316    -0.0482
     36  C34       47.3050  100.0790   39.1710 C.3   1316  SPO1316     0.0260
     37  C35       49.5650   98.8090   38.8590 C.3   1316  SPO1316     0.0217
     38  C36       50.4110   99.6200   37.8770 C.3   1316  SPO1316     0.0043
     39  C37       51.7240   98.9360   37.5270 C.3   1316  SPO1316     0.0003
     40  C38       52.2520   98.9050   36.1240 C.3   1316  SPO1316     0.0000
     41  C39       52.0210   97.7040   35.2290 C.3   1316  SPO1316     0.0000
     42  C40       53.0330  100.0790   35.5800 C.3   1316  SPO1316     0.0000
@<TRIPOS>BOND
     1    41    40    1
     2    42    40    1
     3    31    30    1
     4    40    39    1
     5    30    32    1
     6    30    29    1
     7    33    34    1
     8    33    32    1
     9    39    38    1
    10    34    35    2
    11    38    37    1
    12    28    29    1
    13    28    27    2
    14    35    37    1
    15    35    36    1
    16    26    25    1
    17    27    25    1
    18    25    24    1
    19    24    23    2
    20    23    22    1
    21    22    21    2
    22    21    19    1
    23    19    20    1
    24    19    18    1
    25    18    17    2
    26    17    16    1
    27    16    14    1
    28    14    13    2
    29    14    15    1
    30    13    12    1
    31    12    11    2
    32    11     9    1
    33     9     8    1
    34     9    10    1
    35     8     7    2
    36     7     6    1
    37     6     3    1
    38     3     4    1
    39     3     5    1
    40     3     2    1
    41     2     1    1
