@<TRIPOS>MOLECULE
2uxm_U10_M_1.pdb
 48 48 0 0 0
SMALL
GASTEIGER

@<TRIPOS>ATOM
      1  C1        20.5370   76.0460   18.5650 C.2   1315  U101315     0.0145
      2  C2        21.3270   74.8870   18.5830 C.2   1315  U101315     0.1987
      3  C3        21.5950   74.1640   17.3840 C.3   1315  U101315     0.2104
      4  C4        21.0760   74.6310   16.1610 C.3   1315  U101315     0.2105
      5  C5        20.2750   75.7890   16.1580 C.2   1315  U101315     0.1990
      6  C6        19.9960   76.5050   17.3370 C.2   1315  U101315     0.0182
      7  C1M       20.2820   76.7590   19.8660 C.3   1315  U101315     0.0339
      8  C3M       23.4720   72.7830   17.3150 C.3   1315  U101315     0.1747
      9  C4M       22.0320   73.4180   14.3600 C.3   1315  U101315     0.1747
     10  C7        19.1110   77.7500   17.2390 C.3   1315  U101315     0.0544
     11  C8        19.8890   79.0110   17.5780 C.2   1315  U101315    -0.0298
     12  C9        20.1850   80.1060   16.6370 C.2   1315  U101315    -0.0475
     13  C10       19.5710   80.1110   15.2650 C.3   1315  U101315     0.0260
     14  C11       21.1220   81.2310   17.0480 C.3   1315  U101315     0.0264
     15  C12       20.4450   82.5960   16.9700 C.3   1315  U101315     0.0297
     16  C13       19.4310   82.6840   18.0900 C.2   1315  U101315    -0.0342
     17  C14       19.4920   83.7370   19.1330 C.2   1315  U101315    -0.0478
     18  C15       20.5340   84.8090   19.0780 C.3   1315  U101315     0.0260
     19  C16       18.4910   83.7450   20.2620 C.3   1315  U101315     0.0263
     20  C17       17.4740   84.8650   20.0600 C.3   1315  U101315     0.0297
     21  C18       16.3500   84.4460   19.1420 C.2   1315  U101315    -0.0342
     22  C19       15.6520   85.4920   18.3750 C.2   1315  U101315    -0.0478
     23  C20       16.0770   86.9190   18.5020 C.3   1315  U101315     0.0260
     24  C21       14.5220   85.1360   17.4350 C.3   1315  U101315     0.0263
     25  C22       13.1580   85.5150   17.9950 C.3   1315  U101315     0.0297
     26  C23       12.0940   85.0780   17.0080 C.2   1315  U101315    -0.0343
     27  C24       10.9060   84.2950   17.4060 C.2   1315  U101315    -0.0482
     28  C25       10.7880   83.7670   18.8030 C.3   1315  U101315     0.0260
     29  C26        9.7880   83.9960   16.4280 C.3   1315  U101315     0.0217
     30  C27        9.3170   85.2220   15.6500 C.3   1315  U101315     0.0043
     31  C28        8.3550   84.7350   14.5900 C.3   1315  U101315     0.0003
     32  C29        6.9390   85.1460   14.5880 C.3   1315  U101315     0.0003
     33  C30        6.5180   86.1730   13.5510 C.3   1315  U101315     0.0000
     34  C31        5.9930   84.5460   15.6400 C.3   1315  U101315     0.0046
     35  C32        4.4610   84.5940   15.3610 C.3   1315  U101315     0.0254
     36  C33        3.7270   83.2740   15.6490 C.2   1315  U101315    -0.0346
     37  C34        4.1240   81.9810   15.0210 C.2   1315  U101315    -0.0478
     38  C35        5.2100   81.9590   13.9790 C.3   1315  U101315     0.0260
     39  C36        3.4560   80.6700   15.3920 C.3   1315  U101315     0.0263
     40  C37        3.2230   79.8680   14.1110 C.3   1315  U101315     0.0297
     41  C38        1.7860   80.0080   13.6560 C.2   1315  U101315    -0.0342
     42  C39        1.3340   80.7950   12.4930 C.2   1315  U101315    -0.0478
     43  C40        2.2770   81.6250   11.6680 C.3   1315  U101315     0.0260
     44  C41       -0.1350   80.7570   12.1240 C.3   1315  U101315     0.0260
     45  O2        21.7700   74.4930   19.6690 O.2   1315  U101315    -0.2890
     46  O3        22.0730   72.9990   17.4130 O.3   1315  U101315    -0.3429
     47  O4        20.9780   73.8170   15.2210 O.3   1315  U101315    -0.3429
     48  O5        19.8580   76.2450   15.0910 O.2   1315  U101315    -0.2890
@<TRIPOS>BOND
     1    43    42    1
     2    44    42    1
     3    42    41    2
     4    33    32    1
     5    41    40    1
     6    38    37    1
     7    40    39    1
     8     9    47    1
     9    32    31    1
    10    32    34    1
    11    31    30    1
    12    37    39    1
    13    37    36    2
    14    48     5    2
    15    47     4    1
    16    13    12    1
    17    35    34    1
    18    35    36    1
    19    30    29    1
    20     5     4    1
    21     5     6    1
    22     4     3    1
    23    29    27    1
    24    12    14    1
    25    12    11    2
    26    15    14    1
    27    15    16    1
    28    26    27    2
    29    26    25    1
    30    10     6    1
    31    10    11    1
    32     8    46    1
    33     6     1    2
    34     3    46    1
    35     3     2    1
    36    27    28    1
    37    24    25    1
    38    24    22    1
    39    16    17    2
    40    22    23    1
    41    22    21    2
    42     1     2    1
    43     1     7    1
    44     2    45    2
    45    18    17    1
    46    17    19    1
    47    21    20    1
    48    20    19    1
