@<TRIPOS>MOLECULE
2uxm_UQ2_L_1.pdb
 23 23 0 0 0
SMALL
GASTEIGER

@<TRIPOS>ATOM
      1  C1        35.4050   72.8160   31.7180 C.2   1286  UQ21286     0.1990
      2  C2        35.3530   72.9460   30.3180 C.3   1286  UQ21286     0.2105
      3  C3        34.7400   74.0820   29.7550 C.3   1286  UQ21286     0.2104
      4  C4        34.2120   75.0730   30.5870 C.2   1286  UQ21286     0.1987
      5  C5        34.2710   74.9390   31.9890 C.2   1286  UQ21286     0.0145
      6  C6        34.8770   73.8020   32.5770 C.2   1286  UQ21286     0.0182
      7  CM2       36.0580   71.2190   28.9080 C.3   1286  UQ21286     0.1747
      8  CM3       35.1090   74.7500   27.5630 C.3   1286  UQ21286     0.1747
      9  CM5       33.6640   76.0430   32.8260 C.3   1286  UQ21286     0.0339
     10  C7        35.1650   73.7320   34.0860 C.3   1286  UQ21286     0.0544
     11  C8        34.0570   73.0060   34.8430 C.2   1286  UQ21286    -0.0298
     12  C9        34.1200   72.3960   36.2040 C.2   1286  UQ21286    -0.0478
     13  C10       32.9270   71.6300   36.7250 C.3   1286  UQ21286     0.0260
     14  C11       35.3450   72.5210   37.0990 C.3   1286  UQ21286     0.0217
     15  C12       35.2500   71.6700   38.3800 C.3   1286  UQ21286     0.0043
     16  C13       36.5360   70.8940   38.5980 C.3   1286  UQ21286     0.0003
     17  C14       37.1680   70.6860   39.9170 C.3   1286  UQ21286     0.0000
     18  C15       38.6630   70.5860   40.0010 C.3   1286  UQ21286     0.0000
     19  C16       36.3510   70.5570   41.1890 C.3   1286  UQ21286     0.0000
     20  O1        35.7460   71.7240   32.1740 O.2   1286  UQ21286    -0.2890
     21  O2        36.2530   72.3930   29.6630 O.3   1286  UQ21286    -0.3429
     22  O3        34.3780   74.0760   28.5700 O.3   1286  UQ21286    -0.3429
     23  O4        33.8270   76.1260   30.0600 O.2   1286  UQ21286    -0.2890
@<TRIPOS>BOND
     1     8    22    1
     2    22     3    1
     3     7    21    1
     4    21     2    1
     5     3     2    1
     6     3     4    1
     7    23     4    2
     8     2     1    1
     9     4     5    1
    10     1    20    2
    11     1     6    1
    12     5     6    2
    13     5     9    1
    14     6    10    1
    15    10    11    1
    16    11    12    2
    17    12    13    1
    18    12    14    1
    19    14    15    1
    20    15    16    1
    21    16    17    1
    22    17    18    1
    23    17    19    1
