@<TRIPOS>MOLECULE
2uxo_TAC_B_1.pdb
 32 35 0 0 0
SMALL
GASTEIGER

@<TRIPOS>ATOM
      1  C1         1.5040   32.5620   12.2810 C.2   1211  TAC1211     0.2104
      2  O1         1.4170   32.6400   10.9970 O.2   1211  TAC1211    -0.2884
      3  C2         1.0470   31.3920   12.9160 C.2   1211  TAC1211     0.1032
      4  C21        0.4630   30.2280   12.0660 C.2   1211  TAC1211     0.2855
      5  O21        0.3220   29.0450   12.7980 O.2   1211  TAC1211    -0.2668
      6  N21        0.2450   30.5240   10.6910 N.am  1211  TAC1211    -0.0838
      7  C3         1.1140   31.2560   14.3220 C.3   1211  TAC1211     0.1961
      8  O3         0.6390   30.1130   14.8830 O.3   1211  TAC1211    -0.2166
      9  C4         1.6580   32.3450   15.2910 C.3   1211  TAC1211     0.0959
     10  N4         2.9490   31.9280   15.9250 N.3   1211  TAC1211    -0.2689
     11  C42        2.8380   30.7380   16.7940 C.3   1211  TAC1211     0.0897
     12  C43        3.3520   32.9090   16.9330 C.3   1211  TAC1211     0.0897
     13  C41        1.6830   33.7500   14.5780 C.3   1211  TAC1211     0.0603
     14  C5         0.3520   34.4970   14.7100 C.3   1211  TAC1211     0.0121
     15  C51        0.4580   35.9620   14.2100 C.3   1211  TAC1211     0.0605
     16  C6        -0.9190   36.6370   14.1370 C.3   1211  TAC1211     0.1494
     17  C62       -1.6350   36.6150   15.4990 C.3   1211  TAC1211     0.0379
     18  O6        -1.7320   35.9170   13.2020 O.3   1211  TAC1211    -0.2208
     19  C61       -0.7370   38.0670   13.5550 C.ar  1211  TAC1211     0.0115
     20  C7        -1.5030   39.1480   14.0030 C.ar  1211  TAC1211    -0.0016
     21  C8        -1.3340   40.4280   13.4620 C.ar  1211  TAC1211     0.0030
     22  C9        -0.4010   40.6470   12.4500 C.ar  1211  TAC1211     0.0421
     23  C10        0.3650   39.5750   11.9940 C.ar  1211  TAC1211     0.1985
     24  O10        1.2770   39.7850   11.0050 O.3   1211  TAC1211    -0.2865
     25  C1A        0.1990   38.2900   12.5370 C.ar  1211  TAC1211     0.0759
     26  C11        0.9720   37.2260   12.0580 C.2   1211  TAC1211     0.1974
     27  O11        1.5110   37.3150   10.9490 O.2   1211  TAC1211    -0.2867
     28  C1B        1.1390   36.0650   12.8240 C.2   1211  TAC1211     0.0567
     29  C12        1.9210   35.0170   12.3250 C.2   1211  TAC1211     0.2067
     30  O12        2.5210   35.0980   11.1020 O.2   1211  TAC1211    -0.2885
     31  C1C        2.1320   33.7220   13.1020 C.3   1211  TAC1211     0.2360
     32  O1C        3.5660   33.4430   13.0480 O.3   1211  TAC1211    -0.2098
@<TRIPOS>BOND
     1     6     4   am
     2    27    26    2
     3     2     1    1
     4    24    23    1
     5    30    29    1
     6    23    22   ar
     7    23    25   ar
     8    26    25    1
     9    26    28    1
    10     4     5    2
    11     4     3    1
    12     1     3    2
    13     1    31    1
    14    29    28    2
    15    29    31    1
    16    22    21   ar
    17    25    19   ar
    18    28    15    1
    19     3     7    1
    20    32    31    1
    21    31    13    1
    22    18    16    1
    23    21    20   ar
    24    19    20   ar
    25    19    16    1
    26    16    15    1
    27    16    17    1
    28    15    14    1
    29     7     8    1
    30     7     9    1
    31    13    14    1
    32    13     9    1
    33     9    10    1
    34    10    11    1
    35    10    12    1
