@<TRIPOS>MOLECULE
2uxp_CLM_A_1.pdb
 20 20 0 0 0
SMALL
GASTEIGER

@<TRIPOS>ATOM
      1  C1        15.8760   31.4620   -4.8810 C.3   1211  CLM1211     0.2356
      2 CL1        15.5190   31.2350   -6.6340 Cl    1211  CLM1211    -0.0870
      3 CL2        15.4130   30.0600   -3.8590 Cl    1211  CLM1211    -0.0870
      4  C2        15.1550   32.6690   -4.3570 C.2   1211  CLM1211     0.2720
      5  O2        13.9310   32.6860   -4.3490 O.2   1211  CLM1211    -0.2706
      6  N2        15.9370   33.6640   -3.9150 N.am  1211  CLM1211    -0.1994
      7  C3        15.4470   34.8920   -3.3000 C.3   1211  CLM1211     0.1626
      8  C4        15.7690   34.9000   -1.8050 C.3   1211  CLM1211     0.2065
      9  O4        15.0710   35.9780   -1.1390 O.3   1211  CLM1211    -0.2184
     10  C5        15.9610   36.1570   -4.0050 C.3   1211  CLM1211     0.1966
     11  O5        15.4330   37.2870   -3.2880 O.3   1211  CLM1211    -0.2163
     12  C6        17.4460   36.3060   -4.0920 C.ar  1211  CLM1211     0.0096
     13  C7        18.2550   35.3940   -4.7900 C.ar  1211  CLM1211    -0.0001
     14  C8        19.6400   35.5800   -4.8540 C.ar  1211  CLM1211     0.0217
     15  C9        20.2330   36.6900   -4.2320 C.ar  1211  CLM1211     0.1176
     16  N9        21.6330   36.9110   -4.2720 N.pl3 1211  CLM1211    -0.0565
     17  O9A       21.8970   38.1270   -4.6720 O.3   1211  CLM1211    -0.0542
     18  O9B       22.2390   36.0460   -5.0250 O.3   1211  CLM1211    -0.0542
     19  C10       19.4190   37.6010   -3.5480 C.ar  1211  CLM1211     0.0217
     20  C11       18.0410   37.4130   -3.4780 C.ar  1211  CLM1211    -0.0001
@<TRIPOS>BOND
     1     2     1    1
     2    18    16    1
     3     1     4    1
     4     1     3    1
     5    14    13   ar
     6    14    15   ar
     7    13    12   ar
     8    17    16    1
     9     4     5    2
    10     4     6   am
    11    16    15    1
    12    15    19   ar
    13    12    10    1
    14    12    20   ar
    15    10     7    1
    16    10    11    1
    17     6     7    1
    18    19    20   ar
    19     7     8    1
    20     8     9    1
