@<TRIPOS>MOLECULE
2uxr_ICT_A_1.pdb
 13 12 0 0 0
SMALL
GASTEIGER

@<TRIPOS>ATOM
      1  C1         8.0330   22.2110   46.9700 C.2   1403  ICT1403     0.3952
      2  O1         7.7890   22.2330   45.7120 O.co2 1403  ICT1403    -0.2428
      3  O2         8.4110   21.1390   47.5340 O.co2 1403  ICT1403    -0.2428
      4  C2         7.8590   23.4560   47.7940 C.3   1403  ICT1403     0.2651
      5  O7         7.4480   24.4530   46.9300 O.3   1403  ICT1403    -0.2103
      6  C3         9.1470   23.9800   48.3990 C.3   1403  ICT1403     0.1561
      7  C4         8.7820   25.2310   49.2560 C.3   1403  ICT1403     0.1285
      8  C5         9.9890   25.6820   50.0610 C.2   1403  ICT1403     0.3655
      9  O3        10.1080   26.8860   50.3840 O.co2 1403  ICT1403    -0.2456
     10  O4        10.8880   24.8590   50.4150 O.co2 1403  ICT1403    -0.2456
     11  C6        10.1900   24.1940   47.3120 C.2   1403  ICT1403     0.3680
     12  O5        10.4800   25.3700   46.9500 O.co2 1403  ICT1403    -0.2455
     13  O6        10.7700   23.2010   46.7680 O.co2 1403  ICT1403    -0.2455
@<TRIPOS>BOND
     1     2     1   ar
     2    13    11   ar
     3     5     4    1
     4    12    11   ar
     5     1     3   ar
     6     1     4    1
     7    11     6    1
     8     4     6    1
     9     6     7    1
    10     7     8    1
    11     8     9   ar
    12     8    10   ar
