@<TRIPOS>MOLECULE
2uxu_NAR_A_1.pdb
 20 22 0 0 0
SMALL
GASTEIGER

@<TRIPOS>ATOM
      1  C1        16.2160   37.2890   -2.6910 C.ar  1211  NAR1211     0.0792
      2  C2        16.8820   38.5070   -2.5870 C.ar  1211  NAR1211     0.2020
      3  C3        18.0860   38.7190   -3.2650 C.ar  1211  NAR1211     0.0843
      4  C4        18.6430   37.7190   -4.0510 C.ar  1211  NAR1211     0.2046
      5  C5        17.9740   36.4840   -4.1730 C.ar  1211  NAR1211     0.1078
      6  C6        16.7560   36.2840   -3.4990 C.ar  1211  NAR1211     0.1479
      7  C7        18.4890   35.4430   -4.9600 C.2   1211  NAR1211     0.1831
      8  C8        17.7150   34.1670   -5.2350 C.3   1211  NAR1211     0.1174
      9  C9        16.2380   34.3870   -4.8910 C.3   1211  NAR1211     0.1958
     10  O1        16.0920   35.0940   -3.5920 O.3   1211  NAR1211    -0.4740
     11  O2        19.6140   35.5480   -5.4620 O.2   1211  NAR1211    -0.2910
     12  C10       15.3220   33.1060   -4.9220 C.ar  1211  NAR1211     0.0178
     13  C11       15.9000   31.7140   -5.3040 C.ar  1211  NAR1211     0.0025
     14  C12       14.9220   30.7160   -5.2770 C.ar  1211  NAR1211     0.0418
     15  C13       13.5870   30.8890   -4.9720 C.ar  1211  NAR1211     0.1957
     16  C14       13.1180   32.1380   -4.6280 C.ar  1211  NAR1211     0.0418
     17  C15       13.9730   33.2390   -4.5980 C.ar  1211  NAR1211     0.0025
     18  O3        12.7430   29.8440   -4.9810 O.3   1211  NAR1211    -0.2866
     19  O4        16.3790   39.5000   -1.8170 O.3   1211  NAR1211    -0.2864
     20  O5        19.8370   37.9600   -4.6890 O.3   1211  NAR1211    -0.2863
@<TRIPOS>BOND
     1    11     7    2
     2    13    14   ar
     3    13    12   ar
     4    14    15   ar
     5     8     7    1
     6     8     9    1
     7    18    15    1
     8    15    16   ar
     9     7     5    1
    10    12     9    1
    11    12    17   ar
    12     9    10    1
    13    20     4    1
    14    16    17   ar
    15     5     4   ar
    16     5     6   ar
    17     4     3   ar
    18    10     6    1
    19     6     1   ar
    20     3     2   ar
    21     1     2   ar
    22     2    19    1
