@<TRIPOS>MOLECULE
2uxw_TH3_A_1.pdb
 24 23 0 0 0
SMALL
GASTEIGER

@<TRIPOS>ATOM
      1  C1         1.3530   26.7040   14.2030 C.3   750  TH3750      0.0964
      2  C2         2.4320   27.2910   15.1210 C.2   750  TH3750      0.2419
      3  O2         3.2690   26.5670   15.6570 O.2   750  TH3750     -0.2733
      4  N3         2.3920   28.6150   15.2840 N.am  750  TH3750     -0.2045
      5  C4         3.3660   29.3240   16.1310 C.3   750  TH3750      0.1272
      6  C5         3.2970   30.8240   15.8500 C.3   750  TH3750      0.0887
      7  S6         4.8830   31.6890   16.1390 S.3   750  TH3750     -0.0709
      8  C7         4.8590   31.9100   17.8050 C.2   750  TH3750      0.2213
      9  O7         3.8880   31.4600   18.4060 O.2   750  TH3750     -0.2797
     10  C8         5.9290   32.6090   18.3710 C.2   750  TH3750      0.0441
     11  C9         6.0700   32.9040   19.7160 C.2   750  TH3750     -0.0223
     12  C10        7.2190   33.5800   20.1350 C.3   750  TH3750      0.0262
     13  C11        8.3390   32.5420   20.3140 C.3   750  TH3750      0.0047
     14  C12        9.7410   33.1560   20.3420 C.3   750  TH3750      0.0003
     15  C13       10.8280   32.0790   20.2110 C.3   750  TH3750      0.0000
     16  C14       11.6470   31.9570   21.5020 C.3   750  TH3750      0.0000
     17  C15       12.6950   30.8360   21.4120 C.3   750  TH3750      0.0000
     18  C16       14.0050   31.2080   22.1290 C.3   750  TH3750      0.0000
     19  C17       13.7440   31.9280   23.4520 C.3   750  TH3750      0.0000
     20  C18       14.9970   32.6490   23.9690 C.3   750  TH3750      0.0000
     21  C19       15.8290   33.2750   22.8380 C.3   750  TH3750      0.0000
     22  C20       16.8520   34.2810   23.3770 C.3   750  TH3750      0.0000
     23  C21       17.6920   34.8590   22.2380 C.3   750  TH3750      0.0000
     24  C22       18.9340   35.5860   22.7630 C.3   750  TH3750      0.0000
@<TRIPOS>BOND
     1     1     2    1
     2     2     4   am
     3     2     3    2
     4     4     5    1
     5     6     5    1
     6     6     7    1
     7     7     8    1
     8     8    10    1
     9     8     9    2
    10    10    11    2
    11    11    12    1
    12    12    13    1
    13    15    14    1
    14    15    16    1
    15    13    14    1
    16    17    16    1
    17    17    18    1
    18    18    19    1
    19    23    24    1
    20    23    22    1
    21    21    22    1
    22    21    20    1
    23    19    20    1
