@<TRIPOS>MOLECULE
2uxz_HI1_A_1.pdb
 47 50 0 0 0
SMALL
GASTEIGER

@<TRIPOS>ATOM
      1  C23       15.7540   22.3630    8.0910 C.ar  1100  HI11100    -0.0192
      2  C40       12.8380   23.2090    3.8820 C.3   1100  HI11100     0.0222
      3  C14       13.3760   23.7450    5.2380 C.3   1100  HI11100     0.0413
      4  C24       17.1530   22.6110    7.8560 C.ar  1100  HI11100    -0.0042
      5  C1        14.5670   22.9560    5.8420 C.3   1100  HI11100     0.1999
      6  C25       18.1480   21.8080    8.4960 C.ar  1100  HI11100    -0.0003
      7  C26       17.7520   20.7450    9.3700 C.ar  1100  HI11100    -0.0000
      8  C27       16.3600   20.4910    9.6140 C.ar  1100  HI11100    -0.0003
      9  C28       15.3610   21.2930    8.9760 C.ar  1100  HI11100    -0.0042
     10  C33        8.2410   24.1530    2.7100 C.ar  1100  HI11100    -0.0044
     11  C34        7.7800   23.1110    3.5820 C.ar  1100  HI11100    -0.0024
     12  C35        6.4090   23.0470    3.9510 C.ar  1100  HI11100     0.0064
     13  C36        5.4960   24.0280    3.4520 C.ar  1100  HI11100     0.0345
     14  C37        5.9410   25.0760    2.5760 C.ar  1100  HI11100     0.0064
     15  C38        7.3300   25.1390    2.2030 C.ar  1100  HI11100    -0.0024
     16  C32        9.7300   24.2120    2.3400 C.3   1100  HI11100     0.1202
     17  C7         5.3530   27.7850    5.8960 C.3   1100  HI11100     0.2574
     18  C4        11.9590   24.2120    3.1340 C.3   1100  HI11100     0.0944
     19  O3         8.2340   28.0370    5.0920 O.2   1100  HI11100    -0.2245
     20  N1         8.1990   26.0930    6.3170 N.am  1100  HI11100    -0.1610
     21  C22       14.6430   23.1900    7.3900 C.3   1100  HI11100     0.0657
     22  O6        15.7070   23.5790    5.2600 O.3   1100  HI11100    -0.2159
     23  O8         6.2900   26.8060    5.4230 O.3   1100  HI11100    -0.4294
     24  C10       14.5790   21.4220    5.6040 C.2   1100  HI11100     0.2695
     25  O11       13.5820   20.7200    5.8270 O.2   1100  HI11100    -0.2707
     26  N12       15.7660   20.9170    5.1820 N.am  1100  HI11100    -0.1980
     27  C51       15.9670   19.4520    4.9410 C.3   1100  HI11100     0.1478
     28  C52       15.9850   19.0580    3.5020 C.ar  1100  HI11100    -0.0040
     29  C57       17.0370   18.1050    3.3470 C.ar  1100  HI11100    -0.0218
     30  C53       15.1600   19.4800    2.3890 C.ar  1100  HI11100    -0.0029
     31  C54       15.4390   18.9010    1.0800 C.ar  1100  HI11100    -0.0003
     32  C55       16.5160   17.9290    0.9250 C.ar  1100  HI11100    -0.0003
     33  C59       17.3650   19.1260    5.4990 C.3   1100  HI11100     0.1802
     34  O60       18.3440   20.1190    5.1510 O.3   1100  HI11100    -0.2206
     35  C30        7.6650   27.0630    5.5810 C.2   1100  HI11100     0.4216
     36  C56       17.3290   17.5200    2.0630 C.ar  1100  HI11100    -0.0044
     37  C58       17.7290   17.8580    4.6870 C.3   1100  HI11100     0.0611
     38  C41        9.6230   26.0150    6.6930 C.3   1100  HI11100     0.1773
     39  C42        9.8480   26.0480    8.2470 C.3   1100  HI11100     0.0271
     40  C43        9.3780   27.3990    8.7970 C.3   1100  HI11100     0.0022
     41  C44        9.0270   24.9730    8.9510 C.3   1100  HI11100     0.0022
     42  C45        9.9780   24.8390    5.7930 C.2   1100  HI11100     0.2764
     43  N24       10.5880   24.0240    3.4930 N.3   1100  HI11100    -0.1799
     44  O46       10.0170   23.6860    6.2600 O.2   1100  HI11100    -0.2701
     45  N47       10.2330   25.1090    4.5020 N.am  1100  HI11100    -0.1258
     46 BR          3.7300   23.9070    3.9650 Br    1100  HI11100    -0.0490
     47  C86       11.3100   25.9400    8.6360 C.3   1100  HI11100     0.0022
@<TRIPOS>BOND
     1    32    31   ar
     2    32    36   ar
     3    31    30   ar
     4    36    29   ar
     5    15    14   ar
     6    15    10   ar
     7    16    10    1
     8    16    43    1
     9    30    28   ar
    10    14    13   ar
    11    10    11   ar
    12    18    43    1
    13    18     2    1
    14    29    28   ar
    15    29    37    1
    16    13    12   ar
    17    13    46    1
    18    43    45    1
    19    28    27    1
    20    11    12   ar
    21     2     3    1
    22    45    42   am
    23    37    33    1
    24    27    26    1
    25    27    33    1
    26    19    35    2
    27    34    33    1
    28    26    24   am
    29     3     5    1
    30    22     5    1
    31    23    35    1
    32    23    17    1
    33    35    20   am
    34    24    25    2
    35    24     5    1
    36    42    44    2
    37    42    38    1
    38     5    21    1
    39    20    38    1
    40    38    39    1
    41    21     1    1
    42     4     1   ar
    43     4     6   ar
    44     1     9   ar
    45    39    47    1
    46    39    40    1
    47    39    41    1
    48     6     7   ar
    49     9     8   ar
    50     7     8   ar
