@<TRIPOS>MOLECULE
2uy0_HV1_B_1.pdb
 48 51 0 0 0
SMALL
GASTEIGER

@<TRIPOS>ATOM
      1  C4        13.6780   24.3350    4.9700 C.3   1200  HV11200     0.0899
      2  C14       13.7950   23.8280    6.4180 C.3   1200  HV11200     0.0494
      3  N1        11.2830   23.6870    4.5210 N.am  1200  HV11200    -0.1828
      4  N2        10.7220   24.7460    5.0700 N.am  1200  HV11200    -0.1058
      5  N3         8.0520   25.8580    6.3230 N.am  1200  HV11200    -0.1610
      6  O50       13.1470   22.8010    3.3690 O.2   1200  HV11200    -0.2733
      7  C25       12.6400   23.5620    4.2270 C.2   1200  HV11200     0.2431
      8  C42       10.0500   24.5350    6.2140 C.2   1200  HV11200     0.2793
      9  C36        5.2760   27.4690    5.9160 C.3   1200  HV11200     0.2574
     10  O37        6.2190   26.5850    5.2810 O.3   1200  HV11200    -0.4294
     11  C38        7.5980   26.8000    5.4990 C.2   1200  HV11200     0.4216
     12  O39        8.2430   27.7180    4.9930 O.2   1200  HV11200    -0.2245
     13  C41        9.4610   25.7770    6.7630 C.3   1200  HV11200     0.1776
     14  C35        9.3880   25.9320    8.3510 C.3   1200  HV11200     0.0271
     15  C47        8.5490   24.8600    9.0980 C.3   1200  HV11200     0.0022
     16  C46       10.8080   25.8860    8.8910 C.3   1200  HV11200     0.0022
     17  C45        8.7620   27.2960    8.7690 C.3   1200  HV11200     0.0022
     18  O44        9.9610   23.3970    6.7180 O.2   1200  HV11200    -0.2698
     19  C27       10.6690   23.1740    3.2590 C.3   1200  HV11200     0.1432
     20  C28        9.4460   23.8260    2.7380 C.ar  1200  HV11200    -0.0005
     21  C29        8.1540   23.3900    3.1000 C.ar  1200  HV11200    -0.0020
     22  C30        7.0390   24.0450    2.5630 C.ar  1200  HV11200     0.0064
     23  C31        7.2450   25.1170    1.6760 C.ar  1200  HV11200     0.0345
     24 BR          5.8820   26.1050    0.8420 Br    1200  HV11200    -0.0490
     25  C32        8.5650   25.5170    1.3470 C.ar  1200  HV11200     0.0064
     26  C33        9.6630   24.8670    1.8820 C.ar  1200  HV11200    -0.0020
     27  C1        14.9370   22.7860    6.6080 C.3   1200  HV11200     0.2003
     28  O22       16.1120   23.4540    6.0610 O.3   1200  HV11200    -0.2159
     29  C15       15.0810   22.6650    8.1390 C.3   1200  HV11200     0.0658
     30  C16       16.1600   21.7210    8.6310 C.ar  1200  HV11200    -0.0192
     31  C17       15.7500   20.5910    9.3940 C.ar  1200  HV11200    -0.0042
     32  C18       16.7340   19.7060    9.8480 C.ar  1200  HV11200    -0.0003
     33  C19       18.0760   19.9520    9.5440 C.ar  1200  HV11200    -0.0000
     34  C20       18.5000   21.0690    8.7910 C.ar  1200  HV11200    -0.0003
     35  C21       17.5250   21.9680    8.3270 C.ar  1200  HV11200    -0.0042
     36  C2        14.7320   21.3100    6.0660 C.2   1200  HV11200     0.2696
     37  O3        13.7970   20.5310    6.3020 O.2   1200  HV11200    -0.2707
     38  N4        15.8850   20.9260    5.4290 N.am  1200  HV11200    -0.1980
     39  C5        16.0780   19.4820    5.0110 C.3   1200  HV11200     0.1478
     40  C6        15.8420   19.1640    3.5900 C.ar  1200  HV11200    -0.0040
     41  C7        14.8580   19.6880    2.6320 C.ar  1200  HV11200    -0.0029
     42  C8        14.8860   19.1540    1.2620 C.ar  1200  HV11200    -0.0003
     43  C9        15.8770   18.1300    0.8880 C.ar  1200  HV11200    -0.0003
     44  C10       16.8520   17.6200    1.8700 C.ar  1200  HV11200    -0.0044
     45  C11       16.8100   18.1600    3.2270 C.ar  1200  HV11200    -0.0218
     46  C12       17.6960   17.8070    4.4290 C.3   1200  HV11200     0.0611
     47  C13       17.5110   19.0220    5.3790 C.3   1200  HV11200     0.1802
     48  O14       18.5390   19.9640    5.0140 O.3   1200  HV11200    -0.2206
@<TRIPOS>BOND
     1    24    23    1
     2    43    42   ar
     3    43    44   ar
     4    42    41   ar
     5    25    23   ar
     6    25    26   ar
     7    23    22   ar
     8    44    45   ar
     9    26    20   ar
    10    22    21   ar
    11    41    40   ar
    12    20    21   ar
    13    20    19    1
    14    45    40   ar
    15    45    46    1
    16    19     3    1
    17     6     7    2
    18    40    39    1
    19     7     3   am
    20     7     1    1
    21    46    47    1
    22     3     4    1
    23     1     2    1
    24    12    11    2
    25    39    47    1
    26    39    38    1
    27    48    47    1
    28     4     8   am
    29    10    11    1
    30    10     9    1
    31    38    36   am
    32    11     5   am
    33    28    27    1
    34    36    37    2
    35    36    27    1
    36     8    18    2
    37     8    13    1
    38     5    13    1
    39     2    27    1
    40    27    29    1
    41    13    14    1
    42    29    30    1
    43    35    30   ar
    44    35    34   ar
    45    14    17    1
    46    14    16    1
    47    14    15    1
    48    30    31   ar
    49    34    33   ar
    50    31    32   ar
    51    33    32   ar
