@<TRIPOS>MOLECULE
2uy3_H33_A_1.pdb
 14 15 0 0 0
SMALL
GASTEIGER

@<TRIPOS>ATOM
      1  N1        38.0740   20.5310   22.2120 N.ar  1311  H331311    -0.2444
      2  C2        38.0800   20.3950   23.6110 C.ar  1311  H331311     0.2991
      3  C3        38.3160   21.5330   24.4230 C.ar  1311  H331311     0.2475
      4  C4        38.5410   22.7850   23.8480 C.ar  1311  H331311     0.2474
      5  N5        38.5160   22.9470   22.4450 N.ar  1311  H331311    -0.2513
      6  C6        38.2900   21.8140   21.6190 C.ar  1311  H331311     0.3358
      7  N7        38.3750   21.7180   25.7600 N.2   1311  H331311    -0.3216
      8  C8        38.6340   23.0180   25.9920 C.1   1311  H331311     0.2068
      9  N9        38.7210   23.6690   24.8450 N.2   1311  H331311    -0.3098
     10  C11       38.7420   24.2830   21.8250 C.3   1311  H331311     0.1377
     11  C15       37.8330   19.3220   21.3800 C.3   1311  H331311     0.1383
     12  O19       38.2790   21.9290   20.3930 O.2   1311  H331311    -0.2461
     13  O20       37.8800   19.2610   24.0680 O.2   1311  H331311    -0.2638
     14 CL         38.8080   23.6990   27.3560 Cl    1311  H331311     0.0244
@<TRIPOS>BOND
     1    12     6    2
     2    11     1    1
     3     6     1   ar
     4     6     5   ar
     5    10     5    1
     6     1     2   ar
     7     5     4   ar
     8     2    13    2
     9     2     3   ar
    10     4     3   ar
    11     4     9    2
    12     3     7    2
    13     9     8    2
    14     7     8    2
    15     8    14    1
