@<TRIPOS>MOLECULE
2uy4_AZM_A_1.pdb
 13 13 0 0 0
SMALL
GASTEIGER

@<TRIPOS>ATOM
      1  C1        38.1430   20.2690   22.3930 C.ar  1311  AZM1311     0.2590
      2  C2        38.2450   20.9340   24.6690 C.ar  1311  AZM1311     0.2093
      3  C3        38.7520   22.7650   26.0550 C.2   1311  AZM1311     0.2478
      4  C4        38.8830   23.1260   27.5120 C.3   1311  AZM1311     0.0969
      5  N1        36.5850   20.1440   20.2020 N.3   1311  AZM1311     0.0413
      6  N2        37.9070   19.6430   24.4510 N.ar  1311  AZM1311    -0.1222
      7  N3        37.8560   19.2870   23.2430 N.ar  1311  AZM1311    -0.1189
      8  N4        38.3900   21.5060   25.8640 N.am  1311  AZM1311    -0.1528
      9  O1        38.7910   18.8180   20.2920 O.2   1311  AZM1311    -0.1483
     10  O2        38.8970   21.2590   20.0970 O.2   1311  AZM1311    -0.1483
     11  O3        38.9690   23.6020   25.1840 O.2   1311  AZM1311    -0.2729
     12  S1        38.1430   20.1190   20.6910 S.O2  1311  AZM1311     0.1178
     13  S2        38.5130   21.7020   23.2090 S.2   1311  AZM1311    -0.0087
@<TRIPOS>BOND
     1    10    12    2
     2     5    12    1
     3     9    12    2
     4    12     1    1
     5     1    13   ar
     6     1     7   ar
     7    13     2   ar
     8     7     6   ar
     9     6     2   ar
    10     2     8    1
    11    11     3    2
    12     8     3   am
    13     3     4    1
