@<TRIPOS>MOLECULE
2uy5_H35_A_1.pdb
 16 18 0 0 0
SMALL
GASTEIGER

@<TRIPOS>ATOM
      1  CAM       39.8000   25.9940   28.7230 C.ar  1313  H351313     0.0406
      2  CAO       40.6000   27.0690   28.6410 C.ar  1313  H351313     0.0436
      3  CAN       41.4600   26.9030   27.6230 C.ar  1313  H351313     0.1793
      4  OAL       41.1990   25.6780   27.0690 O.2   1313  H351313    -0.4504
      5  CAK       40.1550   25.1380   27.7530 C.ar  1313  H351313     0.1743
      6  CAP       39.5950   23.7640   27.3750 C.3   1313  H351313     0.3147
      7  N6        39.1250   23.8690   25.9490 N.pl3 1313  H351313    -0.0211
      8  C6        38.7510   22.8210   25.2340 C.2   1313  H351313     0.3859
      9  N1        38.5140   21.6520   25.8190 N.2   1313  H351313    -0.0304
     10  C2        38.1520   20.5790   25.1040 C.3   1313  H351313     0.4006
     11  N3        38.0000   20.6090   23.7670 N.2   1313  H351313    -0.1640
     12  C4        38.2040   21.7630   23.1200 C.1   1313  H351313     0.0578
     13  C5        38.5860   22.8960   23.8360 C.2   1313  H351313     0.2255
     14  N7        38.7190   23.8750   22.9460 N.2   1313  H351313    -0.2268
     15  C8        38.4570   23.3940   21.7250 C.3   1313  H351313     0.2618
     16  N9        38.1320   22.1000   21.8240 N.2   1313  H351313    -0.1914
@<TRIPOS>BOND
     1    15    16    1
     2    15    14    1
     3    16    12    2
     4    14    13    2
     5    12    11    2
     6    12    13    1
     7    11    10    1
     8    13     8    1
     9    10     9    1
    10     8     9    2
    11     8     7    1
    12     7     6    1
    13     4     3   ar
    14     4     5   ar
    15     6     5    1
    16     3     2   ar
    17     5     1   ar
    18     2     1   ar
