@<TRIPOS>MOLECULE
2uyc_SAH_A_1.pdb
 26 28 0 0 0
SMALL
GASTEIGER

@<TRIPOS>ATOM
      1  N        -17.4110   30.7080   79.0760 N.3   1328  SAH1328    -0.1245
      2  CA       -17.7800   29.8500   80.2180 C.3   1328  SAH1328     0.1844
      3  CB       -17.6640   30.4530   81.6190 C.3   1328  SAH1328     0.0388
      4  CG       -16.2790   31.0000   81.9170 C.3   1328  SAH1328     0.0594
      5  SD       -16.1090   31.7250   83.5780 S.3   1328  SAH1328    -0.1376
      6  C        -19.2030   29.4120   79.8560 C.3   1328  SAH1328     0.4429
      7  O        -19.7670   29.7870   78.7680 O.2   1328  SAH1328    -0.2654
      8  OXT      -20.1350   29.5910   80.7450 O.2   1328  SAH1328    -0.2654
      9  C5'      -14.5950   30.8990   84.1210 C.3   1328  SAH1328     0.0899
     10  C4'      -14.7290   29.4470   84.5640 C.3   1328  SAH1328     0.1630
     11  O4'      -13.4680   28.9730   84.9440 O.3   1328  SAH1328    -0.3153
     12  C3'      -15.5820   29.2330   85.7950 C.3   1328  SAH1328     0.2168
     13  O3'      -16.7070   28.3610   85.5210 O.3   1328  SAH1328    -0.2175
     14  C2'      -14.6130   28.6240   86.8140 C.3   1328  SAH1328     0.2569
     15  O2'      -15.2410   27.6710   87.7110 O.3   1328  SAH1328    -0.2130
     16  C1'      -13.6100   27.9690   85.9390 C.3   1328  SAH1328     0.3185
     17  N9       -12.3180   27.8560   86.5370 N.pl3 1328  SAH1328    -0.1439
     18  C8       -11.6820   28.7960   87.3250 C.3   1328  SAH1328     0.3377
     19  N7       -10.5140   28.4140   87.7210 N.2   1328  SAH1328    -0.2095
     20  C5       -10.3460   27.1530   87.1790 C.2   1328  SAH1328     0.2526
     21  C6        -9.2900   26.2010   87.2390 C.2   1328  SAH1328     0.4393
     22  N6        -8.1570   26.3810   87.9030 N.pl3 1328  SAH1328     0.2180
     23  N1        -9.4580   25.0200   86.5660 N.2   1328  SAH1328     0.0021
     24  C2       -10.5880   24.7750   85.8720 C.3   1328  SAH1328     0.5254
     25  N3       -11.6420   25.5830   85.7430 N.2   1328  SAH1328    -0.0055
     26  C4       -11.4420   26.7770   86.4380 C.2   1328  SAH1328     0.3518
@<TRIPOS>BOND
     1     7     6    1
     2     1     2    1
     3     6     2    1
     4     6     8    1
     5     2     3    1
     6     3     4    1
     7     4     5    1
     8     5     9    1
     9     9    10    1
    10    10    11    1
    11    10    12    1
    12    11    16    1
    13    13    12    1
    14    25    24    1
    15    25    26    2
    16    12    14    1
    17    24    23    1
    18    16    17    1
    19    16    14    1
    20    26    17    1
    21    26    20    1
    22    17    18    1
    23    23    21    2
    24    14    15    1
    25    20    21    1
    26    20    19    2
    27    21    22    1
    28    18    19    1
