@<TRIPOS>MOLECULE
2uyd_HEM_X_1.pdb
 43 50 0 0 0
SMALL
GASTEIGER

@<TRIPOS>ATOM
      1 FE         50.0680    4.2230   28.9700 Fe    200  HEM200      0.0000
      2  CHA       52.6850    2.5080   27.6400 C.2   200  HEM200      0.0000
      3  CHB       49.6440    5.9230   26.0390 C.2   200  HEM200      0.0000
      4  CHC       47.6360    6.3170   30.4130 C.2   200  HEM200      0.0000
      5  CHD       50.2250    2.4870   31.8900 C.2   200  HEM200      0.0000
      6  NA        51.0190    4.2220   27.1630 N.ar  200  HEM200      0.0000
      7  C1A       52.0710    3.4060   26.7810 C.ar  200  HEM200      0.0000
      8  C2A       52.3690    3.6910   25.3720 C.ar  200  HEM200      0.0000
      9  C3A       51.5090    4.6250   24.9710 C.ar  200  HEM200      0.0000
     10  C4A       50.6490    4.9840   26.0760 C.ar  200  HEM200      0.0000
     11  CMA       51.4470    5.2340   23.5520 C.3   200  HEM200      0.0000
     12  CAA       53.4280    3.0830   24.4110 C.3   200  HEM200      0.0000
     13  CBA       54.6530    2.5100   25.1210 C.3   200  HEM200      0.0000
     14  CGA       55.7890    2.3790   24.1390 C.2   200  HEM200      0.0000
     15  O1A       56.9400    2.7160   24.5240 O.co2 200  HEM200      0.0000
     16  O2A       55.5520    1.9430   22.9740 O.co2 200  HEM200      0.0000
     17  NB        48.8430    5.7880   28.3490 N.2   200  HEM200      0.0000
     18  C1B       48.9040    6.3700   27.1030 C.2   200  HEM200      0.0000
     19  C2B       48.0490    7.5410   27.0840 C.2   200  HEM200      0.0000
     20  C3B       47.5050    7.6520   28.2800 C.2   200  HEM200      0.0000
     21  C4B       47.9800    6.5550   29.1020 C.2   200  HEM200      0.0000
     22  CMB       47.8000    8.5010   25.9010 C.3   200  HEM200      0.0000
     23  CAB       46.5210    8.7530   28.6890 C.2   200  HEM200      0.0000
     24  CBB       45.2150    8.4960   28.6210 C.2   200  HEM200      0.0000
     25  NC        49.0870    4.3750   30.7950 N.ar  200  HEM200      0.0000
     26  C1C       48.1480    5.3110   31.1960 C.ar  200  HEM200      0.0000
     27  C2C       47.7930    5.0410   32.5710 C.ar  200  HEM200      0.0000
     28  C3C       48.5130    3.9850   32.9730 C.ar  200  HEM200      0.0000
     29  C4C       49.3410    3.5450   31.8670 C.ar  200  HEM200      0.0000
     30  CMC       46.7690    5.8460   33.4070 C.3   200  HEM200      0.0000
     31  CAC       48.4800    3.3300   34.3750 C.2   200  HEM200      0.0000
     32  CBC       49.5310    3.4320   35.2030 C.2   200  HEM200      0.0000
     33  ND        51.3030    2.7740   29.6860 N.2   200  HEM200      0.0000
     34  C1D       51.0770    2.1010   30.8810 C.2   200  HEM200      0.0000
     35  C2D       51.8910    0.9110   30.9070 C.2   200  HEM200      0.0000
     36  C3D       52.6710    0.8970   29.5860 C.2   200  HEM200      0.0000
     37  C4D       52.2350    2.1030   28.8920 C.2   200  HEM200      0.0000
     38  CMD       51.9620   -0.1300   32.0380 C.3   200  HEM200      0.0000
     39  CAD       53.6920   -0.1670   29.0870 C.3   200  HEM200      0.0000
     40  CBD       54.8080   -0.4470   30.0990 C.3   200  HEM200      0.0000
     41  CGD       55.9160   -1.2960   29.5010 C.2   200  HEM200      0.0000
     42  O1D       57.0730   -1.1710   29.9800 O.co2 200  HEM200      0.0000
     43  O2D       55.6680   -2.1000   28.5600 O.co2 200  HEM200      0.0000
@<TRIPOS>BOND
     1    16    14   ar
     2    11     9    1
     3    14    15   ar
     4    14    13    1
     5    12    13    1
     6    12     8    1
     7     9     8   ar
     8     9    10   ar
     9     8     7   ar
    10    22    19    1
    11     3    10    2
    12     3    18    1
    13    10     6   ar
    14     7     6   ar
    15     7     2    2
    16    19    18    1
    17    19    20    2
    18    18    17    2
    19     6     1    1
    20     2    37    1
    21    20    23    1
    22    20    21    1
    23    17     1    1
    24    17    21    1
    25    43    41   ar
    26    24    23    2
    27    37    36    1
    28    37    33    2
    29     1    33    1
    30     1    25    1
    31    39    36    1
    32    39    40    1
    33    21     4    2
    34    41    42   ar
    35    41    40    1
    36    36    35    2
    37    33    34    1
    38     4    26    1
    39    25    26   ar
    40    25    29   ar
    41    34    35    1
    42    34     5    2
    43    35    38    1
    44    26    27   ar
    45    29     5    1
    46    29    28   ar
    47    27    28   ar
    48    27    30    1
    49    28    31    1
    50    31    32    2
