@<TRIPOS>MOLECULE
2uyh_SAH_A_1.pdb
 26 28 0 0 0
SMALL
GASTEIGER

@<TRIPOS>ATOM
      1  N        -17.3890   30.8350   79.0420 N.3   1328  SAH1328    -0.1245
      2  CA       -17.7960   29.9640   80.1740 C.3   1328  SAH1328     0.1844
      3  CB       -17.7050   30.5510   81.5950 C.3   1328  SAH1328     0.0388
      4  CG       -16.3620   31.2010   81.9080 C.3   1328  SAH1328     0.0594
      5  SD       -16.2230   31.8920   83.5990 S.3   1328  SAH1328    -0.1376
      6  C        -19.2310   29.5460   79.7800 C.3   1328  SAH1328     0.4429
      7  O        -19.7750   29.9130   78.6810 O.2   1328  SAH1328    -0.2654
      8  OXT      -20.1850   29.7440   80.6520 O.2   1328  SAH1328    -0.2654
      9  C5'      -14.7210   31.0600   84.1750 C.3   1328  SAH1328     0.0899
     10  C4'      -14.8300   29.5980   84.6190 C.3   1328  SAH1328     0.1630
     11  O4'      -13.5530   29.1460   84.9940 O.3   1328  SAH1328    -0.3153
     12  C3'      -15.6730   29.3390   85.8610 C.3   1328  SAH1328     0.2168
     13  O3'      -16.8290   28.4960   85.6170 O.3   1328  SAH1328    -0.2175
     14  C2'      -14.6840   28.7050   86.8440 C.3   1328  SAH1328     0.2569
     15  O2'      -15.2780   27.7190   87.7320 O.3   1328  SAH1328    -0.2130
     16  C1'      -13.6740   28.0920   85.9330 C.3   1328  SAH1328     0.3185
     17  N9       -12.3770   27.9520   86.5500 N.pl3 1328  SAH1328    -0.1439
     18  C8       -11.7260   28.8870   87.3470 C.3   1328  SAH1328     0.3377
     19  N7       -10.5710   28.4820   87.7670 N.2   1328  SAH1328    -0.2095
     20  C5       -10.4230   27.2080   87.2290 C.2   1328  SAH1328     0.2526
     21  C6        -9.3910   26.2280   87.3140 C.2   1328  SAH1328     0.4393
     22  N6        -8.2690   26.3840   87.9960 N.pl3 1328  SAH1328     0.2180
     23  N1        -9.5740   25.0450   86.6460 N.2   1328  SAH1328     0.0021
     24  C2       -10.7000   24.8210   85.9350 C.3   1328  SAH1328     0.5254
     25  N3       -11.7340   25.6510   85.7800 N.2   1328  SAH1328    -0.0055
     26  C4       -11.5210   26.8490   86.4720 C.2   1328  SAH1328     0.3518
@<TRIPOS>BOND
     1     7     6    1
     2     1     2    1
     3     6     2    1
     4     6     8    1
     5     2     3    1
     6     3     4    1
     7     4     5    1
     8     5     9    1
     9     9    10    1
    10    10    11    1
    11    10    12    1
    12    11    16    1
    13    13    12    1
    14    25    24    1
    15    25    26    2
    16    12    14    1
    17    16    17    1
    18    16    14    1
    19    24    23    1
    20    26    17    1
    21    26    20    1
    22    17    18    1
    23    23    21    2
    24    14    15    1
    25    20    21    1
    26    20    19    2
    27    21    22    1
    28    18    19    1
