@<TRIPOS>MOLECULE
2uyi_K02_A_1.pdb
 25 27 0 0 0
SMALL
GASTEIGER

@<TRIPOS>ATOM
      1  O1        20.1950   14.2710   32.2420 O.2   604  K02604     -0.2674
      2  C13       19.1890   13.6690   31.8280 C.2   604  K02604      0.2755
      3  C14       18.1660   13.0830   32.7770 C.ar  604  K02604      0.0848
      4  S2        18.5230   13.1810   34.4630 S.2   604  K02604     -0.0818
      5  C15       17.1290   12.3700   35.0060 C.ar  604  K02604      0.0356
      6  C16       16.4480   11.9850   33.8530 C.ar  604  K02604      0.0076
      7  C17       17.0160   12.3470   32.6400 C.ar  604  K02604      0.0116
      8  N2        19.0430   13.4500   30.5040 N.am  604  K02604     -0.1683
      9  C12       19.7880   14.0760   29.5600 C.ar  604  K02604      0.1068
     10  S1        21.3750   13.6300   29.2690 S.2   604  K02604     -0.0750
     11  C6        21.5700   14.7720   28.0240 C.ar  604  K02604      0.0047
     12  C5        20.4070   15.5060   27.8360 C.ar  604  K02604     -0.0140
     13  C11       20.3650   16.5920   26.7720 C.3   604  K02604      0.0267
     14  C9        21.7590   17.0090   26.3250 C.3   604  K02604      0.0047
     15  C10       21.5640   17.6830   24.9630 C.3   604  K02604      0.0004
     16  C8        22.8310   15.9090   26.1650 C.3   604  K02604      0.0055
     17  C7        22.9000   14.8640   27.2900 C.3   604  K02604      0.0327
     18  C4        19.3800   15.1060   28.7010 C.ar  604  K02604      0.0712
     19  C3        18.0390   15.7960   28.6870 C.2   604  K02604      0.2505
     20  O2        17.3490   15.7420   27.7190 O.2   604  K02604     -0.2699
     21  N1        17.5480   16.5000   29.7230 N.am  604  K02604     -0.2760
     22  C2        16.1140   16.8740   29.7860 C.3   604  K02604      0.0938
     23  C1        15.4030   15.8340   30.6310 C.3   604  K02604      0.0233
     24  C18       18.3730   16.9170   30.8810 C.3   604  K02604      0.0938
     25  C19       18.5690   18.3970   30.8620 C.3   604  K02604      0.0233
@<TRIPOS>BOND
     1    15    14    1
     2    16    14    1
     3    16    17    1
     4    14    13    1
     5    13    12    1
     6    17    11    1
     7    20    19    2
     8    12    11   ar
     9    12    18   ar
    10    11    10   ar
    11    19    18    1
    12    19    21   am
    13    18     9   ar
    14    10     9   ar
    15     9     8    1
    16    21    22    1
    17    21    24    1
    18    22    23    1
    19     8     2   am
    20    25    24    1
    21     2     1    2
    22     2     3    1
    23     7     3   ar
    24     7     6   ar
    25     3     4   ar
    26     6     5   ar
    27     4     5   ar
