@<TRIPOS>MOLECULE
2uyi_ADP_A_1.pdb
 27 29 0 0 0
SMALL
GASTEIGER

@<TRIPOS>ATOM
      1  PB        15.0730    6.4860   19.7470 P.3   601  ADP601      0.5373
      2  O1B       15.9830    7.4430   20.3390 O.3   601  ADP601     -0.1143
      3  O2B       15.7300    5.2080   19.3890 O.3   601  ADP601     -0.1143
      4  O3B       14.3460    6.9280   18.5300 O.2   601  ADP601     -0.2221
      5  PA        13.5060    7.0380   22.1500 P.3   601  ADP601      0.2231
      6  O1A       13.0090    8.2890   21.5280 O.2   601  ADP601     -0.5169
      7  O2A       14.5400    7.1280   23.2070 O.3   601  ADP601     -0.4370
      8  O3A       14.0260    6.1390   20.9640 O.3   601  ADP601     -0.2261
      9  O5'       12.2430    6.0720   22.5350 O.3   601  ADP601     -0.3111
     10  C5'       10.9750    6.2830   21.9280 C.3   601  ADP601      0.1813
     11  C4'        9.8420    5.9140   22.8550 C.3   601  ADP601      0.1821
     12  O4'        9.9790    4.5850   23.4080 O.3   601  ADP601     -0.3135
     13  C3'        9.8660    6.8970   24.0030 C.3   601  ADP601      0.2184
     14  O3'        8.4960    6.9790   24.3720 O.3   601  ADP601     -0.2174
     15  C2'       10.5800    6.1730   25.0970 C.3   601  ADP601      0.2570
     16  O2'       10.1650    6.6880   26.3860 O.3   601  ADP601     -0.2130
     17  C1'       10.1730    4.7270   24.8300 C.3   601  ADP601      0.3186
     18  N9        11.2210    3.7840   25.2830 N.pl3 601  ADP601     -0.1439
     19  C8        12.3090    3.2810   24.6240 C.3   601  ADP601      0.3377
     20  N7        12.9630    2.3910   25.4340 N.2   601  ADP601     -0.2095
     21  C5        12.2810    2.3460   26.6060 C.2   601  ADP601      0.2526
     22  C6        12.4150    1.6130   27.8970 C.2   601  ADP601      0.4393
     23  N6        13.4390    0.7410   28.0490 N.pl3 601  ADP601      0.2180
     24  N1        11.4880    1.8250   28.8610 N.2   601  ADP601      0.0021
     25  C2        10.4450    2.6790   28.6890 C.3   601  ADP601      0.5254
     26  N3        10.2440    3.4030   27.5560 N.2   601  ADP601     -0.0055
     27  C4        11.1310    3.2450   26.5060 C.2   601  ADP601      0.3518
@<TRIPOS>BOND
     1     4     1    2
     2     3     1    1
     3     1     2    1
     4     1     8    1
     5     8     5    1
     6     6     5    2
     7    10     9    1
     8    10    11    1
     9     5     9    1
    10     5     7    1
    11    11    12    1
    12    11    13    1
    13    12    17    1
    14    13    14    1
    15    13    15    1
    16    19    18    1
    17    19    20    1
    18    17    15    1
    19    17    18    1
    20    15    16    1
    21    18    27    1
    22    20    21    2
    23    27    21    1
    24    27    26    2
    25    21    22    1
    26    26    25    1
    27    22    23    1
    28    22    24    2
    29    25    24    1
