@<TRIPOS>MOLECULE
2uym_K03_A_1.pdb
 26 28 0 0 0
SMALL
GASTEIGER

@<TRIPOS>ATOM
      1  O12       31.1390   14.3270   12.6180 O.2   604  K03604     -0.2674
      2  C11       30.6700   13.8940   13.6450 C.2   604  K03604      0.2755
      3  C13       31.5810   13.2950   14.6720 C.ar  604  K03604      0.0848
      4  S17       33.3590   13.4870   14.5000 S.2   604  K03604     -0.0818
      5  C16       33.6980   12.5870   15.9980 C.ar  604  K03604      0.0356
      6  C15       32.4640   12.2050   16.5280 C.ar  604  K03604      0.0076
      7  C14       31.3110   12.5740   15.8260 C.ar  604  K03604      0.0116
      8  N10       29.3480   13.9360   13.8890 N.am  604  K03604     -0.1683
      9  C9        28.4510   14.3570   12.9410 C.ar  604  K03604      0.1068
     10  S18       28.3580   13.6670   11.3060 S.2   604  K03604     -0.0750
     11  C19       27.0370   14.7930   10.9010 C.ar  604  K03604      0.0047
     12  C26       26.7190   15.6320   11.9710 C.ar  604  K03604     -0.0140
     13  C25       25.6250   16.6670   11.7970 C.3   604  K03604      0.0267
     14  C22       25.2640   16.8910   10.3040 C.3   604  K03604      0.0044
     15  C24       26.2900   17.7950    9.6270 C.3   604  K03604      0.0003
     16  C23       23.9570   17.6560   10.2870 C.3   604  K03604      0.0003
     17  C21       25.1390   15.5680    9.5210 C.3   604  K03604      0.0055
     18  C20       26.4380   14.7300    9.5160 C.3   604  K03604      0.0327
     19  C8        27.5330   15.3930   13.1200 C.ar  604  K03604      0.0712
     20  C6        27.3970   16.1320   14.4270 C.2   604  K03604      0.2505
     21  O7        26.3360   16.0160   15.0300 O.2   604  K03604     -0.2699
     22  N3        28.3660   16.8550   15.0080 N.am  604  K03604     -0.2760
     23  C4        29.6470   17.2030   14.4030 C.3   604  K03604      0.0938
     24  C5        29.6060   18.6120   13.8560 C.3   604  K03604      0.0233
     25  C2        28.1520   17.3220   16.3850 C.3   604  K03604      0.0938
     26  C1        29.2960   16.9990   17.3190 C.3   604  K03604      0.0233
@<TRIPOS>BOND
     1    18    17    1
     2    18    11    1
     3    17    14    1
     4    15    14    1
     5    16    14    1
     6    14    13    1
     7    11    10   ar
     8    11    12   ar
     9    10     9   ar
    10    13    12    1
    11    12    19   ar
    12     1     2    2
    13     9    19   ar
    14     9     8    1
    15    19    20    1
    16     2     8   am
    17     2     3    1
    18    24    23    1
    19    23    22    1
    20    20    22   am
    21    20    21    2
    22     4     3   ar
    23     4     5   ar
    24     3     7   ar
    25    22    25    1
    26     7     6   ar
    27     5     6   ar
    28    25    26    1
