@<TRIPOS>MOLECULE
2uym_ADP_A_1.pdb
 27 29 0 0 0
SMALL
GASTEIGER

@<TRIPOS>ATOM
      1  PB        18.2120    6.6890   16.8160 P.3   601  ADP601      0.5373
      2  O1B       18.9290    7.6630   15.9250 O.2   601  ADP601     -0.2221
      3  O2B       17.9740    5.4100   16.0640 O.3   601  ADP601     -0.1143
      4  O3B       17.0510    7.1940   17.5960 O.3   601  ADP601     -0.1143
      5  PA        20.4600    7.2430   18.6060 P.3   601  ADP601      0.2231
      6  O1A       19.7880    8.5210   19.0050 O.3   601  ADP601     -0.4370
      7  O2A       21.6480    7.2250   17.6740 O.2   601  ADP601     -0.5169
      8  O3A       19.3040    6.3010   17.9620 O.3   601  ADP601     -0.2261
      9  O5'       20.7430    6.3290   19.9040 O.3   601  ADP601     -0.3111
     10  C5'       19.8740    6.4140   21.0560 C.3   601  ADP601      0.1813
     11  C4'       20.6940    6.2540   22.3490 C.3   601  ADP601      0.1821
     12  O4'       21.2920    4.9500   22.4040 O.3   601  ADP601     -0.3135
     13  C3'       21.8610    7.2500   22.4690 C.3   601  ADP601      0.2184
     14  O3'       22.0780    7.5860   23.8560 O.3   601  ADP601     -0.2174
     15  C2'       23.0750    6.4850   21.9920 C.3   601  ADP601      0.2570
     16  O2'       24.2620    6.8860   22.6950 O.3   601  ADP601     -0.2130
     17  C1'       22.7240    5.0550   22.3630 C.3   601  ADP601      0.3186
     18  N9        23.2870    4.0680   21.4180 N.pl3 601  ADP601     -0.1439
     19  C8        22.6750    3.5780   20.3250 C.3   601  ADP601      0.3377
     20  N7        23.4460    2.6640   19.6900 N.2   601  ADP601     -0.2095
     21  C5        24.5800    2.5570   20.4000 C.2   601  ADP601      0.2526
     22  C6        25.8300    1.7610   20.3060 C.2   601  ADP601      0.4393
     23  N6        25.9960    0.8990   19.2780 N.pl3 601  ADP601      0.2180
     24  N1        26.7940    1.9520   21.2490 N.2   601  ADP601      0.0021
     25  C2        26.6240    2.8100   22.2730 C.3   601  ADP601      0.5254
     26  N3        25.5030    3.5530   22.4310 N.2   601  ADP601     -0.0055
     27  C4        24.4720    3.4760   21.5420 C.2   601  ADP601      0.3518
@<TRIPOS>BOND
     1     2     1    2
     2     3     1    1
     3     1     4    1
     4     1     8    1
     5     7     5    2
     6     8     5    1
     7     5     6    1
     8     5     9    1
     9    23    22    1
    10    20    19    1
    11    20    21    2
    12     9    10    1
    13    22    21    1
    14    22    24    2
    15    19    18    1
    16    21    27    1
    17    10    11    1
    18    24    25    1
    19    18    27    1
    20    18    17    1
    21    27    26    2
    22    15    17    1
    23    15    13    1
    24    15    16    1
    25    25    26    1
    26    11    12    1
    27    11    13    1
    28    17    12    1
    29    13    14    1
