@<TRIPOS>MOLECULE
2uyq_SAM_A_1.pdb
 17 19 0 0 0
SMALL
GASTEIGER

@<TRIPOS>ATOM
      1  C4'       -9.4620  -26.8210   -3.5750 C.3   1311  SAM1311     0.1820
      2  O4'       -8.4550  -27.7650   -3.1920 O.3   1311  SAM1311    -0.3135
      3  C3'       -8.8400  -25.4410   -3.3670 C.3   1311  SAM1311     0.2184
      4  O3'       -9.2770  -24.9060   -2.1380 O.3   1311  SAM1311    -0.2174
      5  C2'       -7.3440  -25.6910   -3.2510 C.3   1311  SAM1311     0.2570
      6  O2'       -6.6570  -24.6720   -2.5170 O.3   1311  SAM1311    -0.2130
      7  C1'       -7.4070  -27.0390   -2.5520 C.3   1311  SAM1311     0.3186
      8  N9        -6.1070  -27.7180   -2.5790 N.pl3 1311  SAM1311    -0.1439
      9  C8        -5.5020  -28.2500   -3.6850 C.3   1311  SAM1311     0.3377
     10  N7        -4.3120  -28.7550   -3.2890 N.2   1311  SAM1311    -0.2095
     11  C5        -4.1590  -28.5670   -1.9440 C.2   1311  SAM1311     0.2526
     12  C6        -3.1390  -28.9000   -1.0450 C.2   1311  SAM1311     0.4393
     13  N6        -2.0350  -29.5350   -1.4640 N.pl3 1311  SAM1311     0.2180
     14  N1        -3.2860  -28.5700    0.2920 N.2   1311  SAM1311     0.0021
     15  C2        -4.4150  -27.9040    0.7510 C.3   1311  SAM1311     0.5254
     16  N3        -5.4180  -27.5860   -0.1490 N.2   1311  SAM1311    -0.0055
     17  C4        -5.2910  -27.9080   -1.4760 C.2   1311  SAM1311     0.3518
@<TRIPOS>BOND
     1     9    10    1
     2     9     8    1
     3     1     3    1
     4     1     2    1
     5     3     5    1
     6     3     4    1
     7    10    11    2
     8     5     7    1
     9     5     6    1
    10     2     7    1
    11     8     7    1
    12     8    17    1
    13    11    17    1
    14    11    12    1
    15    17    16    2
    16    13    12    1
    17    12    14    2
    18    16    15    1
    19    14    15    1
