@<TRIPOS>MOLECULE
2uyt_ADP_A_1.pdb
 27 29 0 0 0
SMALL
GASTEIGER

@<TRIPOS>ATOM
      1  PB       -21.5840    2.6960   24.2220 P.3   1482  ADP1482     0.5373
      2  O1B      -20.2450    3.1890   24.6840 O.3   1482  ADP1482    -0.1143
      3  O2B      -21.5200    1.4230   23.4450 O.2   1482  ADP1482    -0.2221
      4  O3B      -22.4740    3.7250   23.5660 O.3   1482  ADP1482    -0.1143
      5  PA       -22.0730    2.1070   27.0880 P.3   1482  ADP1482     0.2231
      6  O1A      -21.0090    1.0550   27.4060 O.2   1482  ADP1482    -0.5169
      7  O2A      -21.7660    3.4860   27.6390 O.3   1482  ADP1482    -0.4370
      8  O3A      -22.4190    2.1730   25.5160 O.3   1482  ADP1482    -0.2261
      9  O5'      -23.4770    1.5310   27.6280 O.3   1482  ADP1482    -0.3111
     10  C5'      -24.6650    2.3260   27.4980 C.3   1482  ADP1482     0.1813
     11  C4'      -25.8160    1.4440   27.8890 C.3   1482  ADP1482     0.1821
     12  O4'      -25.6960    1.1620   29.2760 O.3   1482  ADP1482    -0.3135
     13  C3'      -27.1180    2.1940   27.7970 C.3   1482  ADP1482     0.2184
     14  O3'      -27.6600    1.9940   26.5010 O.3   1482  ADP1482    -0.2174
     15  C2'      -27.9680    1.4620   28.8160 C.3   1482  ADP1482     0.2570
     16  O2'      -28.6310    0.3600   28.2360 O.3   1482  ADP1482    -0.2130
     17  C1'      -26.9830    0.9520   29.8450 C.3   1482  ADP1482     0.3186
     18  N9       -27.0890    1.7300   31.0890 N.pl3 1482  ADP1482    -0.1439
     19  C8       -26.6470    2.9870   31.3190 C.3   1482  ADP1482     0.3377
     20  N7       -26.9270    3.3700   32.5930 N.2   1482  ADP1482    -0.2095
     21  C5       -27.5810    2.3430   33.1780 C.2   1482  ADP1482     0.2526
     22  C6       -28.1670    2.0780   34.5080 C.2   1482  ADP1482     0.4393
     23  N6       -28.0920    3.0500   35.4620 N.pl3 1482  ADP1482     0.2180
     24  N1       -28.7490    0.8660   34.6960 N.2   1482  ADP1482     0.0021
     25  C2       -28.8170   -0.0830   33.7430 C.3   1482  ADP1482     0.5254
     26  N3       -28.2920    0.0920   32.5140 N.2   1482  ADP1482    -0.0055
     27  C4       -27.6860    1.2650   32.1870 C.2   1482  ADP1482     0.3518
@<TRIPOS>BOND
     1     3     1    2
     2     4     1    1
     3     1     2    1
     4     1     8    1
     5     8     5    1
     6    14    13    1
     7     5     6    2
     8     5     9    1
     9     5     7    1
    10    10     9    1
    11    10    11    1
    12    13    11    1
    13    13    15    1
    14    11    12    1
    15    16    15    1
    16    15    17    1
    17    12    17    1
    18    17    18    1
    19    18    19    1
    20    18    27    1
    21    19    20    1
    22    27    26    2
    23    27    21    1
    24    26    25    1
    25    20    21    2
    26    21    22    1
    27    25    24    1
    28    22    24    2
    29    22    23    1
