@<TRIPOS>MOLECULE
2uyt_LRH_A_1.pdb
 11 11 0 0 0
SMALL
GASTEIGER

@<TRIPOS>ATOM
      1  C1       -18.7670   -1.1540   19.7800 C.3   1481  LRH1481     0.2434
      2  C2       -18.1680   -1.3780   18.3940 C.3   1481  LRH1481     0.2807
      3  C3       -18.1470   -2.8380   17.9620 C.3   1481  LRH1481     0.2408
      4  C4       -18.1130   -2.6630   16.4520 C.3   1481  LRH1481     0.2141
      5  C5       -19.1410   -1.5390   16.2670 C.3   1481  LRH1481     0.1509
      6  C6       -18.9580   -0.7130   15.0010 C.3   1481  LRH1481     0.0350
      7  O1       -18.7820    0.2490   20.0860 O.3   1481  LRH1481    -0.2148
      8  O2       -16.8360   -0.7990   18.3940 O.3   1481  LRH1481    -0.1896
      9  O3       -17.0380   -3.5700   18.5470 O.3   1481  LRH1481    -0.2149
     10  O4       -18.5030   -3.8260   15.7520 O.3   1481  LRH1481    -0.2176
     11  O5       -18.9760   -0.6820   17.4200 O.3   1481  LRH1481    -0.3281
@<TRIPOS>BOND
     1     6     5    1
     2    10     4    1
     3     5     4    1
     4     5    11    1
     5     4     3    1
     6    11     2    1
     7     3     2    1
     8     3     9    1
     9     2     8    1
    10     2     1    1
    11     1     7    1
