@<TRIPOS>MOLECULE
2uyw_BTN_A_1.pdb
 16 17 0 0 0
SMALL
GASTEIGER

@<TRIPOS>ATOM
      1  C11        5.0870   35.2290   64.9790 C.2   1123  BTN1123     0.3649
      2  O11        3.9130   35.4610   65.3690 O.co2 1123  BTN1123    -0.2457
      3  O12        5.8660   36.2030   64.7920 O.co2 1123  BTN1123    -0.2457
      4  C10        5.5620   33.8030   64.7880 C.3   1123  BTN1123     0.1141
      5  C9         6.9520   33.6270   64.1850 C.3   1123  BTN1123     0.0118
      6  C8         6.9030   33.5700   62.6440 C.3   1123  BTN1123     0.0015
      7  C7         8.2790   33.4050   62.0230 C.3   1123  BTN1123     0.0129
      8  C2         8.2790   33.1810   60.5070 C.3   1123  BTN1123     0.0729
      9  S1         7.6530   31.6780   60.0190 S.3   1123  BTN1123    -0.1369
     10  C6         8.2530   31.9720   58.3370 C.3   1123  BTN1123     0.0848
     11  C5         9.6140   32.6440   58.5050 C.3   1123  BTN1123     0.1509
     12  N1        10.6330   31.6320   58.5340 N.2   1123  BTN1123    -0.1859
     13  C3        11.2530   31.6210   59.7220 C.1   1123  BTN1123     0.2386
     14  O3        12.2740   30.7130   60.0050 O.2   1123  BTN1123    -0.2023
     15  N2        10.7480   32.5180   60.5490 N.2   1123  BTN1123    -0.1860
     16  C4         9.6830   33.2830   59.8820 C.3   1123  BTN1123     0.1500
@<TRIPOS>BOND
     1    10    11    1
     2    10     9    1
     3    11    12    1
     4    11    16    1
     5    12    13    2
     6    13    14    2
     7    13    15    2
     8    16     8    1
     9    16    15    1
    10     9     8    1
    11     8     7    1
    12     7     6    1
    13     6     5    1
    14     5     4    1
    15     4     1    1
    16     3     1   ar
    17     1     2   ar
