@<TRIPOS>MOLECULE
2uyy_NA7_A_1.pdb
 39 42 0 0 0
SMALL
GASTEIGER

@<TRIPOS>ATOM
      1  PA        35.2100   33.2250   -1.4710 P.3   1555  NA71555     0.2189
      2  O1A       36.6620   33.1680   -1.1550 O.2   1555  NA71555    -0.5170
      3  O2A       34.5270   34.3820   -0.8670 O.3   1555  NA71555    -0.4371
      4  O5B       35.0930   33.3170   -3.0530 O.3   1555  NA71555    -0.3112
      5  C5B       33.8180   33.2520   -3.6150 C.3   1555  NA71555     0.1813
      6  C4B       33.9710   33.2820   -5.1070 C.3   1555  NA71555     0.1820
      7  O4B       32.6690   33.3690   -5.6240 O.3   1555  NA71555    -0.3136
      8  C3B       34.7430   34.5200   -5.5380 C.3   1555  NA71555     0.2157
      9  O3B       35.7880   34.1310   -6.3890 O.3   1555  NA71555    -0.2175
     10  C2B       33.7090   35.3810   -6.2350 C.3   1555  NA71555     0.2314
     11  O2B       34.2230   36.0480   -7.3710 O.3   1555  NA71555    -0.2630
     12  C1B       32.6430   34.3750   -6.6040 C.3   1555  NA71555     0.3158
     13  N9A       31.3040   34.9630   -6.7350 N.pl3 1555  NA71555    -0.1439
     14  C8A       30.4870   35.5080   -5.7760 C.3   1555  NA71555     0.3377
     15  N7A       29.3460   35.9090   -6.4040 N.2   1555  NA71555    -0.2095
     16  C5A       29.4240   35.6190   -7.7440 C.2   1555  NA71555     0.2526
     17  C6A       28.5620   35.7740   -8.8520 C.2   1555  NA71555     0.4393
     18  N6A       27.3460   36.3260   -8.7680 N.pl3 1555  NA71555     0.2180
     19  N1A       28.9830   35.3420  -10.0920 N.2   1555  NA71555     0.0021
     20  C2A       30.2320   34.7650  -10.2650 C.3   1555  NA71555     0.5254
     21  N3A       31.0710   34.5960   -9.1920 N.2   1555  NA71555    -0.0055
     22  C4A       30.6660   35.0140   -7.9520 C.2   1555  NA71555     0.3518
     23  O3        34.3710   31.8800   -1.1450 O.3   1555  NA71555    -0.2703
     24  PN        34.9980   30.4550   -0.7120 P.3   1555  NA71555     0.2189
     25  O1N       35.8210   29.8730   -1.7960 O.2   1555  NA71555    -0.5170
     26  O2N       35.5820   30.6640    0.6280 O.3   1555  NA71555    -0.4371
     27  O5D       33.6780   29.5240   -0.5320 O.3   1555  NA71555    -0.3112
     28  C5D       33.2040   28.6630   -1.5490 C.3   1555  NA71555     0.1812
     29  C4D       32.0750   27.7390   -1.0770 C.3   1555  NA71555     0.1780
     30  O4D       32.6210   26.7160   -0.2570 O.3   1555  NA71555    -0.3482
     31  C3D       30.9790   28.4310   -0.2710 C.3   1555  NA71555     0.2140
     32  O3D       29.7090   28.0530   -0.7470 O.3   1555  NA71555    -0.2176
     33  C2D       31.2000   27.9430    1.1490 C.3   1555  NA71555     0.2140
     34  O2D       30.0220   27.8410    1.9190 O.3   1555  NA71555    -0.2176
     35  C1D       31.8900   26.5990    0.9560 C.3   1555  NA71555     0.1777
     36  P2B       35.1480   37.3340   -7.1090 P.3   1555  NA71555     0.5328
     37  O1X       36.5530   36.8780   -6.7190 O.3   1555  NA71555    -0.1145
     38  O2X       35.1520   38.2150   -8.3330 O.2   1555  NA71555    -0.2224
     39  O3X       34.5280   38.0930   -5.9690 O.3   1555  NA71555    -0.1145
@<TRIPOS>BOND
     1    20    19    1
     2    20    21    1
     3    19    17    2
     4    21    22    2
     5    17    18    1
     6    17    16    1
     7    38    36    2
     8    22    16    1
     9    22    13    1
    10    16    15    2
    11    11    36    1
    12    11    10    1
    13    36    37    1
    14    36    39    1
    15    13    12    1
    16    13    14    1
    17    12    10    1
    18    12     7    1
    19    15    14    1
    20     9     8    1
    21    10     8    1
    22     7     6    1
    23     8     6    1
    24     6     5    1
    25     5     4    1
    26     4     1    1
    27    25    24    2
    28    28    29    1
    29    28    27    1
    30     1     2    2
    31     1    23    1
    32     1     3    1
    33    23    24    1
    34    29    31    1
    35    29    30    1
    36    32    31    1
    37    24    27    1
    38    24    26    1
    39    31    33    1
    40    30    35    1
    41    35    33    1
    42    33    34    1
