@<TRIPOS>MOLECULE
2uz1_TPP_A_1.pdb
 26 27 0 0 0
SMALL
GASTEIGER

@<TRIPOS>ATOM
      1  N1'       13.7730    5.8500   18.4310 N.2   1556  TPP1556    -0.1861
      2  C2'       14.2010    6.0660   19.7250 C.1   1556  TPP1556     0.0663
      3  CM2       14.6650    4.9010   20.5450 C.3   1556  TPP1556     0.1291
      4  N3'       14.1930    7.3370   20.2650 N.2   1556  TPP1556    -0.3368
      5  C4'       13.7760    8.4220   19.5120 C.2   1556  TPP1556     0.2292
      6  N4'       13.8030    9.6400   20.0600 N.pl3 1556  TPP1556    -0.0925
      7  C5'       13.3170    8.2130   18.1990 C.2   1556  TPP1556     0.0654
      8  C6'       13.3400    6.9310   17.6610 C.2   1556  TPP1556     0.1115
      9  C7'       12.8330    9.3690   17.3350 C.3   1556  TPP1556     0.1237
     10  N3        11.5690    9.9430   17.8160 N.pl3 1556  TPP1556    -0.2970
     11  C2        11.4520   11.1610   18.4810 C.3   1556  TPP1556     0.1543
     12  S1         9.9280   11.5670   18.8800 S.3   1556  TPP1556    -0.0951
     13  C5         9.3520   10.1990   18.1850 C.2   1556  TPP1556     0.0164
     14  C4        10.3450    9.3820   17.6210 C.2   1556  TPP1556     0.0279
     15  CM4       10.1080    8.0690   16.9040 C.3   1556  TPP1556     0.0473
     16  C6         7.8490    9.9800   18.1880 C.3   1556  TPP1556     0.0661
     17  C7         7.3070    9.2640   19.4250 C.3   1556  TPP1556     0.1544
     18  O7         5.9370    8.9630   19.1590 O.3   1556  TPP1556    -0.3134
     19  PA         4.9360    8.6510   20.3660 P.3   1556  TPP1556     0.2230
     20  O1A        5.5950    7.7400   21.3600 O.3   1556  TPP1556    -0.4370
     21  O2A        3.6830    8.0400   19.8340 O.2   1556  TPP1556    -0.5169
     22  O3A        4.7640   10.0860   21.0550 O.3   1556  TPP1556    -0.2261
     23  PB         3.9930   11.3400   20.3740 P.3   1556  TPP1556     0.5373
     24  O1B        3.1340   10.8990   19.2530 O.2   1556  TPP1556    -0.2221
     25  O2B        5.0320   12.3480   19.9420 O.3   1556  TPP1556    -0.1143
     26  O3B        3.1200   11.9340   21.4870 O.3   1556  TPP1556    -0.1143
@<TRIPOS>BOND
     1    15    14    1
     2     9    10    1
     3     9     7    1
     4    14    10    1
     5    14    13    2
     6     8     7    2
     7     8     1    1
     8    10    11    1
     9    13    16    1
    10    13    12    1
    11    16    17    1
    12     7     5    1
    13     1     2    2
    14    11    12    1
    15    18    17    1
    16    18    19    1
    17    24    23    2
    18     5     6    1
    19     5     4    2
    20     2     4    2
    21     2     3    1
    22    21    19    2
    23    25    23    1
    24    19    22    1
    25    19    20    1
    26    23    22    1
    27    23    26    1
