@<TRIPOS>MOLECULE
2uz2_BTN_D_1.pdb
 16 17 0 0 0
SMALL
GASTEIGER

@<TRIPOS>ATOM
      1  C11       -2.4170   14.7400   43.8410 C.2   1124  BTN1124     0.3649
      2  O11       -1.1940   14.6410   43.5860 O.co2 1124  BTN1124    -0.2457
      3  O12       -3.2220   14.6400   42.8830 O.co2 1124  BTN1124    -0.2457
      4  C10       -2.9180   14.9660   45.2560 C.3   1124  BTN1124     0.1141
      5  C9        -4.3430   15.5070   45.2910 C.3   1124  BTN1124     0.0118
      6  C8        -4.3500   17.0460   45.3210 C.3   1124  BTN1124     0.0015
      7  C7        -5.6410   17.6240   45.8740 C.3   1124  BTN1124     0.0129
      8  C2        -5.6250   19.1580   45.9310 C.3   1124  BTN1124     0.0729
      9  S1        -4.6060   19.7050   47.1360 S.3   1124  BTN1124    -0.1369
     10  C6        -5.4790   21.3090   47.2470 C.3   1124  BTN1124     0.0848
     11  C5        -6.8960   21.2060   46.7100 C.3   1124  BTN1124     0.1509
     12  N1        -7.9560   21.1880   47.7220 N.2   1124  BTN1124    -0.1859
     13  C3        -8.6510   20.0430   47.6490 C.1   1124  BTN1124     0.2386
     14  O3        -9.9110   19.7910   48.2220 O.2   1124  BTN1124    -0.2023
     15  N2        -7.9980   19.1580   46.9000 N.2   1124  BTN1124    -0.1860
     16  C4        -7.0040   19.8240   46.0710 C.3   1124  BTN1124     0.1500
@<TRIPOS>BOND
     1     3     1   ar
     2     2     1   ar
     3     1     4    1
     4     4     5    1
     5     5     6    1
     6     6     7    1
     7     7     8    1
     8     8    16    1
     9     8     9    1
    10    16    11    1
    11    16    15    1
    12    11    10    1
    13    11    12    1
    14    15    13    2
    15     9    10    1
    16    13    12    2
    17    13    14    2
