@<TRIPOS>MOLECULE
2uz3_TTP_A_1.pdb
 29 30 0 0 0
SMALL
GASTEIGER

@<TRIPOS>ATOM
      1  PA        43.9990   21.9690   56.8230 P.3   1220  TTP1220     0.2189
      2  O1A       43.7880   20.6130   56.1980 O.3   1220  TTP1220    -0.4371
      3  O2A       44.9910   22.7990   56.0230 O.2   1220  TTP1220    -0.5170
      4  O3A       42.6410   22.8170   56.9280 O.3   1220  TTP1220    -0.2700
      5  PB        41.3630   21.9750   57.3860 P.3   1220  TTP1220     0.2277
      6  O1B       41.3320   20.6460   56.6770 O.2   1220  TTP1220    -0.5168
      7  O2B       41.3160   21.8250   58.8820 O.3   1220  TTP1220    -0.4368
      8  O3B       40.1000   22.8320   56.9290 O.3   1220  TTP1220    -0.2258
      9  PG        39.4800   22.6960   55.4720 P.3   1220  TTP1220     0.5373
     10  O1G       40.5370   22.3760   54.4330 O.2   1220  TTP1220    -0.2221
     11  O2G       38.8910   24.0550   55.2080 O.3   1220  TTP1220    -0.1143
     12  O3G       38.4130   21.6360   55.5040 O.3   1220  TTP1220    -0.1143
     13  O5'       44.5060   21.6960   58.3290 O.3   1220  TTP1220    -0.3112
     14  C5'       45.5190   22.5430   58.8630 C.3   1220  TTP1220     0.1812
     15  C4'       46.8050   21.7900   59.1720 C.3   1220  TTP1220     0.1773
     16  O4'       47.8250   22.7520   59.4540 O.3   1220  TTP1220    -0.3339
     17  C3'       46.6170   20.9520   60.4240 C.3   1220  TTP1220     0.1857
     18  O3'       47.1980   19.6590   60.2320 O.3   1220  TTP1220    -0.2203
     19  C2'       47.2990   21.7180   61.5440 C.3   1220  TTP1220     0.0874
     20  C1'       48.2560   22.6530   60.8180 C.3   1220  TTP1220     0.2090
     21  N1        48.4520   23.9610   61.4920 N.am  1220  TTP1220    -0.1794
     22  C2        49.7800   24.2700   61.8630 C.1   1220  TTP1220     0.2844
     23  O2        50.6630   23.4290   61.5920 O.2   1220  TTP1220    -0.1918
     24  N3        50.1110   25.4130   62.4820 N.2   1220  TTP1220    -0.2455
     25  C4        49.1740   26.3140   62.7810 C.1   1220  TTP1220     0.2134
     26  O4        49.4940   27.3710   63.3680 O.2   1220  TTP1220    -0.2088
     27  C5        47.7520   26.0320   62.4140 C.2   1220  TTP1220     0.0891
     28  C5M       46.6670   27.0330   62.7310 C.3   1220  TTP1220     0.0462
     29  C6        47.4570   24.8300   61.7690 C.2   1220  TTP1220     0.0877
@<TRIPOS>BOND
     1    10     9    2
     2    11     9    1
     3     9    12    1
     4     9     8    1
     5     3     1    2
     6     2     1    1
     7     6     5    2
     8     1     4    1
     9     1    13    1
    10     4     5    1
    11     8     5    1
    12     5     7    1
    13    13    14    1
    14    14    15    1
    15    15    16    1
    16    15    17    1
    17    16    20    1
    18    18    17    1
    19    17    19    1
    20    20    21    1
    21    20    19    1
    22    21    29    1
    23    21    22   am
    24    23    22    2
    25    29    27    2
    26    22    24    2
    27    27    28    1
    28    27    25    1
    29    24    25    2
    30    25    26    2
