@<TRIPOS>MOLECULE
2uz4_SAH_A_1.pdb
 26 28 0 0 0
SMALL
GASTEIGER

@<TRIPOS>ATOM
      1  N        -17.3690   30.7130   78.9560 N.3   1328  SAH1328    -0.1245
      2  CA       -17.7570   29.8780   80.1160 C.3   1328  SAH1328     0.1844
      3  CB       -17.6840   30.5130   81.5060 C.3   1328  SAH1328     0.0388
      4  CG       -16.2880   31.0010   81.8660 C.3   1328  SAH1328     0.0594
      5  SD       -16.1360   31.7600   83.5200 S.3   1328  SAH1328    -0.1376
      6  C        -19.1760   29.3960   79.7320 C.3   1328  SAH1328     0.4429
      7  O        -19.7180   29.7070   78.6210 O.2   1328  SAH1328    -0.2654
      8  OXT      -20.1490   29.5810   80.5940 O.2   1328  SAH1328    -0.2654
      9  C5'      -14.6180   30.9610   84.0690 C.3   1328  SAH1328     0.0899
     10  C4'      -14.7340   29.4970   84.4670 C.3   1328  SAH1328     0.1630
     11  O4'      -13.4680   29.0330   84.8470 O.3   1328  SAH1328    -0.3153
     12  C3'      -15.6000   29.2320   85.6860 C.3   1328  SAH1328     0.2168
     13  O3'      -16.7190   28.3600   85.3790 O.3   1328  SAH1328    -0.2175
     14  C2'      -14.6230   28.6060   86.6890 C.3   1328  SAH1328     0.2569
     15  O2'      -15.2190   27.6310   87.5740 O.3   1328  SAH1328    -0.2130
     16  C1'      -13.6090   27.9820   85.8000 C.3   1328  SAH1328     0.3185
     17  N9       -12.3250   27.8610   86.4150 N.pl3 1328  SAH1328    -0.1439
     18  C8       -11.6960   28.8100   87.2070 C.3   1328  SAH1328     0.3377
     19  N7       -10.5360   28.4310   87.6240 N.2   1328  SAH1328    -0.2095
     20  C5       -10.3610   27.1590   87.0910 C.2   1328  SAH1328     0.2526
     21  C6        -9.3030   26.2060   87.1740 C.2   1328  SAH1328     0.4393
     22  N6        -8.1790   26.3940   87.8490 N.pl3 1328  SAH1328     0.2180
     23  N1        -9.4620   25.0150   86.5110 N.2   1328  SAH1328     0.0021
     24  C2       -10.5900   24.7620   85.8010 C.3   1328  SAH1328     0.5254
     25  N3       -11.6450   25.5730   85.6480 N.2   1328  SAH1328    -0.0055
     26  C4       -11.4530   26.7770   86.3370 C.2   1328  SAH1328     0.3518
@<TRIPOS>BOND
     1     7     6    1
     2     1     2    1
     3     6     2    1
     4     6     8    1
     5     2     3    1
     6     3     4    1
     7     4     5    1
     8     5     9    1
     9     9    10    1
    10    10    11    1
    11    10    12    1
    12    11    16    1
    13    13    12    1
    14    25    24    1
    15    25    26    2
    16    12    14    1
    17    16    17    1
    18    16    14    1
    19    24    23    1
    20    26    17    1
    21    26    20    1
    22    17    18    1
    23    23    21    2
    24    14    15    1
    25    20    21    1
    26    20    19    2
    27    21    22    1
    28    18    19    1
