@<TRIPOS>MOLECULE
2uz9_XAN_A_1.pdb
 11 12 0 0 0
SMALL
GASTEIGER

@<TRIPOS>ATOM
      1  N9        -2.4870    8.4560  -29.7040 N.2   1453  XAN1453    -0.1801
      2  C4        -1.7010    7.4710  -30.1220 C.1   1453  XAN1453     0.1305
      3  N3        -0.3860    7.3260  -30.2860 N.2   1453  XAN1453    -0.2508
      4  C2         0.1410    6.1680  -30.7390 C.1   1453  XAN1453     0.3744
      5  O2         1.3810    6.1100  -30.8660 O.2   1453  XAN1453    -0.1738
      6  N1        -0.6180    5.0860  -31.0700 N.2   1453  XAN1453    -0.2300
      7  C6        -1.9570    5.0950  -30.9450 C.1   1453  XAN1453     0.2457
      8  O6        -2.6510    4.1020  -31.2350 O.2   1453  XAN1453    -0.2062
      9  C5        -2.5830    6.3380  -30.4380 C.2   1453  XAN1453     0.2483
     10  N7        -3.8260    6.7430  -30.1820 N.2   1453  XAN1453    -0.2212
     11  C8        -3.7620    8.0180  -29.7410 C.3   1453  XAN1453     0.2633
@<TRIPOS>BOND
     1     8     7    2
     2     6     7    2
     3     6     4    2
     4     7     9    1
     5     5     4    2
     6     4     3    2
     7     9    10    2
     8     9     2    1
     9     3     2    2
    10    10    11    1
    11     2     1    2
    12    11     1    1
