@<TRIPOS>MOLECULE
2uza_HTL_A_1.pdb
 29 30 0 0 0
SMALL
GASTEIGER

@<TRIPOS>ATOM
      1  N1'      -27.1230  -63.7530   25.2830 N.2   1236  HTL1236    -0.1861
      2  C2'      -25.8000  -63.8430   25.8070 C.1   1236  HTL1236     0.0663
      3  C2A      -25.0940  -62.7030   26.4910 C.3   1236  HTL1236     0.1291
      4  N3'      -25.1720  -64.9470   25.7000 N.2   1236  HTL1236    -0.3368
      5  C4'      -25.7060  -66.1130   25.0660 C.2   1236  HTL1236     0.2289
      6  N4'      -24.8730  -67.2090   25.0490 N.pl3 1236  HTL1236    -0.0925
      7  C5'      -27.0900  -66.0830   24.4620 C.2   1236  HTL1236     0.0616
      8  C6'      -27.7380  -64.8430   24.6370 C.2   1236  HTL1236     0.1112
      9  C35      -27.7170  -67.2400   23.7230 C.3   1236  HTL1236     0.1055
     10  N3       -26.8590  -67.4520   22.5360 N.3   1236  HTL1236    -0.2598
     11  C2       -26.2770  -68.9020   22.4400 C.3   1236  HTL1236     0.1370
     12  S1       -26.3290  -69.4850   20.8060 S.3   1236  HTL1236    -0.1218
     13  C5       -26.5210  -67.7510   20.2270 C.3   1236  HTL1236     0.0661
     14  C4       -27.2410  -67.0070   21.2720 C.3   1236  HTL1236     0.0686
     15  C4A      -28.4480  -65.9590   20.9840 C.3   1236  HTL1236     0.0183
     16  C5A      -27.1380  -67.7430   18.7780 C.3   1236  HTL1236     0.0447
     17  C5B      -26.4830  -66.7090   17.9270 C.3   1236  HTL1236     0.1501
     18  O5G      -26.5810  -66.7250   16.6140 O.3   1236  HTL1236    -0.3138
     19  P1       -25.5560  -66.2630   15.5760 P.3   1236  HTL1236     0.2230
     20  O11      -25.0140  -67.5890   15.1830 O.3   1236  HTL1236    -0.2261
     21  O12      -26.4100  -65.6600   14.3700 O.2   1236  HTL1236    -0.5169
     22  O13      -24.4930  -65.3960   16.0860 O.3   1236  HTL1236    -0.4370
     23  P2       -25.7480  -69.0460   14.5510 P.3   1236  HTL1236     0.5373
     24  O21      -26.9770  -68.4090   13.7210 O.3   1236  HTL1236    -0.1143
     25  O22      -24.8140  -69.6670   13.6060 O.2   1236  HTL1236    -0.2221
     26  O23      -26.3440  -69.8650   15.7160 O.3   1236  HTL1236    -0.1143
     27  C1'      -25.7600  -69.9980   23.9590 C.3   1236  HTL1236     0.1768
     28  O2'      -26.2150  -69.7100   25.1960 O.3   1236  HTL1236    -0.2208
     29  C3'      -25.3340  -71.4440   23.7250 C.3   1236  HTL1236     0.0379
@<TRIPOS>BOND
     1    25    23    2
     2    24    23    1
     3    21    19    2
     4    23    20    1
     5    23    26    1
     6    20    19    1
     7    19    22    1
     8    19    18    1
     9    18    17    1
    10    17    16    1
    11    16    13    1
    12    13    12    1
    13    13    14    1
    14    12    11    1
    15    15    14    1
    16    14    10    1
    17    11    10    1
    18    11    27    1
    19    10     9    1
    20     9     7    1
    21    29    27    1
    22    27    28    1
    23     7     8    2
    24     7     5    1
    25     8     1    1
    26     6     5    1
    27     5     4    2
    28     1     2    2
    29     4     2    2
    30     2     3    1
