@<TRIPOS>MOLECULE
2uzb_C75_A_1.pdb
 24 26 0 0 0
SMALL
GASTEIGER

@<TRIPOS>ATOM
      1  O4        39.3900   22.0360   -6.6480 O.2   1297  C751297    -0.1516
      2  S2        40.3850   21.1280   -6.1480 S.O2  1297  C751297     0.0769
      3  O3        40.8560   20.2940   -7.2180 O.2   1297  C751297    -0.1516
      4  N6        41.6120   21.9580   -5.5390 N.3   1297  C751297    -0.0762
      5  C61       41.4710   23.2550   -4.9520 C.3   1297  C751297     0.1362
      6  C16       39.6620   20.1280   -4.8950 C.ar  1297  C751297     0.1236
      7  C15       39.3440   18.7830   -5.0540 C.ar  1297  C751297     0.0201
      8  C14       38.7530   18.0840   -4.0050 C.ar  1297  C751297     0.0044
      9  C13       38.4680   18.7510   -2.8150 C.ar  1297  C751297     0.0346
     10  C18       38.7780   20.0990   -2.6770 C.ar  1297  C751297     0.0044
     11  C17       39.3740   20.8010   -3.7150 C.ar  1297  C751297     0.0201
     12  C4        37.7900   18.1650   -1.6130 C.ar  1297  C751297     0.1453
     13  O2        37.5200   18.9210   -0.5040 O.2   1297  C751297    -0.4535
     14  C3        37.2930   16.8850   -1.3980 C.ar  1297  C751297     0.0406
     15  C2        36.6990   16.8930   -0.1400 C.ar  1297  C751297     0.0407
     16  C1        36.8440   18.1640    0.4110 C.ar  1297  C751297     0.1467
     17  C6        36.3720   18.6330    1.7370 C.2   1297  C751297     0.0568
     18  C7        36.5570   19.8860    2.1790 C.2   1297  C751297     0.1307
     19  S1        37.3160   21.1160    1.3590 S.3   1297  C751297    -0.0232
     20  C9        37.1460   22.2620    2.5500 C.2   1297  C751297     0.2634
     21  N3        37.5550   23.4630    2.5150 N.pl3 1297  C751297    -0.0855
     22  N2        36.4880   21.6990    3.5590 N.2   1297  C751297    -0.3069
     23  C8        36.1580   20.4200    3.4010 C.1   1297  C751297     0.2128
     24  O1        35.5400   19.8280    4.2820 O.2   1297  C751297    -0.2087
@<TRIPOS>BOND
     1     3     2    2
     2     1     2    2
     3     2     4    1
     4     2     6    1
     5     4     5    1
     6     7     6   ar
     7     7     8   ar
     8     6    11   ar
     9     8     9   ar
    10    11    10   ar
    11     9    10   ar
    12     9    12    1
    13    12    14   ar
    14    12    13   ar
    15    14    15   ar
    16    13    16   ar
    17    15    16   ar
    18    16    17    1
    19    19    18    1
    20    19    20    1
    21    17    18    2
    22    18    23    1
    23    21    20    1
    24    20    22    2
    25    23    22    2
    26    23    24    2
