@<TRIPOS>MOLECULE
2uzd_C85_A_1.pdb
 23 25 0 0 0
SMALL
GASTEIGER

@<TRIPOS>ATOM
      1  O4       126.1770  107.4780   37.1910 O.2   1297  C851297    -0.1503
      2  S2       125.6860  108.4660   36.1630 S.O2  1297  C851297     0.0935
      3  O3       126.8230  109.3590   35.7470 O.2   1297  C851297    -0.1503
      4  N6       124.4850  109.3770   36.8050 N.3   1297  C851297     0.0392
      5  C16      125.0720  107.5930   34.7590 C.ar  1297  C851297     0.1250
      6  C15      125.5200  106.2940   34.4840 C.ar  1297  C851297     0.0201
      7  C14      125.0330  105.6110   33.3650 C.ar  1297  C851297     0.0044
      8  C13      124.0950  106.2230   32.5360 C.ar  1297  C851297     0.0346
      9  C18      123.6420  107.5130   32.8230 C.ar  1297  C851297     0.0044
     10  C17      124.1310  108.1960   33.9270 C.ar  1297  C851297     0.0201
     11  C4       123.5960  105.5640   31.4280 C.ar  1297  C851297     0.1448
     12  O2       122.5330  105.9560   30.7170 O.2   1297  C851297    -0.4577
     13  C3       124.0880  104.4570   30.8570 C.ar  1297  C851297     0.0403
     14  C2       123.3160  104.1610   29.7960 C.ar  1297  C851297     0.0361
     15  C1       122.3530  105.0900   29.7150 C.ar  1297  C851297     0.1249
     16  C6       121.2840  105.1710   28.7000 C.3   1297  C851297     0.0936
     17  C7       120.6490  106.3570   28.4850 C.3   1297  C851297     0.1806
     18  S1       120.5000  107.5870   29.6280 S.3   1297  C851297    -0.0455
     19  C9       119.6460  108.5660   28.5440 C.2   1297  C851297     0.2594
     20  N3       119.1880  109.7740   28.8390 N.pl3 1297  C851297    -0.0858
     21  N2       119.4820  107.9730   27.3410 N.2   1297  C851297    -0.3105
     22  C8       120.0420  106.7190   27.2790 C.1   1297  C851297     0.1921
     23  O1       120.0090  106.0000   26.2820 O.2   1297  C851297    -0.2132
@<TRIPOS>BOND
     1    23    22    2
     2    22    21    2
     3    22    17    1
     4    21    19    2
     5    17    16    1
     6    17    18    1
     7    19    20    1
     8    19    18    1
     9    16    15    1
    10    15    14   ar
    11    15    12   ar
    12    14    13   ar
    13    12    11   ar
    14    13    11   ar
    15    11     8    1
    16     8     9   ar
    17     8     7   ar
    18     9    10   ar
    19     7     6   ar
    20    10     5   ar
    21     6     5   ar
    22     5     2    1
    23     3     2    2
    24     2     4    1
    25     2     1    2
