@<TRIPOS>MOLECULE
2uze_C95_A_1.pdb
 22 24 0 0 0
SMALL
GASTEIGER

@<TRIPOS>ATOM
      1  O4        68.2170   63.5370   18.4020 O.co2 1297  C951297    -0.2406
      2  O3        69.5540   64.5860   19.7460 O.co2 1297  C951297    -0.2406
      3  C16       70.2350   62.3980   18.9630 C.ar  1297  C951297     0.0798
      4  C15       71.4600   62.4230   19.6560 C.ar  1297  C951297     0.0067
      5  C14       72.3450   61.3300   19.5570 C.ar  1297  C951297     0.0032
      6  C13       71.9760   60.2140   18.8030 C.ar  1297  C951297     0.0346
      7  C18       70.7530   60.2040   18.1240 C.ar  1297  C951297     0.0032
      8  C17       69.8990   61.2880   18.1970 C.ar  1297  C951297     0.0067
      9  C4        72.8850   59.0330   18.6660 C.ar  1297  C951297     0.1453
     10  O2        72.5470   57.8650   18.0710 O.2   1297  C951297    -0.4535
     11  C3        74.1760   58.9460   19.0320 C.ar  1297  C951297     0.0406
     12  C2        74.6260   57.7080   18.6750 C.ar  1297  C951297     0.0407
     13  C1        73.6080   57.0460   18.0870 C.ar  1297  C951297     0.1467
     14  C6        73.6350   55.6710   17.5130 C.2   1297  C951297     0.0568
     15  C7        72.5750   55.2380   16.8470 C.2   1297  C951297     0.1307
     16  S1        71.0780   55.9880   16.8920 S.3   1297  C951297    -0.0232
     17  C9        70.4090   54.8630   15.8410 C.2   1297  C951297     0.2634
     18  N3        69.1320   54.8910   15.4370 N.pl3 1297  C951297    -0.0855
     19  N2        71.3130   53.9320   15.4390 N.2   1297  C951297    -0.3069
     20  C19       69.2760   63.5690   19.0360 C.2   1297  C951297     0.3878
     21  C8        72.5520   54.1190   15.9800 C.1   1297  C951297     0.2128
     22  O1        73.5260   53.3990   15.7290 O.2   1297  C951297    -0.2087
@<TRIPOS>BOND
     1    18    17    1
     2    19    17    2
     3    19    21    2
     4    22    21    2
     5    17    16    1
     6    21    15    1
     7    15    16    1
     8    15    14    2
     9    14    13    1
    10    10    13   ar
    11    10     9   ar
    12    13    12   ar
    13     7     8   ar
    14     7     6   ar
    15     8     3   ar
    16     1    20   ar
    17     9     6    1
    18     9    11   ar
    19    12    11   ar
    20     6     5   ar
    21     3    20    1
    22     3     4   ar
    23    20     2   ar
    24     5     4   ar
