@<TRIPOS>MOLECULE
2uzh_IPE_B_1.pdb
 14 13 0 0 0
SMALL
GASTEIGER

@<TRIPOS>ATOM
      1  C1        50.6800   43.6760   18.0690 C.3   1160  IPE1160     0.1491
      2  O1        51.4020   43.4600   16.8440 O.3   1160  IPE1160    -0.3138
      3  C2        51.5960   44.3670   19.0810 C.3   1160  IPE1160     0.0325
      4  C3        50.8070   45.1180   20.1570 C.3   1160  IPE1160     0.0025
      5  C4        50.1280   46.4540   19.8410 C.3   1160  IPE1160     0.0001
      6  C5        50.7160   44.5890   21.4380 C.3   1160  IPE1160     0.0001
      7  PA        51.7110   41.9780   16.2320 P.3   1160  IPE1160     0.2230
      8  O1A       53.0990   41.4610   16.9480 O.3   1160  IPE1160    -0.4370
      9  O2A       50.5930   41.0440   16.4540 O.2   1160  IPE1160    -0.5169
     10  O3A       52.0420   42.1530   14.6630 O.3   1160  IPE1160    -0.2261
     11  PB        51.7420   40.9770   13.5700 P.3   1160  IPE1160     0.5373
     12  O1B       50.8450   41.7230   12.4460 O.2   1160  IPE1160    -0.2221
     13  O2B       50.7840   39.8670   14.2490 O.3   1160  IPE1160    -0.1143
     14  O3B       52.9830   40.3850   13.0080 O.3   1160  IPE1160    -0.1143
@<TRIPOS>BOND
     1    12    11    2
     2    14    11    1
     3    11    13    1
     4    11    10    1
     5    10     7    1
     6     7     9    2
     7     7     2    1
     8     7     8    1
     9     2     1    1
    10     1     3    1
    11     3     4    1
    12     5     4    1
    13     4     6    1
