@<TRIPOS>MOLECULE
2uzh_CDP_A_1.pdb
 25 26 0 0 0
SMALL
GASTEIGER

@<TRIPOS>ATOM
      1  O3B       52.0690   37.8840   28.9610 O.2   1158  CDP1158    -0.2221
      2  PB        52.7490   37.4320   30.4100 P.3   1158  CDP1158     0.5373
      3  O1B       53.3320   38.6900   31.0810 O.3   1158  CDP1158    -0.1143
      4  O2B       51.7540   36.8270   31.3390 O.3   1158  CDP1158    -0.1143
      5  O3A       53.9700   36.3790   30.0160 O.3   1158  CDP1158    -0.2261
      6  PA        53.9710   34.8280   30.5740 P.3   1158  CDP1158     0.2231
      7  O1A       52.8750   34.6360   31.5780 O.3   1158  CDP1158    -0.4370
      8  O2A       54.0690   33.8720   29.4490 O.2   1158  CDP1158    -0.5169
      9  O5'       55.3830   34.7300   31.3280 O.3   1158  CDP1158    -0.3111
     10  C5'       55.5550   33.7000   32.3220 C.3   1158  CDP1158     0.1813
     11  C4'       56.8880   33.8260   33.0310 C.3   1158  CDP1158     0.1799
     12  O4'       57.8100   33.3030   32.0800 O.3   1158  CDP1158    -0.3320
     13  C3'       57.3330   35.2770   33.1880 C.3   1158  CDP1158     0.2158
     14  O3'       56.7860   35.8470   34.3850 O.3   1158  CDP1158    -0.2175
     15  C2'       58.8420   35.1050   33.2920 C.3   1158  CDP1158     0.2319
     16  O2'       59.2170   34.7290   34.6340 O.3   1158  CDP1158    -0.2157
     17  C1'       59.1130   33.9110   32.3620 C.3   1158  CDP1158     0.2400
     18  N1        59.7260   34.0860   31.0040 N.am  1158  CDP1158    -0.1778
     19  C2        61.0860   33.8110   30.8150 C.1   1158  CDP1158     0.2756
     20  O2        61.7880   33.4680   31.7690 O.2   1158  CDP1158    -0.1925
     21  N3        61.6540   33.9370   29.5320 N.2   1158  CDP1158    -0.3024
     22  C4        60.8800   34.3290   28.4370 C.2   1158  CDP1158     0.2346
     23  N4        61.4460   34.4390   27.2300 N.pl3 1158  CDP1158    -0.0921
     24  C5        59.5200   34.5880   28.6240 C.2   1158  CDP1158     0.0687
     25  C6        58.9450   34.4620   29.8900 C.2   1158  CDP1158     0.0836
@<TRIPOS>BOND
     1    23    22    1
     2    22    24    1
     3    22    21    2
     4    24    25    2
     5     1     2    2
     6     8     6    2
     7    21    19    2
     8    25    18    1
     9     5     2    1
    10     5     6    1
    11     2     3    1
    12     2     4    1
    13     6     9    1
    14     6     7    1
    15    19    18   am
    16    19    20    2
    17    18    17    1
    18     9    10    1
    19    12    17    1
    20    12    11    1
    21    10    11    1
    22    17    15    1
    23    11    13    1
    24    13    15    1
    25    13    14    1
    26    15    16    1
