@<TRIPOS>MOLECULE
2uzj_E64_A_1.pdb
 25 24 0 0 0
SMALL
GASTEIGER

@<TRIPOS>ATOM
      1  C1        12.3660    7.4960   11.6140 C.2   1254  E641254     0.3680
      2  O1        12.8680    8.6460   11.4410 O.co2 1254  E641254    -0.2455
      3  O2        12.5430    6.5390   10.8260 O.co2 1254  E641254    -0.2455
      4  C2        11.5370    7.2210   12.8600 C.3   1254  E641254     0.1564
      5  C3        10.4330    8.2540   13.0320 C.3   1254  E641254     0.2403
      6  O3        11.0380    9.5280   13.2050 O.3   1254  E641254    -0.2126
      7  C4         9.4910    8.0150   14.1920 C.2   1254  E641254     0.2728
      8  O4         9.1790    6.8800   14.5810 O.2   1254  E641254    -0.2706
      9  N1         9.0200    9.1320   14.7540 N.am  1254  E641254    -0.1956
     10  C6         8.0510    9.1360   15.8470 C.3   1254  E641254     0.1728
     11  C7         8.4330   10.3320   16.7050 C.3   1254  E641254     0.0311
     12  C8         9.0940    9.9740   18.0180 C.3   1254  E641254     0.0022
     13  C9         9.8870   11.1540   18.5720 C.3   1254  E641254     0.0001
     14  C10        9.9230    8.6890   17.9490 C.3   1254  E641254     0.0001
     15  C11        6.7030    9.4550   15.2740 C.2   1254  E641254     0.2612
     16  O5         6.6180   10.3050   14.3890 O.2   1254  E641254    -0.2715
     17  N2         5.6410    8.7970   15.7260 N.am  1254  E641254    -0.2040
     18  C12        4.2750    9.0100   15.2520 C.3   1254  E641254     0.1153
     19  C13        3.4120    8.0090   16.0240 C.3   1254  E641254     0.0271
     20  C14        3.1500    6.6930   15.2870 C.3   1254  E641254     0.0487
     21  C15        2.6750    6.8380   13.8330 C.3   1254  E641254     0.2205
     22  N3         1.2590    6.4600   13.7050 N.pl3 1254  E641254    -0.0865
     23  C16        0.5330    5.4160   14.1550 C.cat 1254  E641254     0.5346
     24  N4         1.0640    4.4390   14.9040 N.pl3 1254  E641254     0.1354
     25  N5        -0.7650    5.3370   13.8570 N.pl3 1254  E641254     0.1354
@<TRIPOS>BOND
     1     3     1   ar
     2     2     1   ar
     3     1     4    1
     4     4     5    1
     5     5     6    1
     6     5     7    1
     7    22    21    1
     8    22    23    2
     9    21    20    1
    10    25    23    1
    11    23    24    1
    12     7     8    2
    13     7     9   am
    14    16    15    2
    15     9    10    1
    16    18    17    1
    17    18    19    1
    18    15    17   am
    19    15    10    1
    20    20    19    1
    21    10    11    1
    22    11    12    1
    23    14    12    1
    24    12    13    1
