@<TRIPOS>MOLECULE
2uzl_C94_A_1.pdb
 27 29 0 0 0
SMALL
GASTEIGER

@<TRIPOS>ATOM
      1  O4        67.9450   64.3970   20.1450 O.2   1297  C941297    -0.1503
      2  S2        68.0780   63.8400   18.8480 S.O2  1297  C941297     0.0935
      3  O3        68.4840   64.8060   17.8890 O.2   1297  C941297    -0.1503
      4  N6        66.7510   63.0740   18.3970 N.3   1297  C941297     0.0392
      5  C16       69.3310   62.6050   18.9210 C.ar  1297  C941297     0.1289
      6  C15       70.3740   62.6550   19.8540 C.ar  1297  C941297     0.0902
      7  C24       70.4910   63.8100   20.8450 C.3   1297  C941297     0.4198
      8  F26       70.1170   64.9480   20.2710 F     1297  C941297    -0.1658
      9  F27       71.7530   63.9160   21.2410 F     1297  C941297    -0.1658
     10  F25       69.7190   63.5750   21.9010 F     1297  C941297    -0.1658
     11  C14       71.3340   61.6400   19.8720 C.ar  1297  C941297     0.0082
     12  C13       71.2370   60.5810   18.9770 C.ar  1297  C941297     0.0346
     13  C18       70.1840   60.5270   18.0760 C.ar  1297  C941297     0.0044
     14  C17       69.2370   61.5320   18.0470 C.ar  1297  C941297     0.0201
     15  C4        72.2240   59.4560   18.9720 C.ar  1297  C941297     0.1453
     16  O2        71.9790   58.2360   18.4190 O.2   1297  C941297    -0.4535
     17  C3        73.5250   59.4560   19.4600 C.ar  1297  C941297     0.0406
     18  C2        74.0640   58.1980   19.1950 C.ar  1297  C941297     0.0407
     19  C1        73.0820   57.4500   18.5520 C.ar  1297  C941297     0.1467
     20  C6        73.1860   56.0590   18.0580 C.2   1297  C941297     0.0568
     21  C7        72.1800   55.5530   17.3180 C.2   1297  C941297     0.1307
     22  S1        70.7640   56.3550   16.9770 S.3   1297  C941297    -0.0232
     23  C9        70.1780   55.0670   16.1060 C.2   1297  C941297     0.2634
     24  N3        69.0400   55.0560   15.5410 N.pl3 1297  C941297    -0.0855
     25  N2        71.0460   54.0500   16.0570 N.2   1297  C941297    -0.3069
     26  C8        72.1830   54.2920   16.7280 C.1   1297  C941297     0.2128
     27  O1        73.1120   53.4930   16.8100 O.2   1297  C941297    -0.2087
@<TRIPOS>BOND
     1    24    23    1
     2    25    23    2
     3    25    26    2
     4    23    22    1
     5    26    27    2
     6    26    21    1
     7    22    21    1
     8    21    20    2
     9     3     2    2
    10    14    13   ar
    11    14     5   ar
    12    20    19    1
    13    13    12   ar
    14     4     2    1
    15    16    19   ar
    16    16    15   ar
    17    19    18   ar
    18     2     5    1
    19     2     1    2
    20     5     6   ar
    21    15    12    1
    22    15    17   ar
    23    12    11   ar
    24    18    17   ar
    25     6    11   ar
    26     6     7    1
    27     8     7    1
    28     7     9    1
    29     7    10    1
