@<TRIPOS>MOLECULE
2uzn_C96_A_1.pdb
 24 26 0 0 0
SMALL
GASTEIGER

@<TRIPOS>ATOM
      1  O4         7.1480   60.4530    6.6830 O.2   1299  C961299    -0.1503
      2  S2         6.0470   60.1670    7.5640 S.O2  1299  C961299     0.0935
      3  O3         5.3600   58.9900    7.1040 O.2   1299  C961299    -0.1503
      4  N6         6.5970   59.9180    9.0460 N.3   1299  C961299     0.0392
      5  C16        4.9310   61.5280    7.5700 C.ar  1299  C961299     0.1250
      6  C15        3.8930   61.5590    8.4930 C.ar  1299  C961299     0.0201
      7  C14        2.9940   62.6130    8.4840 C.ar  1299  C961299     0.0044
      8  C13        3.1320   63.6430    7.5600 C.ar  1299  C961299     0.0346
      9  C18        4.1640   63.6120    6.6280 C.ar  1299  C961299     0.0044
     10  C17        5.0630   62.5480    6.6310 C.ar  1299  C961299     0.0201
     11  C4         2.1380   64.7620    7.5700 C.ar  1299  C961299     0.1453
     12  O2         1.0230   64.8010    8.3590 O.2   1299  C961299    -0.4538
     13  C3         2.1460   65.9030    6.7740 C.ar  1299  C961299     0.0406
     14  C2         1.0280   66.6570    7.1180 C.ar  1299  C961299     0.0403
     15  C1         0.3480   65.9650    8.1190 C.ar  1299  C961299     0.1426
     16  C6        -0.9170   66.3640    8.7800 C.2   1299  C961299     0.0308
     17  C7        -1.3890   65.6360    9.8090 C.2   1299  C961299     0.1266
     18  S1        -0.5580   64.3950   10.5270 S.3   1299  C961299    -0.0235
     19  C9        -1.7530   64.1700   11.6560 C.2   1299  C961299     0.2634
     20  N3        -1.7060   63.2880   12.5690 N.pl3 1299  C961299    -0.0855
     21  N2        -2.7660   65.0290   11.4980 N.2   1299  C961299    -0.3069
     22  C8        -2.5900   65.8730   10.4730 C.1   1299  C961299     0.2125
     23  C20       -1.5870   67.6560    8.3970 C.3   1299  C961299     0.0356
     24  O1        -3.4000   66.7390   10.1550 O.2   1299  C961299    -0.2087
@<TRIPOS>BOND
     1     9    10   ar
     2     9     8   ar
     3    10     5   ar
     4     1     2    2
     5    13    14   ar
     6    13    11   ar
     7     3     2    2
     8    14    15   ar
     9     8    11    1
    10     8     7   ar
    11     2     5    1
    12     2     4    1
    13    11    12   ar
    14     5     6   ar
    15    15    12   ar
    16    15    16    1
    17    23    16    1
    18     7     6   ar
    19    16    17    2
    20    17    22    1
    21    17    18    1
    22    24    22    2
    23    22    21    2
    24    18    19    1
    25    21    19    2
    26    19    20    1
