@<TRIPOS>MOLECULE
2uzo_C62_A_1.pdb
 23 25 0 0 0
SMALL
GASTEIGER

@<TRIPOS>ATOM
      1  O4         6.4560  -11.5500    7.4290 O.2   1297  C621297    -0.1503
      2  S2         6.8920  -10.1480    7.7320 S.O2  1297  C621297     0.0935
      3  O3         5.7300   -9.3600    8.2290 O.2   1297  C621297    -0.1503
      4  N6         7.4760   -9.4520    6.3660 N.3   1297  C621297     0.0392
      5  C16        8.1490  -10.1720    8.9860 C.ar  1297  C621297     0.1250
      6  C15        9.1570   -9.2210    8.9690 C.ar  1297  C621297     0.0201
      7  C14       10.1260   -9.2180    9.9640 C.ar  1297  C621297     0.0044
      8  C13       10.0950  -10.1700   10.9880 C.ar  1297  C621297     0.0346
      9  C18        9.0770  -11.1160   11.0280 C.ar  1297  C621297     0.0044
     10  C17        8.0970  -11.1200   10.0250 C.ar  1297  C621297     0.0201
     11  C4        11.1330  -10.1420   12.0130 C.ar  1297  C621297     0.1453
     12  O2        12.2860   -9.4300   11.9350 O.2   1297  C621297    -0.4535
     13  C3        11.1140  -10.7680   13.2160 C.ar  1297  C621297     0.0406
     14  C2        12.2570  -10.4320   13.8540 C.ar  1297  C621297     0.0407
     15  C1        12.9620   -9.5880   13.0320 C.ar  1297  C621297     0.1467
     16  C6        14.2460   -8.9760   13.3250 C.2   1297  C621297     0.0575
     17  C7        14.6760   -7.8310   12.6130 C.2   1297  C621297     0.1395
     18  S1        13.7070   -6.9050   11.5770 S.3   1297  C621297     0.0318
     19  C9        14.9500   -5.8580   11.2450 C.1   1297  C621297     0.2492
     20  N2        16.0930   -6.1880   11.9120 N.2   1297  C621297    -0.2516
     21  C8        15.9580   -7.3060   12.6900 C.1   1297  C621297     0.2224
     22  O1        16.8650   -7.7910   13.3690 O.2   1297  C621297    -0.2080
     23  O5        14.8490   -4.8900   10.4880 O.2   1297  C621297    -0.2014
@<TRIPOS>BOND
     1     4     2    1
     2     1     2    2
     3     2     3    2
     4     2     5    1
     5     6     5   ar
     6     6     7   ar
     7     5    10   ar
     8     7     8   ar
     9    10     9   ar
    10    23    19    2
    11     8     9   ar
    12     8    11    1
    13    19    18    1
    14    19    20    2
    15    18    17    1
    16    20    21    2
    17    12    11   ar
    18    12    15   ar
    19    11    13   ar
    20    17    21    1
    21    17    16    2
    22    21    22    2
    23    15    16    1
    24    15    14   ar
    25    13    14   ar
