@<TRIPOS>MOLECULE
2uzp_PLP_A_1.pdb
 15 15 0 0 0
SMALL
GASTEIGER

@<TRIPOS>ATOM
      1  N1        19.9390   31.6380   24.1140 N.2   1294  PLP1294    -0.2505
      2  C2        20.7150   30.7930   24.8960 C.2   1294  PLP1294     0.0675
      3  C2A       22.1780   31.1450   25.0750 C.3   1294  PLP1294     0.0499
      4  C3        20.1110   29.6580   25.4510 C.3   1294  PLP1294     0.1913
      5  O3        20.8330   28.6640   26.0700 O.3   1294  PLP1294    -0.2167
      6  C4        18.7400   29.3890   25.2470 C.3   1294  PLP1294     0.0581
      7  C4A       18.1020   28.3390   26.1380 C.3   1294  PLP1294     0.0075
      8  C5        17.9710   30.2600   24.4710 C.2   1294  PLP1294     0.0073
      9  C6        18.5930   31.3780   23.9150 C.2   1294  PLP1294     0.0921
     10  C5A       16.5690   29.8890   24.0210 C.3   1294  PLP1294     0.1776
     11  O4P       16.4540   28.5060   23.7260 O.3   1294  PLP1294    -0.2656
     12  P         14.9990   27.8000   23.6760 P.3   1294  PLP1294     0.5329
     13  O1P       14.2210   28.5640   22.6330 O.2   1294  PLP1294    -0.2224
     14  O2P       14.3410   27.8820   25.0380 O.3   1294  PLP1294    -0.1145
     15  O3P       15.1330   26.3510   23.2950 O.3   1294  PLP1294    -0.1145
@<TRIPOS>BOND
     1    13    12    2
     2    15    12    1
     3    12    11    1
     4    12    14    1
     5    11    10    1
     6     9     1    1
     7     9     8    2
     8    10     8    1
     9     1     2    2
    10     8     6    1
    11     2     3    1
    12     2     4    1
    13     6     4    1
    14     6     7    1
    15     4     5    1
