@<TRIPOS>MOLECULE
2uzs_4IP_A_1.pdb
 28 28 0 0 0
SMALL
GASTEIGER

@<TRIPOS>ATOM
      1  C1        13.7690   10.3480   16.9350 C.3   1118  4IP1118     0.1917
      2  O1        14.1120   10.3350   18.3120 O.3   1118  4IP1118    -0.2673
      3  C2        13.5780    8.8920   16.4840 C.3   1118  4IP1118     0.2120
      4  O2        14.7170    8.1060   16.8690 O.3   1118  4IP1118    -0.2177
      5  C3        13.3610    8.7890   14.9760 C.3   1118  4IP1118     0.1890
      6  O3        13.3840    7.4070   14.6460 O.3   1118  4IP1118    -0.2674
      7  C4        14.4270    9.5560   14.1860 C.3   1118  4IP1118     0.1865
      8  O4        14.1360    9.4840   12.7940 O.3   1118  4IP1118    -0.2675
      9  C5        14.4580   11.0100   14.6660 C.3   1118  4IP1118     0.1890
     10  O5        15.4630   11.6720   13.9410 O.3   1118  4IP1118    -0.2674
     11  C6        14.8570   11.0620   16.1370 C.3   1118  4IP1118     0.2120
     12  O6        14.9250   12.4220   16.5210 O.3   1118  4IP1118    -0.2177
     13  P1        12.9210   10.0660   19.3740 P.3   1118  4IP1118     0.5327
     14  O1P       12.6240   11.5500   19.9860 O.3   1118  4IP1118    -0.1145
     15  O2P       13.7600    9.2920   20.5040 O.3   1118  4IP1118    -0.1145
     16  O3P       11.7110    9.3580   18.8310 O.2   1118  4IP1118    -0.2224
     17  P3        11.9610    6.9200   14.0910 P.3   1118  4IP1118     0.5327
     18  O4P       10.8230    6.9150   15.0620 O.3   1118  4IP1118    -0.1145
     19  O5P       11.7510    8.0190   12.9080 O.2   1118  4IP1118    -0.2224
     20  O6P       12.2430    5.4880   13.4380 O.3   1118  4IP1118    -0.1145
     21  P4        15.3810    9.2180   11.7610 P.3   1118  4IP1118     0.5327
     22  O7P       16.1910   10.4230   11.3910 O.3   1118  4IP1118    -0.1145
     23  O8P       14.6470    8.5870   10.4760 O.2   1118  4IP1118    -0.2224
     24  O9P       16.2350    8.0020   12.3900 O.3   1118  4IP1118    -0.1145
     25  P5        15.2300   13.1540   13.3380 P.3   1118  4IP1118     0.5327
     26  OPF       15.6890   14.2850   14.1830 O.3   1118  4IP1118    -0.1145
     27  OPG       16.1610   12.8930   12.1260 O.2   1118  4IP1118    -0.2224
     28  OPH       13.7680   13.3000   12.6680 O.3   1118  4IP1118    -0.1145
@<TRIPOS>BOND
     1    23    21    2
     2    22    21    1
     3    21    24    1
     4    21     8    1
     5    27    25    2
     6    28    25    1
     7     8     7    1
     8    19    17    2
     9    25    10    1
    10    25    26    1
    11    20    17    1
    12    10     9    1
    13    17     6    1
    14    17    18    1
    15     7     9    1
    16     7     5    1
    17     6     5    1
    18     9    11    1
    19     5     3    1
    20    11    12    1
    21    11     1    1
    22     3     4    1
    23     3     1    1
    24     1     2    1
    25     2    13    1
    26    16    13    2
    27    13    14    1
    28    13    15    1
