@<TRIPOS>MOLECULE
2uzt_SS3_A_1.pdb
 27 30 0 0 0
SMALL
GASTEIGER

@<TRIPOS>ATOM
      1  N1        16.0570    6.6170   37.9110 N.2   1351  SS31351    -0.1523
      2  N3        22.6800   11.8030   37.2860 N.ar  1351  SS31351    -0.2395
      3  C4        16.8430    8.7310   37.7280 C.2   1351  SS31351     0.1034
      4  C5        17.0970   10.0980   37.6550 C.2   1351  SS31351     0.0170
      5  C6        18.4250   10.5600   37.4040 C.2   1351  SS31351    -0.0160
      6  C8        17.3630    6.4370   37.6750 C.2   1351  SS31351     0.0821
      7  C13       23.2980    6.1400   36.8350 C.ar  1351  SS31351    -0.0042
      8  C15       21.9510    4.0950   36.8420 C.ar  1351  SS31351    -0.0000
      9  C9        18.0430    5.0910   37.5710 C.3   1351  SS31351     0.0540
     10  C17       24.1120    5.6200   35.7840 C.ar  1351  SS31351    -0.0206
     11  C20       20.9220   10.1480   36.9580 C.ar  1351  SS31351     0.0078
     12  C21       21.8220    9.4170   36.1390 C.ar  1351  SS31351     0.0364
     13  C22       23.1600    9.8690   35.8870 C.ar  1351  SS31351     0.1574
     14  C24       23.7600    8.2660   34.1060 C.3   1351  SS31351     0.2246
     15  C1        19.5140    9.6560   37.2220 C.3   1351  SS31351     0.0679
     16  C2        19.2280    8.2560   37.3030 C.2   1351  SS31351    -0.0148
     17  C3        17.9320    7.7810   37.5480 C.2   1351  SS31351     0.0311
     18  N5        15.7460    7.9260   37.9440 N.2   1351  SS31351    -0.1483
     19  C14       22.2250    5.3830   37.3590 C.ar  1351  SS31351    -0.0003
     20  C16       23.8290    4.3240   35.2740 C.ar  1351  SS31351    -0.0042
     21  C18       23.5350   11.0840   36.4970 C.ar  1351  SS31351     0.1356
     22  C19       21.4100   11.3540   37.5150 C.ar  1351  SS31351     0.0954
     23  C26       22.7530    3.5660   35.8030 C.ar  1351  SS31351    -0.0003
     24  O1        24.1410    9.2250   35.0980 O.3   1351  SS31351    -0.4723
     25  C23       24.9130    7.2370   33.9290 C.3   1351  SS31351     0.1396
     26  C25       25.2620    6.4320   35.2180 C.3   1351  SS31351     0.0492
     27  N4        26.1000    7.9560   33.4730 N.3   1351  SS31351    -0.1286
@<TRIPOS>BOND
     1    27    25    1
     2    25    14    1
     3    25    26    1
     4    14    24    1
     5    24    13    1
     6    26    10    1
     7    20    10   ar
     8    20    23   ar
     9    10     7   ar
    10    23     8   ar
    11    13    12   ar
    12    13    21   ar
    13    12    11   ar
    14    21     2   ar
    15     7    19   ar
    16     8    19   ar
    17    11    15    1
    18    11    22   ar
    19    15    16    1
    20    15     5    1
    21     2    22   ar
    22    16    17    2
    23     5     4    2
    24    17     6    1
    25    17     3    1
    26     9     6    1
    27     4     3    1
    28     6     1    2
    29     3    18    2
    30     1    18    1
