@<TRIPOS>MOLECULE
2uzu_L20_E_1.pdb
 30 34 0 0 0
SMALL
GASTEIGER

@<TRIPOS>ATOM
      1  C1         5.2220   10.1080    5.8130 C.3   1351  L201351     0.0540
      2  C2         4.6390   10.0200    4.4290 C.2   1351  L201351     0.0821
      3  N3         3.3450   10.0070    4.1530 N.2   1351  L201351    -0.1523
      4  N4         3.1400    9.9260    2.8250 N.2   1351  L201351    -0.1483
      5  C6         4.3090    9.8780    2.1200 C.2   1351  L201351     0.1034
      6  C7         4.6810    9.7990    0.7850 C.2   1351  L201351     0.0170
      7  C8         6.0700    9.7720    0.4430 C.2   1351  L201351    -0.0160
      8  C9         7.1040    9.8180    1.4450 C.3   1351  L201351     0.0679
      9  C10        6.6660    9.9030    2.8040 C.2   1351  L201351    -0.0148
     10  C11        5.3220    9.9350    3.1550 C.2   1351  L201351     0.0311
     11  C12        8.5810    9.7680    1.1040 C.ar  1351  L201351     0.0078
     12  C13        9.0510    9.6900   -0.2270 C.ar  1351  L201351     0.0954
     13  N14       10.3780    9.6360   -0.5320 N.ar  1351  L201351    -0.2395
     14  C15       11.3250    9.6510    0.4630 C.ar  1351  L201351     0.1356
     15  C16       10.9890    9.7290    1.8260 C.ar  1351  L201351     0.1574
     16  O17       11.9000    9.7590    2.9480 O.3   1351  L201351    -0.4723
     17  C18       13.3650    9.7060    2.8200 C.3   1351  L201351     0.2246
     18  C19       14.2000   10.9520    2.2780 C.3   1351  L201351     0.1394
     19  N21       15.0300   10.4440    1.1710 N.3   1351  L201351    -0.1286
     20  C25       13.3590   12.2040    1.8940 C.3   1351  L201351     0.0471
     21  C26       13.3900   12.8060    0.4880 C.2   1351  L201351    -0.0143
     22  C27       13.2080   14.1710    0.3420 C.2   1351  L201351     0.0907
     23  N28       13.2580   14.5320   -0.9600 N.2   1351  L201351    -0.2482
     24  C30       13.4730   13.4220   -1.7560 C.2   1351  L201351     0.0665
     25  C31       13.5930   13.2810   -3.1470 C.2   1351  L201351     0.0153
     26  C32       13.8150   11.9970   -3.7460 C.2   1351  L201351     0.0009
     27  C33       13.9140   10.8670   -2.9170 C.2   1351  L201351    -0.0038
     28  C34       13.7890   11.0210   -1.4910 C.2   1351  L201351    -0.0164
     29  C35       13.5690   12.2800   -0.8880 C.3   1351  L201351     0.0819
     30  C36        9.5930    9.7880    2.1130 C.ar  1351  L201351     0.0364
@<TRIPOS>BOND
     1    26    25    2
     2    26    27    1
     3    25    24    1
     4    27    28    2
     5    24    23    2
     6    24    29    1
     7    28    29    1
     8    23    22    1
     9    29    21    1
    10    13    12   ar
    11    13    14   ar
    12    12    11   ar
    13    22    21    2
    14     7     6    2
    15     7     8    1
    16    14    15   ar
    17    21    20    1
    18     6     5    1
    19    11     8    1
    20    11    30   ar
    21    19    18    1
    22     8     9    1
    23    15    30   ar
    24    15    16    1
    25    20    18    1
    26     5     4    2
    27     5    10    1
    28    18    17    1
    29     9    10    2
    30    17    16    1
    31     4     3    1
    32    10     2    1
    33     3     2    2
    34     2     1    1
