@<TRIPOS>MOLECULE
2uzv_SS5_A_1.pdb
 35 39 0 0 0
SMALL
GASTEIGER

@<TRIPOS>ATOM
      1  C1        15.8390    7.8210    2.6620 C.ar  1351  SS51351    -0.0176
      2  C2        16.0990    6.5570    3.2560 C.ar  1351  SS51351    -0.0040
      3  C3        17.1640    6.4120    4.1710 C.ar  1351  SS51351     0.0028
      4  C4        17.9860    7.5360    4.5020 C.ar  1351  SS51351     0.0369
      5  C5        17.7320    8.8240    3.9050 C.ar  1351  SS51351     0.1382
      6  C6        16.6610    8.9280    3.0000 C.ar  1351  SS51351     0.0327
      7  C7        14.7300    8.0470    1.6700 C.3   1351  SS51351     0.0493
      8  O8        18.4530   10.0330    4.1220 O.3   1351  SS51351    -0.4755
      9  C9        13.3670    8.3610    2.2770 C.3   1351  SS51351     0.1396
     10  C10       12.3820    8.6650    1.1510 C.3   1351  SS51351     0.2246
     11  O11       11.1130    9.0080    1.6850 O.3   1351  SS51351    -0.4723
     12  N12       12.8660    7.2070    3.0130 N.3   1351  SS51351    -0.1286
     13  C13       10.1090    9.3610    0.7670 C.ar  1351  SS51351     0.1574
     14  C14       10.3140    9.6830   -0.6150 C.ar  1351  SS51351     0.1356
     15  N15        9.2920   10.0160   -1.4290 N.ar  1351  SS51351    -0.2395
     16  C16        8.0170   10.0520   -0.9430 C.ar  1351  SS51351     0.0954
     17  C17        7.7000    9.7550    0.4060 C.ar  1351  SS51351     0.0078
     18  C18        8.7860    9.4100    1.2430 C.ar  1351  SS51351     0.0364
     19  C19        5.1790    9.5660    0.0360 C.2   1351  SS51351    -0.0160
     20  C20        3.8350    9.5690    0.4860 C.2   1351  SS51351     0.0170
     21  C21        3.5590    9.7880    1.8270 C.2   1351  SS51351     0.1034
     22  C22        4.6400   10.0180    2.7730 C.2   1351  SS51351     0.0311
     23  C23        5.9640   10.0140    2.3130 C.2   1351  SS51351    -0.0148
     24  C24        6.2750    9.7850    0.9210 C.3   1351  SS51351     0.0679
     25  N25        2.4360    9.8550    2.5940 N.2   1351  SS51351    -0.1483
     26  N26        2.7140   10.0970    3.8830 N.2   1351  SS51351    -0.1523
     27  C27        4.0270   10.2120    4.0830 C.2   1351  SS51351     0.0821
     28  C28        4.6560   10.4840    5.4310 C.3   1351  SS51351     0.0540
     29  C29       19.5570   10.0170    5.0160 C.3   1351  SS51351     0.2053
     30  C30       20.2370   11.4000    5.1820 C.3   1351  SS51351     0.0438
     31  C31       21.5490   11.5040    4.3630 C.3   1351  SS51351     0.0037
     32  C32       22.2310   12.8840    4.5410 C.3   1351  SS51351     0.0001
     33  C33       21.2700   14.0560    4.2160 C.3   1351  SS51351     0.0000
     34  C34       19.9310   13.9550    4.9800 C.3   1351  SS51351     0.0001
     35  C35       19.2740   12.5690    4.8040 C.3   1351  SS51351     0.0037
@<TRIPOS>BOND
     1    15    16   ar
     2    15    14   ar
     3    16    17   ar
     4    14    13   ar
     5    19    20    2
     6    19    24    1
     7    17    24    1
     8    17    18   ar
     9    20    21    1
    10    13    18   ar
    11    13    11    1
    12    24    23    1
    13    10    11    1
    14    10     9    1
    15     7     9    1
    16     7     1    1
    17    21    25    2
    18    21    22    1
    19     9    12    1
    20    23    22    2
    21    25    26    1
    22     1     6   ar
    23     1     2   ar
    24    22    27    1
    25     6     5   ar
    26     2     3   ar
    27    26    27    2
    28     5     8    1
    29     5     4   ar
    30    27    28    1
    31     8    29    1
    32     3     4   ar
    33    33    32    1
    34    33    34    1
    35    31    32    1
    36    31    30    1
    37    35    34    1
    38    35    30    1
    39    29    30    1
