@<TRIPOS>MOLECULE
2uzw_SS4_E_1.pdb
 28 31 0 0 0
SMALL
GASTEIGER

@<TRIPOS>ATOM
      1  N1         3.5640   10.1390    4.6220 N.2   1351  SS41351    -0.1523
      2  N3         9.5540   10.0530   -1.1370 N.ar  1351  SS41351    -0.2395
      3  C4         4.1780    9.9350    2.4610 C.2   1351  SS41351     0.1034
      4  C5         4.3110    9.8230    1.1090 C.2   1351  SS41351     0.0170
      5  C6         5.5870    9.7070    0.5480 C.2   1351  SS41351    -0.0160
      6  C8         4.8940   10.0690    4.6800 C.2   1351  SS41351     0.0821
      7  C13       13.3550   11.3610    3.1070 C.ar  1351  SS41351    -0.0037
      8  C15       13.5920   12.3090    0.9130 C.ar  1351  SS41351     0.0345
      9  C9         5.6990   10.1280    5.9570 C.3   1351  SS41351     0.0540
     10  C17       13.8080   10.1290    2.6390 C.ar  1351  SS41351    -0.0206
     11  C20        8.0990    9.5910    0.7130 C.ar  1351  SS41351     0.0078
     12  C21        9.1510    8.9540    1.3560 C.ar  1351  SS41351     0.0364
     13  C22       10.4050    8.8710    0.7470 C.ar  1351  SS41351     0.1574
     14  C24       11.5640    8.1640    2.7130 C.3   1351  SS41351     0.2246
     15  C1         6.7390    9.7030    1.3360 C.3   1351  SS41351     0.0679
     16  C2         6.5820    9.8180    2.7170 C.2   1351  SS41351    -0.0148
     17  C3         5.3420    9.9340    3.2950 C.2   1351  SS41351     0.0311
     18  N5         3.1350   10.0640    3.3510 N.2   1351  SS41351    -0.1483
     19  C14       13.2450   12.4490    2.2510 C.ar  1351  SS41351     0.0064
     20  C16       14.1760   10.0120    1.3020 C.ar  1351  SS41351    -0.0037
     21  C18       10.5560    9.4380   -0.5080 C.ar  1351  SS41351     0.1356
     22  C19        8.3560   10.1300   -0.5400 C.ar  1351  SS41351     0.0954
     23  C26       14.0640   11.0930    0.4390 C.ar  1351  SS41351     0.0064
     24  O1        11.5360    8.2700    1.3020 O.3   1351  SS41351    -0.4723
     25  C10       12.9860    7.7560    3.1530 C.3   1351  SS41351     0.1396
     26  C25       13.8800    8.9450    3.5740 C.3   1351  SS41351     0.0492
     27  N4        13.6300    6.9160    2.1450 N.3   1351  SS41351    -0.1286
     28 BR1        13.4210   13.7660   -0.2580 Br    1351  SS41351    -0.0490
@<TRIPOS>BOND
     1     2    22   ar
     2     2    21   ar
     3    22    11   ar
     4    21    13   ar
     5    28     8    1
     6    23     8   ar
     7    23    20   ar
     8     5     4    2
     9     5    15    1
    10    11    15    1
    11    11    12   ar
    12    13    24    1
    13    13    12   ar
    14     8    19   ar
    15     4     3    1
    16    24    14    1
    17    20    10   ar
    18    15    16    1
    19    27    25    1
    20    19     7   ar
    21     3    17    1
    22     3    18    2
    23    10     7   ar
    24    10    26    1
    25    14    25    1
    26    16    17    2
    27    25    26    1
    28    17     6    1
    29    18     1    1
    30     1     6    2
    31     6     9    1
