@<TRIPOS>MOLECULE
2v00_V15_A_1.pdb
 16 17 0 0 0
SMALL
GASTEIGER

@<TRIPOS>ATOM
      1  N1        -0.1850    5.8160    9.0300 N.2   1336  V151336    -0.2540
      2  C2         0.7630    4.9060    9.4190 C.1   1336  V151336     0.2509
      3  C3        -1.4590    5.6870    9.4980 C.1   1336  V151336     0.1988
      4  C4        -1.7870    4.5980   10.3450 C.3   1336  V151336     0.1905
      5  C5        -0.7950    3.7090   10.6850 C.2   1336  V151336     0.1185
      6  N6         0.4490    3.9140   10.2220 N.2   1336  V151336    -0.3330
      7  C8        -2.9240    0.3220   10.5550 C.ar  1336  V151336    -0.0043
      8  C9        -3.7390   -0.2850    9.6130 C.ar  1336  V151336    -0.0003
      9  C10       -4.9320    0.3280    9.2390 C.ar  1336  V151336    -0.0000
     10  C11       -5.3010    1.5450    9.7980 C.ar  1336  V151336    -0.0003
     11  C12       -4.4790    2.1540   10.7390 C.ar  1336  V151336    -0.0043
     12  N14        2.0730    5.0420    9.0150 N.pl3 1336  V151336    -0.0226
     13  C15       -1.0030    2.5100   11.5770 C.3   1336  V151336     0.0613
     14  C7        -3.2810    1.5500   11.1110 C.ar  1336  V151336    -0.0218
     15  C16       -2.4140    2.2460   12.1290 C.3   1336  V151336     0.0335
     16  O15       -2.3150    6.5040    9.1830 O.2   1336  V151336    -0.2130
@<TRIPOS>BOND
     1    12     2    1
     2     1     2    2
     3     1     3    2
     4    16     3    2
     5     9     8   ar
     6     9    10   ar
     7     2     6    2
     8     3     4    1
     9     8     7   ar
    10    10    11   ar
    11     6     5    2
    12     4     5    1
    13     7    14   ar
    14     5    13    1
    15    11    14   ar
    16    14    15    1
    17    13    15    1
