@<TRIPOS>MOLECULE
2v03_CIT_A_1.pdb
 13 12 0 0 0
SMALL
GASTEIGER

@<TRIPOS>ATOM
      1  C1        22.3650   12.9630   10.6140 C.2   1297  CIT1297     0.3680
      2  O1        22.8910   13.9440   11.2090 O.co2 1297  CIT1297    -0.2455
      3  O2        21.9950   13.0460    9.4090 O.co2 1297  CIT1297    -0.2455
      4  C2        22.2080   11.6450   11.3070 C.3   1297  CIT1297     0.1560
      5  C3        22.1860   11.7000   12.8290 C.3   1297  CIT1297     0.2402
      6  O7        23.4360   12.2900   13.2250 O.3   1297  CIT1297    -0.2129
      7  C4        22.1300   10.2830   13.3750 C.3   1297  CIT1297     0.1560
      8  C5        22.0090   10.2880   14.8640 C.2   1297  CIT1297     0.3680
      9  O3        20.8720   10.1390   15.3720 O.co2 1297  CIT1297    -0.2455
     10  O4        23.0070   10.4170   15.6350 O.co2 1297  CIT1297    -0.2455
     11  C6        21.1130   12.5660   13.4250 C.2   1297  CIT1297     0.3927
     12  O5        21.4500   13.5580   14.1020 O.co2 1297  CIT1297    -0.2429
     13  O6        19.8940   12.3020   13.2270 O.co2 1297  CIT1297    -0.2429
@<TRIPOS>BOND
     1     3     1   ar
     2     1     2   ar
     3     1     4    1
     4     4     5    1
     5     5     6    1
     6     5     7    1
     7     5    11    1
     8    13    11   ar
     9     7     8    1
    10    11    12   ar
    11     8     9   ar
    12     8    10   ar
