@<TRIPOS>MOLECULE
2v07_HEM_A_1.pdb
 43 50 0 0 0
SMALL
GASTEIGER

@<TRIPOS>ATOM
      1 FE         20.0440  -22.6730   16.3510 Fe    1102  HEM1102     0.0000
      2  CHA       23.4270  -23.2590   16.1420 C.2   1102  HEM1102     0.0000
      3  CHB       20.3790  -20.0370   14.2210 C.2   1102  HEM1102     0.0000
      4  CHC       16.6330  -22.3020   16.2880 C.2   1102  HEM1102     0.0000
      5  CHD       19.7320  -25.0580   18.7060 C.2   1102  HEM1102     0.0000
      6  NA        21.5920  -21.8350   15.3570 N.ar  1102  HEM1102     0.0000
      7  C1A       22.9290  -22.1960   15.4450 C.ar  1102  HEM1102     0.0000
      8  C2A       23.7160  -21.2530   14.6730 C.ar  1102  HEM1102     0.0000
      9  C3A       22.8690  -20.3780   14.1190 C.ar  1102  HEM1102     0.0000
     10  C4A       21.5100  -20.7180   14.5410 C.ar  1102  HEM1102     0.0000
     11  CMA       23.2190  -19.1870   13.2150 C.3   1102  HEM1102     0.0000
     12  CAA       25.2510  -21.3130   14.5780 C.3   1102  HEM1102     0.0000
     13  CBA       25.8390  -20.8160   15.9050 C.3   1102  HEM1102     0.0000
     14  CGA       27.3430  -20.9760   16.0070 C.2   1102  HEM1102     0.0000
     15  O1A       27.9090  -21.7890   15.2330 O.co2 1102  HEM1102     0.0000
     16  O2A       27.9810  -20.3180   16.9020 O.co2 1102  HEM1102     0.0000
     17  NB        18.7380  -21.4190   15.4460 N.2   1102  HEM1102     0.0000
     18  C1B       19.0970  -20.3730   14.6310 C.2   1102  HEM1102     0.0000
     19  C2B       17.8920  -19.7000   14.2080 C.2   1102  HEM1102     0.0000
     20  C3B       16.8470  -20.3300   14.7710 C.2   1102  HEM1102     0.0000
     21  C4B       17.3720  -21.4290   15.5460 C.2   1102  HEM1102     0.0000
     22  CMB       17.9160  -18.4860   13.2710 C.3   1102  HEM1102     0.0000
     23  CAB       15.3490  -20.0710   14.5940 C.3   1102  HEM1102     0.0000
     24  CBB       14.9370  -20.1860   13.2930 C.3   1102  HEM1102     0.0000
     25  NC        18.4610  -23.5180   17.3110 N.ar  1102  HEM1102     0.0000
     26  C1C       17.1470  -23.2180   17.1500 C.ar  1102  HEM1102     0.0000
     27  C2C       16.3870  -24.0150   18.0980 C.ar  1102  HEM1102     0.0000
     28  C3C       17.2430  -24.7880   18.7790 C.ar  1102  HEM1102     0.0000
     29  C4C       18.5720  -24.4860   18.2800 C.ar  1102  HEM1102     0.0000
     30  CMC       14.8760  -23.9570   18.2490 C.3   1102  HEM1102     0.0000
     31  CAC       16.9340  -25.7840   19.9010 C.2   1102  HEM1102     0.0000
     32  CBC       15.9780  -26.7240   19.7840 C.2   1102  HEM1102     0.0000
     33  ND        21.3440  -23.9210   17.2580 N.2   1102  HEM1102     0.0000
     34  C1D       20.9590  -24.8920   18.1740 C.2   1102  HEM1102     0.0000
     35  C2D       22.0950  -25.7400   18.5030 C.2   1102  HEM1102     0.0000
     36  C3D       23.2210  -25.1940   17.6910 C.2   1102  HEM1102     0.0000
     37  C4D       22.6940  -24.0760   16.9660 C.2   1102  HEM1102     0.0000
     38  CMD       22.1260  -26.9560   19.4410 C.3   1102  HEM1102     0.0000
     39  CAD       24.6330  -25.7750   17.6740 C.3   1102  HEM1102     0.0000
     40  CBD       24.6490  -26.9050   16.6360 C.3   1102  HEM1102     0.0000
     41  CGD       26.0070  -27.5900   16.5420 C.2   1102  HEM1102     0.0000
     42  O1D       26.2290  -28.3930   15.6150 O.co2 1102  HEM1102     0.0000
     43  O2D       26.8760  -27.3630   17.3940 O.co2 1102  HEM1102     0.0000
@<TRIPOS>BOND
     1    11     9    1
     2    22    19    1
     3    24    23    1
     4     9    10   ar
     5     9     8   ar
     6    19    18    1
     7    19    20    2
     8     3    10    2
     9     3    18    1
    10    10     6   ar
    11    12     8    1
    12    12    13    1
    13    23    20    1
    14    18    17    2
    15     8     7   ar
    16    20    21    1
    17    15    14   ar
    18     6     7   ar
    19     6     1    1
    20     7     2    2
    21    17    21    1
    22    17     1    1
    23    21     4    2
    24    42    41   ar
    25    13    14    1
    26    14    16   ar
    27     2    37    1
    28     4    26    1
    29     1    33    1
    30     1    25    1
    31    41    40    1
    32    41    43   ar
    33    40    39    1
    34    37    33    2
    35    37    36    1
    36    26    25   ar
    37    26    27   ar
    38    33    34    1
    39    25    29   ar
    40    39    36    1
    41    36    35    2
    42    27    30    1
    43    27    28   ar
    44    34    35    1
    45    34     5    2
    46    29     5    1
    47    29    28   ar
    48    35    38    1
    49    28    31    1
    50    32    31    2
