@<TRIPOS>MOLECULE
2v08_HEM_A_1.pdb
 43 50 0 0 0
SMALL
GASTEIGER

@<TRIPOS>ATOM
      1 FE         18.7360    6.2350    2.2840 Fe    1087  HEM1087     0.0000
      2  CHA       21.2660    3.9770    1.9380 C.2   1087  HEM1087     0.0000
      3  CHB       17.7280    5.6990   -0.9240 C.2   1087  HEM1087     0.0000
      4  CHC       15.8930    7.9300    2.9300 C.2   1087  HEM1087     0.0000
      5  CHD       19.8830    7.1210    5.4300 C.2   1087  HEM1087     0.0000
      6  NA        19.3570    5.0370    0.7970 N.ar  1087  HEM1087     0.0000
      7  C1A       20.5040    4.2430    0.8140 C.ar  1087  HEM1087     0.0000
      8  C2A       20.6870    3.6960   -0.4990 C.ar  1087  HEM1087     0.0000
      9  C3A       19.7190    4.1910   -1.2770 C.ar  1087  HEM1087     0.0000
     10  C4A       18.8510    5.0110   -0.4820 C.ar  1087  HEM1087     0.0000
     11  CMA       19.4390    3.8960   -2.7570 C.3   1087  HEM1087     0.0000
     12  CAA       21.8650    2.7620   -0.9220 C.3   1087  HEM1087     0.0000
     13  CBA       23.0780    3.7050   -1.2270 C.3   1087  HEM1087     0.0000
     14  CGA       24.4130    2.9700   -1.4440 C.2   1087  HEM1087     0.0000
     15  O1A       24.4860    1.7580   -1.1360 O.co2 1087  HEM1087     0.0000
     16  O2A       25.4500    3.5480   -1.8850 O.co2 1087  HEM1087     0.0000
     17  NB        17.0780    6.7440    1.2400 N.2   1087  HEM1087     0.0000
     18  C1B       16.8820    6.4460   -0.0920 C.2   1087  HEM1087     0.0000
     19  C2B       15.6460    7.0120   -0.5080 C.2   1087  HEM1087     0.0000
     20  C3B       15.0880    7.6400    0.5590 C.2   1087  HEM1087     0.0000
     21  C4B       16.0120    7.4570    1.6690 C.2   1087  HEM1087     0.0000
     22  CMB       15.1710    6.8480   -1.9880 C.3   1087  HEM1087     0.0000
     23  CAB       13.6970    8.3670    0.6170 C.3   1087  HEM1087     0.0000
     24  CBB       12.5370    7.6220    0.2930 C.3   1087  HEM1087     0.0000
     25  NC        18.0190    7.3210    3.9230 N.ar  1087  HEM1087     0.0000
     26  C1C       16.8570    8.0350    3.9070 C.ar  1087  HEM1087     0.0000
     27  C2C       16.7880    8.8250    5.0870 C.ar  1087  HEM1087     0.0000
     28  C3C       17.9040    8.6000    5.8030 C.ar  1087  HEM1087     0.0000
     29  C4C       18.6830    7.6650    5.0610 C.ar  1087  HEM1087     0.0000
     30  CMC       15.6600    9.7950    5.5010 C.3   1087  HEM1087     0.0000
     31  CAC       18.2720    9.2740    7.1520 C.3   1087  HEM1087     0.0000
     32  CBC       17.5740    9.1450    8.3390 C.3   1087  HEM1087     0.0000
     33  ND        20.2950    5.6590    3.5130 N.2   1087  HEM1087     0.0000
     34  C1D       20.4920    6.0860    4.7860 C.2   1087  HEM1087     0.0000
     35  C2D       21.5760    5.3370    5.3470 C.2   1087  HEM1087     0.0000
     36  C3D       21.9840    4.3670    4.2820 C.2   1087  HEM1087     0.0000
     37  C4D       21.1560    4.6120    3.1650 C.2   1087  HEM1087     0.0000
     38  CMD       22.1450    5.4200    6.7620 C.3   1087  HEM1087     0.0000
     39  CAD       23.0810    3.3320    4.4810 C.3   1087  HEM1087     0.0000
     40  CBD       22.3470    2.1040    5.0300 C.3   1087  HEM1087     0.0000
     41  CGD       23.3840    1.0270    5.2930 C.2   1087  HEM1087     0.0000
     42  O1D       23.9880    0.9570    6.3700 O.co2 1087  HEM1087     0.0000
     43  O2D       23.6350    0.2110    4.4130 O.co2 1087  HEM1087     0.0000
@<TRIPOS>BOND
     1    11     9    1
     2    22    19    1
     3    16    14   ar
     4    14    13    1
     5    14    15   ar
     6     9     8   ar
     7     9    10   ar
     8    13    12    1
     9     3    10    2
    10     3    18    1
    11    12     8    1
    12    19    18    1
    13    19    20    2
    14     8     7   ar
    15    10     6   ar
    16    18    17    2
    17    24    23    1
    18    20    23    1
    19    20    21    1
    20     6     7   ar
    21     6     1    1
    22     7     2    2
    23    17    21    1
    24    17     1    1
    25    21     4    2
    26     2    37    1
    27     1    33    1
    28     1    25    1
    29     4    26    1
    30    37    33    2
    31    37    36    1
    32    33    34    1
    33    26    25   ar
    34    26    27   ar
    35    25    29   ar
    36    36    39    1
    37    36    35    2
    38    43    41   ar
    39    39    40    1
    40    34    35    1
    41    34     5    2
    42    40    41    1
    43    29     5    1
    44    29    28   ar
    45    27    30    1
    46    27    28   ar
    47    41    42   ar
    48    35    38    1
    49    28    31    1
    50    31    32    1
