@<TRIPOS>MOLECULE
2v0c_LMS_A_1.pdb
 23 25 0 0 0
SMALL
GASTEIGER

@<TRIPOS>ATOM
      1  N9        16.5610  -33.3920   12.8930 N.pl3 1814  LMS1814    -0.1439
      2  C8        16.4840  -32.1740   12.3410 C.3   1814  LMS1814     0.3377
      3  N7        16.6100  -32.2460   10.9920 N.2   1814  LMS1814    -0.2095
      4  C5        16.7890  -33.5420   10.6810 C.2   1814  LMS1814     0.2526
      5  C6        17.0160  -34.3130    9.4280 C.2   1814  LMS1814     0.4393
      6  N6        17.0830  -33.6360    8.2580 N.pl3 1814  LMS1814     0.2180
      7  N1        17.1530  -35.6430    9.5300 N.2   1814  LMS1814     0.0021
      8  C2        17.1350  -36.2810   10.7380 C.3   1814  LMS1814     0.5254
      9  N3        16.9210  -35.6500   11.9060 N.2   1814  LMS1814    -0.0055
     10  C4        16.7510  -34.3020   11.9350 C.2   1814  LMS1814     0.3518
     11  N         16.8460  -28.5060   15.7610 N.3   1814  LMS1814     0.0391
     12  S         15.7920  -29.1730   16.5180 S.3   1814  LMS1814     0.0828
     13  O1P       15.8920  -29.0890   18.0670 O.3   1814  LMS1814    -0.0529
     14  O2P       14.4030  -28.7510   16.2680 O.3   1814  LMS1814    -0.0529
     15  O5'       15.9880  -30.6860   16.1570 O.3   1814  LMS1814    -0.2246
     16  C5'       15.2060  -31.6890   16.8110 C.3   1814  LMS1814     0.2061
     17  C4'       15.6990  -33.0450   16.3920 C.3   1814  LMS1814     0.1842
     18  O4'       15.3610  -33.1920   15.0000 O.3   1814  LMS1814    -0.3135
     19  C3'       17.2200  -33.2480   16.5220 C.3   1814  LMS1814     0.2185
     20  O3'       17.4840  -34.5390   17.0730 O.3   1814  LMS1814    -0.2174
     21  C2'       17.7130  -33.1830   15.0790 C.3   1814  LMS1814     0.2570
     22  O2'       18.8870  -33.9580   14.8240 O.3   1814  LMS1814    -0.2130
     23  C1'       16.4840  -33.7400   14.3340 C.3   1814  LMS1814     0.3186
@<TRIPOS>BOND
     1     6     5    1
     2     5     7    2
     3     5     4    1
     4     7     8    1
     5     4     3    2
     6     4    10    1
     7     8     9    1
     8     3     2    1
     9     9    10    2
    10    10     1    1
    11     2     1    1
    12     1    23    1
    13    23    18    1
    14    23    21    1
    15    22    21    1
    16    18    17    1
    17    21    19    1
    18    11    12    1
    19    15    12    1
    20    15    16    1
    21    14    12    1
    22    17    19    1
    23    17    16    1
    24    12    13    1
    25    19    20    1
