@<TRIPOS>MOLECULE
2v0c_ANZ_A_1.pdb
 33 38 0 0 0
SMALL
GASTEIGER

@<TRIPOS>ATOM
      1  CB        56.9160  -26.1230   28.0670 C.3   1817  ANZ1817     0.0000
      2  CG        56.3700  -26.3920   26.6800 C.ar  1817  ANZ1817     0.0000
      3  CD1       57.0360  -27.0880   25.6720 C.ar  1817  ANZ1817     0.0000
      4  CD2       55.0770  -25.9270   26.5340 C.ar  1817  ANZ1817     0.0000
      5  CE1       56.3820  -27.2610   24.4340 C.ar  1817  ANZ1817     0.0000
      6  CE2       54.4220  -26.0840   25.2980 C.ar  1817  ANZ1817     0.0000
      7  CZ        55.0780  -26.7690   24.2590 C.ar  1817  ANZ1817     0.0000
      8  P         48.0320  -23.4780   29.3650 P.3   1817  ANZ1817     0.0000
      9  O1P       47.7690  -22.8660   27.9910 O.2   1817  ANZ1817     0.0000
     10  O2P       47.3710  -24.8530   29.4870 O.3   1817  ANZ1817     0.0000
     11  O3P       47.9150  -22.4740   30.5030 O.3   1817  ANZ1817     0.0000
     12  N9        51.9410  -21.3750   29.1410 N.pl3 1817  ANZ1817     0.5000
     13  C8        51.7110  -21.6990   30.4430 C.3   1817  ANZ1817     0.0000
     14  N7        51.3330  -20.5900   31.1170 N.2   1817  ANZ1817     0.0000
     15  C5        51.3330  -19.5840   30.2190 C.2   1817  ANZ1817     0.0000
     16  C6        51.0420  -18.2390   30.3340 C.2   1817  ANZ1817     0.0000
     17  N6        50.6810  -17.7860   31.5600 N.pl3 1817  ANZ1817     0.5000
     18  N1        51.1340  -17.4220   29.2390 N.2   1817  ANZ1817     0.5000
     19  C2        51.5180  -17.9340   28.0330 C.3   1817  ANZ1817     0.0000
     20  N3        51.8020  -19.2460   27.8940 N.2   1817  ANZ1817     0.5000
     21  C4        51.7090  -20.0800   28.9740 C.2   1817  ANZ1817     0.0000
     22  O5'       49.6140  -23.8590   29.2730 O.3   1817  ANZ1817     0.0000
     23  C5'       50.0520  -24.7480   28.2440 C.3   1817  ANZ1817     0.0000
     24  C4'       51.4300  -24.3530   27.7450 C.3   1817  ANZ1817     0.0000
     25  O4'       51.3950  -22.9610   27.3790 O.3   1817  ANZ1817     0.0000
     26  C3'       52.5070  -24.5650   28.8080 C.3   1817  ANZ1817     0.0000
     27  O3'       53.3480  -25.6600   28.5160 O.3   1817  ANZ1817     0.0000
     28  C2'       53.3370  -23.3140   28.6410 C.3   1817  ANZ1817     0.0000
     29  O2'       54.3650  -23.6850   27.7310 O.3   1817  ANZ1817     0.0000
     30  C1'       52.4180  -22.2580   28.0520 C.3   1817  ANZ1817     0.0000
     31  F         57.0300  -27.9450   23.4670 F     1817  ANZ1817     0.0000
     32  O1        55.7980  -25.4200   28.6640 O.3   1817  ANZ1817     0.0000
     33  B         54.5500  -25.1840   27.7390 B     1817  ANZ1817     0.0000
@<TRIPOS>BOND
     1    31     5    1
     2     7     5   ar
     3     7     6   ar
     4     5     3   ar
     5     6     4   ar
     6     3     2   ar
     7     4     2   ar
     8     4    33    1
     9     2     1    1
    10    25    24    1
    11    25    30    1
    12    29    33    1
    13    29    28    1
    14    33    27    1
    15    33    32    1
    16    24    23    1
    17    24    26    1
    18    20    19    1
    19    20    21    2
    20     9     8    2
    21    19    18    1
    22    30    28    1
    23    30    12    1
    24     1    32    1
    25    23    22    1
    26    27    26    1
    27    28    26    1
    28    21    12    1
    29    21    15    1
    30    12    13    1
    31    18    16    2
    32    22     8    1
    33     8    10    1
    34     8    11    1
    35    15    16    1
    36    15    14    2
    37    16    17    1
    38    13    14    1
