@<TRIPOS>MOLECULE
2v0d_C53_A_1.pdb
 14 15 0 0 0
SMALL
GASTEIGER

@<TRIPOS>ATOM
      1  C2        13.8540   -8.3720    9.2970 C.ar  1299  C531299     0.0148
      2  C3        14.1030   -8.0380    7.9420 C.ar  1299  C531299     0.0028
      3  C4        14.3250   -6.7230    7.5970 C.ar  1299  C531299     0.0207
      4  C5        14.3070   -5.7290    8.5900 C.ar  1299  C531299     0.0984
      5  N1        14.0700   -6.0530    9.8930 N.ar  1299  C531299    -0.2481
      6  C1        13.8100   -7.3530   10.2610 C.ar  1299  C531299     0.0610
      7  C6        13.6650   -7.6510   11.6360 C.3   1299  C531299     0.0749
      8  C7        13.1270   -8.8530   12.1490 C.3   1299  C531299     0.1790
      9  S1        13.2950   -9.3120   13.7560 S.3   1299  C531299    -0.0455
     10  C8        12.2800   -9.7320   11.4740 C.1   1299  C531299     0.1921
     11  O1        11.9850   -9.6410   10.2900 O.2   1299  C531299    -0.2132
     12  N2        11.8610  -10.7570   12.3080 N.2   1299  C531299    -0.3105
     13  C9        12.3410  -10.6180   13.5860 C.2   1299  C531299     0.2594
     14  N3        12.1030  -11.4450   14.5490 N.pl3 1299  C531299    -0.0858
@<TRIPOS>BOND
     1     3     2   ar
     2     3     4   ar
     3     2     1   ar
     4     4     5   ar
     5     1     6   ar
     6     5     6   ar
     7     6     7    1
     8    11    10    2
     9    10     8    1
    10    10    12    2
    11     7     8    1
    12     8     9    1
    13    12    13    2
    14    13     9    1
    15    13    14    1
