@<TRIPOS>MOLECULE
2v0i_UD1_A_1.pdb
 39 41 0 0 0
SMALL
GASTEIGER

@<TRIPOS>ATOM
      1  C1'       67.4300    6.3410   76.1460 C.3   1455  UD11455     0.2633
      2  C2'       67.1100    5.7250   74.7820 C.3   1455  UD11455     0.1845
      3  C3'       66.8290    6.8150   73.7670 C.3   1455  UD11455     0.2094
      4  C4'       65.6970    7.7230   74.2160 C.3   1455  UD11455     0.2136
      5  C5'       65.6830    8.0370   75.7170 C.3   1455  UD11455     0.1834
      6  C6'       64.3540    8.4050   76.3520 C.3   1455  UD11455     0.2142
      7  C7'       68.5270    3.7350   74.5460 C.2   1455  UD11455     0.2420
      8  C8'       69.8080    3.1790   73.9810 C.3   1455  UD11455     0.0964
      9  N2'       68.3230    5.0360   74.3370 N.am  1455  UD11455    -0.1992
     10  O1'       68.6090    7.1410   76.0790 O.3   1455  UD11455    -0.2864
     11  O3'       66.5250    6.3000   72.4850 O.3   1455  UD11455    -0.2183
     12  O4'       65.6020    8.9030   73.4460 O.3   1455  UD11455    -0.2176
     13  O5'       66.4330    7.2320   76.6220 O.3   1455  UD11455    -0.3260
     14  O6'       64.7140    9.4450   77.2590 O.3   1455  UD11455    -0.2176
     15  O7'       67.7240    3.0250   75.1430 O.2   1455  UD11455    -0.2733
     16  N1        69.2860    1.9190   82.4450 N.am  1455  UD11455    -0.1766
     17  C2        69.2290    0.6770   83.1840 C.1   1455  UD11455     0.2845
     18  N3        70.3260   -0.2260   82.9720 N.2   1455  UD11455    -0.2452
     19  C4        71.1120   -0.0840   81.9200 C.1   1455  UD11455     0.2182
     20  C5        70.9930    1.0330   81.1660 C.2   1455  UD11455     0.1242
     21  C6        70.0760    1.9800   81.4370 C.2   1455  UD11455     0.0929
     22  O2        68.5430    0.4910   84.4000 O.2   1455  UD11455    -0.1918
     23  O4        72.0230   -1.0070   81.6420 O.2   1455  UD11455    -0.2085
     24  C1B       68.2790    2.9440   82.7000 C.3   1455  UD11455     0.2401
     25  C2B       69.0210    4.2660   82.9280 C.3   1455  UD11455     0.2319
     26  O2'       69.4500    4.4420   84.2670 O.3   1455  UD11455    -0.2157
     27  C3B       68.0030    5.2890   82.5070 C.3   1455  UD11455     0.2158
     28  C4B       67.2260    4.5930   81.4060 C.3   1455  UD11455     0.1799
     29  O4B       67.4120    3.1730   81.5900 O.3   1455  UD11455    -0.3320
     30  O3B       67.1380    5.5990   83.5840 O.3   1455  UD11455    -0.2175
     31  C5B       67.7030    5.0500   80.0360 C.3   1455  UD11455     0.1813
     32  O5B       69.0470    4.6090   79.8590 O.3   1455  UD11455    -0.3112
     33  PA        70.2420    5.5420   79.3270 P.3   1455  UD11455     0.2189
     34  O1A       70.3300    6.7100   80.2740 O.3   1455  UD11455    -0.4371
     35  O2A       71.4040    4.6410   79.0500 O.2   1455  UD11455    -0.5170
     36  O3A       69.7260    5.9730   77.8790 O.3   1455  UD11455    -0.2703
     37  PB        69.4860    7.4720   77.3880 P.3   1455  UD11455     0.2208
     38  O1B       68.6560    8.2090   78.4000 O.3   1455  UD11455    -0.4371
     39  O2B       70.7960    8.0420   76.9060 O.2   1455  UD11455    -0.5170
@<TRIPOS>BOND
     1    11     3    1
     2    12     4    1
     3     3     4    1
     4     3     2    1
     5     8     7    1
     6     4     5    1
     7     9     7   am
     8     9     2    1
     9     7    15    2
    10     2     1    1
    11     5     6    1
    12     5    13    1
    13    10     1    1
    14    10    37    1
    15     1    13    1
    16     6    14    1
    17    39    37    2
    18    37    36    1
    19    37    38    1
    20    36    33    1
    21    35    33    2
    22    33    32    1
    23    33    34    1
    24    32    31    1
    25    31    28    1
    26    20    21    2
    27    20    19    1
    28    28    29    1
    29    28    27    1
    30    21    16    1
    31    29    24    1
    32    23    19    2
    33    19    18    2
    34    16    24    1
    35    16    17   am
    36    27    25    1
    37    27    30    1
    38    24    25    1
    39    25    26    1
    40    18    17    2
    41    17    22    2
