@<TRIPOS>MOLECULE
2v0j_H2U_A_1.pdb
 21 22 0 0 0
SMALL
GASTEIGER

@<TRIPOS>ATOM
      1  P         83.9510   32.3730   38.8470 P.3   1453  H2U1453     0.5327
      2  OP1       83.0290   31.1240   37.8660 O.2   1453  H2U1453    -0.2224
      3  OP2       83.0330   32.8930   40.1430 O.3   1453  H2U1453    -0.1145
      4  OP3       85.4010   31.7170   39.3710 O.3   1453  H2U1453    -0.1145
      5  O5'       84.3100   33.8260   37.8070 O.3   1453  H2U1453    -0.2675
      6  C5'       83.2440   34.4840   37.0780 C.3   1453  H2U1453     0.1859
      7  C4'       83.5300   34.8150   35.6510 C.3   1453  H2U1453     0.1801
      8  O4'       84.8770   35.2930   35.5460 O.3   1453  H2U1453    -0.3320
      9  C3'       83.4150   33.5680   34.7850 C.3   1453  H2U1453     0.2158
     10  O3'       82.7060   33.8730   33.6000 O.3   1453  H2U1453    -0.2175
     11  C1'       85.5900   34.5210   34.5720 C.3   1453  H2U1453     0.2401
     12  C2'       84.8480   33.1850   34.4700 C.3   1453  H2U1453     0.2319
     13  O2'       84.9760   32.5580   33.1990 O.3   1453  H2U1453    -0.2157
     14  N1        86.9970   34.3290   34.9610 N.am  1453  H2U1453    -0.1766
     15  C2        88.0570   34.6840   34.0670 C.1   1453  H2U1453     0.2845
     16  O2        87.7790   35.1820   32.9430 O.2   1453  H2U1453    -0.1918
     17  N3        89.3580   34.4910   34.4470 N.2   1453  H2U1453    -0.2452
     18  C4        89.6340   33.9530   35.6720 C.1   1453  H2U1453     0.2182
     19  O4        90.8120   33.7570   36.0530 O.2   1453  H2U1453    -0.2085
     20  C5        88.6070   33.6040   36.5410 C.2   1453  H2U1453     0.1242
     21  C6        87.2850   33.8020   36.1660 C.2   1453  H2U1453     0.0929
@<TRIPOS>BOND
     1    16    15    2
     2    13    12    1
     3    10     9    1
     4    15    17    2
     5    15    14   am
     6    17    18    2
     7    12    11    1
     8    12     9    1
     9    11    14    1
    10    11     8    1
    11     9     7    1
    12    14    21    1
    13     8     7    1
    14     7     6    1
    15    18    19    2
    16    18    20    1
    17    21    20    2
    18     6     5    1
    19     5     1    1
    20     2     1    2
    21     1     4    1
    22     1     3    1
