@<TRIPOS>MOLECULE
2v0k_UDP_A_1.pdb
 25 26 0 0 0
SMALL
GASTEIGER

@<TRIPOS>ATOM
      1  N1        86.9610   34.2240   34.9030 N.am  1454  UDP1454    -0.1766
      2  C2        88.0670   34.6890   34.1410 C.1   1454  UDP1454     0.2845
      3  N3        89.3320   34.5000   34.5920 N.2   1454  UDP1454    -0.2452
      4  C4        89.5410   33.8680   35.7730 C.1   1454  UDP1454     0.2182
      5  C5        88.4700   33.4070   36.5280 C.2   1454  UDP1454     0.1242
      6  C6        87.1740   33.5970   36.0690 C.2   1454  UDP1454     0.0929
      7  O2        87.8740   35.2770   33.0490 O.2   1454  UDP1454    -0.1918
      8  O4        90.6980   33.6880   36.1970 O.2   1454  UDP1454    -0.2085
      9  C1'       85.5930   34.4230   34.3950 C.3   1454  UDP1454     0.2401
     10  C2'       84.8220   33.1060   34.3140 C.3   1454  UDP1454     0.2319
     11  O2'       85.0300   32.4140   33.0900 O.3   1454  UDP1454    -0.2157
     12  C3'       83.3800   33.5390   34.5030 C.3   1454  UDP1454     0.2158
     13  C4'       83.4770   34.7870   35.3640 C.3   1454  UDP1454     0.1799
     14  O4'       84.8180   35.2840   35.2390 O.3   1454  UDP1454    -0.3320
     15  O3'       82.7720   33.8550   33.2630 O.3   1454  UDP1454    -0.2175
     16  C5'       83.2090   34.4250   36.7890 C.3   1454  UDP1454     0.1813
     17  O5'       84.2860   33.7850   37.5250 O.3   1454  UDP1454    -0.3111
     18  PA        83.9290   32.5970   38.8750 P.3   1454  UDP1454     0.2231
     19  O1A       83.4540   33.4770   40.2180 O.3   1454  UDP1454    -0.4370
     20  O2A       85.3030   31.7040   39.2270 O.2   1454  UDP1454    -0.5169
     21  O3A       82.5550   31.4870   38.3660 O.3   1454  UDP1454    -0.2261
     22  PB        82.7750   30.1810   37.4430 P.3   1454  UDP1454     0.5373
     23  O1B       83.4090   29.1680   38.3690 O.3   1454  UDP1454    -0.1143
     24  O2B       81.3690   29.8300   37.0040 O.3   1454  UDP1454    -0.1143
     25  O3B       83.6740   30.6480   36.3220 O.2   1454  UDP1454    -0.2221
@<TRIPOS>BOND
     1     7     2    2
     2    11    10    1
     3    15    12    1
     4     2     3    2
     5     2     1   am
     6    10     9    1
     7    10    12    1
     8     9     1    1
     9     9    14    1
    10    12    13    1
    11     3     4    2
    12     1     6    1
    13    14    13    1
    14    13    16    1
    15     4     8    2
    16     4     5    1
    17     6     5    2
    18    25    22    2
    19    16    17    1
    20    24    22    1
    21    22    21    1
    22    22    23    1
    23    17    18    1
    24    21    18    1
    25    18    20    2
    26    18    19    1
