@<TRIPOS>MOLECULE
2v0l_URI_A_1.pdb
 17 18 0 0 0
SMALL
GASTEIGER

@<TRIPOS>ATOM
      1  N1        86.8440   34.4690   35.2060 N.am  1454  URI1454    -0.1766
      2  C2        87.8880   34.7090   34.2190 C.1   1454  URI1454     0.2845
      3  N3        89.2440   34.6110   34.7090 N.2   1454  URI1454    -0.2452
      4  C4        89.4650   33.9590   35.8440 C.1   1454  URI1454     0.2182
      5  C5        88.4220   33.6030   36.6150 C.2   1454  URI1454     0.1242
      6  C6        87.1530   33.8450   36.2670 C.2   1454  URI1454     0.0929
      7  O2        87.6240   35.5350   33.0920 O.2   1454  URI1454    -0.1918
      8  O4        90.6930   33.6810   36.2620 O.2   1454  URI1454    -0.2085
      9  C1'       85.4390   34.6540   34.8440 C.3   1454  URI1454     0.2401
     10  C2'       84.8340   33.2670   34.6150 C.3   1454  URI1454     0.2319
     11  C3'       83.4120   33.3820   35.1330 C.3   1454  URI1454     0.2159
     12  C4'       83.3880   34.6260   36.0090 C.3   1454  URI1454     0.1829
     13  O2'       84.8650   32.8740   33.2510 O.3   1454  URI1454    -0.2157
     14  O3'       82.4920   33.5240   34.0650 O.3   1454  URI1454    -0.2175
     15  O4'       84.6750   35.2560   35.8960 O.3   1454  URI1454    -0.3318
     16  C5'       83.0580   34.2910   37.4630 C.3   1454  URI1454     0.2142
     17  O5'       83.9920   33.3590   37.9920 O.3   1454  URI1454    -0.2176
@<TRIPOS>BOND
     1     7     2    2
     2    13    10    1
     3    14    11    1
     4     2     3    2
     5     2     1   am
     6    10     9    1
     7    10    11    1
     8     3     4    2
     9     9     1    1
    10     9    15    1
    11    11    12    1
    12     1     6    1
    13     4     8    2
    14     4     5    1
    15    15    12    1
    16    12    16    1
    17     6     5    2
    18    16    17    1
