@<TRIPOS>MOLECULE
2v0m_KLN_A_1.pdb
 36 40 0 0 0
SMALL
GASTEIGER

@<TRIPOS>ATOM
      1  N1        16.6530    9.6530   65.7350 N.ar  1500  KLN1500    -0.3025
      2  C1        17.1670   10.0100   66.9280 C.ar  1500  KLN1500     0.1788
      3  N2        17.9240    9.0430   67.3500 N.ar  1500  KLN1500    -0.2223
      4  C2        17.9230    8.0460   66.4530 C.ar  1500  KLN1500     0.1193
      5  C3        17.1310    8.4090   65.4290 C.ar  1500  KLN1500     0.0982
      6  C4        15.7560   10.4560   64.9130 C.3   1500  KLN1500     0.1682
      7  C5        16.6050   11.4760   64.1560 C.3   1500  KLN1500     0.2296
      8  O1        17.7830   10.8620   63.6220 O.3   1500  KLN1500    -0.3255
      9  C6        18.8730   11.7710   63.8240 C.3   1500  KLN1500     0.1909
     10  C7        18.4510   12.6130   65.0460 C.3   1500  KLN1500     0.1783
     11  O2        17.0020   12.5190   65.0570 O.3   1500  KLN1500    -0.3267
     12  C8        15.7890   12.0730   63.0450 C.ar  1500  KLN1500     0.0409
     13  C9        15.5400   11.3740   61.8630 C.ar  1500  KLN1500     0.0591
     14  C10       14.7860   11.9690   60.8640 C.ar  1500  KLN1500     0.0226
     15  C11       14.2910   13.2470   61.0620 C.ar  1500  KLN1500     0.0585
     16  C12       14.5360   13.9400   62.2370 C.ar  1500  KLN1500     0.0113
     17  C13       15.2870   13.3500   63.2320 C.ar  1500  KLN1500     0.0022
     18 CL1        13.3430   14.0220   59.8430 Cl    1500  KLN1500    -0.0822
     19  C14       20.1390   10.9780   64.1330 C.3   1500  KLN1500     0.2374
     20  O3        21.0230   11.0900   63.0160 O.3   1500  KLN1500    -0.4727
     21  C15       21.1300    9.9140   62.3210 C.ar  1500  KLN1500     0.1388
     22  C16       21.9490    9.9160   61.1970 C.ar  1500  KLN1500     0.0382
     23  C17       22.1160    8.7680   60.4470 C.ar  1500  KLN1500     0.0176
     24  C18       21.4630    7.5860   60.8080 C.ar  1500  KLN1500     0.0481
     25  C19       20.6420    7.5810   61.9410 C.ar  1500  KLN1500     0.0176
     26  C20       20.4720    8.7350   62.6900 C.ar  1500  KLN1500     0.0382
     27  N3        21.6370    6.4120   60.0450 N.pl3 1500  KLN1500    -0.3041
     28  C21       20.3630    6.0500   59.4130 C.3   1500  KLN1500     0.1123
     29  C22       20.5110    4.6470   58.8040 C.3   1500  KLN1500     0.1148
     30  N4        21.7240    4.5080   57.9580 N.am  1500  KLN1500    -0.2760
     31  C23       22.9280    5.3450   58.2190 C.3   1500  KLN1500     0.1148
     32  C24       22.5830    6.6630   58.9400 C.3   1500  KLN1500     0.1123
     33  C25       21.7380    3.5840   56.9610 C.2   1500  KLN1500     0.2262
     34  O4        22.7230    3.4320   56.2550 O.2   1500  KLN1500    -0.2749
     35  C26       20.5230    2.7250   56.7000 C.3   1500  KLN1500     0.0948
     36 CL2        16.1670    9.7660   61.6170 Cl    1500  KLN1500    -0.0824
@<TRIPOS>BOND
     1    34    33    2
     2    35    33    1
     3    33    30   am
     4    30    31    1
     5    30    29    1
     6    31    32    1
     7    29    28    1
     8    32    27    1
     9    28    27    1
    10    18    15    1
    11    27    24    1
    12    23    24   ar
    13    23    22   ar
    14    24    25   ar
    15    14    15   ar
    16    14    13   ar
    17    15    16   ar
    18    22    21   ar
    19    36    13    1
    20    13    12   ar
    21    25    26   ar
    22    16    17   ar
    23    21    26   ar
    24    21    20    1
    25    20    19    1
    26    12    17   ar
    27    12     7    1
    28     8     9    1
    29     8     7    1
    30     9    19    1
    31     9    10    1
    32     7     6    1
    33     7    11    1
    34     6     1    1
    35    10    11    1
    36     5     1   ar
    37     5     4   ar
    38     1     2   ar
    39     4     3   ar
    40     2     3   ar
