@<TRIPOS>MOLECULE
2v0m_HEM_A_1.pdb
 43 50 0 0 0
SMALL
GASTEIGER

@<TRIPOS>ATOM
      1  CHA       21.8070   10.0490   67.1660 C.2   1499  HEM1499     0.0000
      2  CHB       19.8650    5.8690   68.7140 C.2   1499  HEM1499     0.0000
      3  CHC       16.3590    8.3590   70.9710 C.2   1499  HEM1499     0.0000
      4  CHD       18.2350   12.5440   69.3790 C.2   1499  HEM1499     0.0000
      5  NA        20.5620    8.1470   68.0990 N.ar  1499  HEM1499     0.0000
      6  C1A       21.5970    8.7040   67.3850 C.ar  1499  HEM1499     0.0000
      7  C2A       22.4370    7.6190   66.9070 C.ar  1499  HEM1499     0.0000
      8  C3A       21.9130    6.4580   67.3400 C.ar  1499  HEM1499     0.0000
      9  C4A       20.7150    6.7710   68.0980 C.ar  1499  HEM1499     0.0000
     10  CMA       22.4660    5.0370   67.0830 C.3   1499  HEM1499     0.0000
     11  CAA       23.7190    7.8120   66.0700 C.3   1499  HEM1499     0.0000
     12  CBA       24.8640    7.9320   67.0730 C.3   1499  HEM1499     0.0000
     13  CGA       26.1990    7.7550   66.4080 C.2   1499  HEM1499     0.0000
     14  O1A       26.3170    8.1240   65.2130 O.co2 1499  HEM1499     0.0000
     15  O2A       27.1580    7.2650   67.0560 O.co2 1499  HEM1499     0.0000
     16  NB        18.2700    7.4320   69.7310 N.2   1499  HEM1499     0.0000
     17  C1B       18.7240    6.1630   69.4340 C.2   1499  HEM1499     0.0000
     18  C2B       17.7930    5.2130   70.0130 C.2   1499  HEM1499     0.0000
     19  C3B       16.8230    5.9020   70.6360 C.2   1499  HEM1499     0.0000
     20  C4B       17.1080    7.3170   70.4750 C.2   1499  HEM1499     0.0000
     21  CMB       17.9190    3.6820   69.9160 C.3   1499  HEM1499     0.0000
     22  CAB       15.6020    5.3290   71.3940 C.2   1499  HEM1499     0.0000
     23  CBB       15.7630    4.4330   72.3730 C.2   1499  HEM1499     0.0000
     24  NC        17.5510   10.2610   69.9650 N.ar  1499  HEM1499     0.0000
     25  C1C       16.5840    9.7100   70.7880 C.ar  1499  HEM1499     0.0000
     26  C2C       15.8540   10.8060   71.4220 C.ar  1499  HEM1499     0.0000
     27  C3C       16.3790   11.9630   70.9760 C.ar  1499  HEM1499     0.0000
     28  C4C       17.4530   11.6380   70.0540 C.ar  1499  HEM1499     0.0000
     29  CMC       14.6850   10.6410   72.4240 C.3   1499  HEM1499     0.0000
     30  CAC       15.9570   13.4060   71.3450 C.2   1499  HEM1499     0.0000
     31  CBC       15.0630   13.6750   72.3010 C.2   1499  HEM1499     0.0000
     32  ND        19.9050   11.0200   68.3720 N.2   1499  HEM1499     0.0000
     33  C1D       19.3730   12.2800   68.6420 C.2   1499  HEM1499     0.0000
     34  C2D       20.2170   13.2850   68.0310 C.2   1499  HEM1499     0.0000
     35  C3D       21.3430   12.5120   67.3400 C.2   1499  HEM1499     0.0000
     36  C4D       21.0590   11.1130   67.6090 C.2   1499  HEM1499     0.0000
     37  CMD       20.0280   14.8150   68.0650 C.3   1499  HEM1499     0.0000
     38  CAD       22.5210   13.1160   66.5340 C.3   1499  HEM1499     0.0000
     39  CBD       23.6710   13.4510   67.4860 C.3   1499  HEM1499     0.0000
     40  CGD       24.7050   14.3450   66.8320 C.2   1499  HEM1499     0.0000
     41  O1D       25.1730   15.3170   67.4970 O.co2 1499  HEM1499     0.0000
     42  O2D       25.0730   14.0930   65.6490 O.co2 1499  HEM1499     0.0000
     43 FE         19.1270    9.1770   69.0620 Fe    1499  HEM1499     0.0000
@<TRIPOS>BOND
     1    14    13   ar
     2    42    40   ar
     3    11     7    1
     4    11    12    1
     5    13    15   ar
     6    13    12    1
     7    38    35    1
     8    38    39    1
     9    40    39    1
    10    40    41   ar
    11     7     8   ar
    12     7     6   ar
    13    10     8    1
    14     1     6    2
    15     1    36    1
    16    35    36    1
    17    35    34    2
    18     8     9   ar
    19     6     5   ar
    20    36    32    2
    21    34    37    1
    22    34    33    1
    23     9     5   ar
    24     9     2    2
    25     5    43    1
    26    32    33    1
    27    32    43    1
    28    33     4    2
    29     2    17    1
    30    43    16    1
    31    43    24    1
    32     4    28    1
    33    17    16    2
    34    17    18    1
    35    16    20    1
    36    21    18    1
    37    24    28   ar
    38    24    25   ar
    39    18    19    2
    40    28    27   ar
    41    20    19    1
    42    20     3    2
    43    19    22    1
    44    25     3    1
    45    25    26   ar
    46    27    30    1
    47    27    26   ar
    48    30    31    2
    49    22    23    2
    50    26    29    1
