@<TRIPOS>MOLECULE
2v0n_C2E_A_1.pdb
 46 52 0 0 0
SMALL
GASTEIGER

@<TRIPOS>ATOM
      1  P1        76.9100   63.9880   70.3130 P.3   503  C2E503      0.2141
      2  O2P       76.9010   62.5230   70.6000 O.2   503  C2E503     -0.5172
      3  O1P       76.6540   64.8850   71.4970 O.3   503  C2E503     -0.4373
      4  O5'       78.3650   64.4790   69.8580 O.3   503  C2E503     -0.3114
      5  C5'       78.6450   65.5900   68.9930 C.3   503  C2E503      0.1812
      6  O4'       81.0290   65.3080   68.5460 O.3   503  C2E503     -0.3327
      7  C3'       79.6630   64.9200   66.6080 C.3   503  C2E503      0.1857
      8  O3'       78.8420   65.9170   65.9820 O.3   503  C2E503     -0.3112
      9  C2'       81.1500   64.9680   66.2760 C.3   503  C2E503      0.2282
     10  O2'       81.5480   66.2640   65.8560 O.3   503  C2E503     -0.2159
     11  C1'       81.8670   64.6640   67.5830 C.3   503  C2E503      0.2292
     12  N9        81.9860   63.1890   67.8010 N.pl3 503  C2E503     -0.2354
     13  C8        81.3600   62.4520   68.7520 C.3   503  C2E503      0.2246
     14  N7        81.6930   61.1550   68.6480 N.2   503  C2E503     -0.2322
     15  C5        82.5620   61.0730   67.6270 C.2   503  C2E503      0.2182
     16  C6        83.2430   59.9990   67.0890 C.1   503  C2E503      0.2372
     17  O6        83.1270   58.8430   67.5550 O.2   503  C2E503     -0.2069
     18  N1        84.0360   60.2120   66.0540 N.2   503  C2E503     -0.2485
     19  C2        84.1980   61.4270   65.5530 C.1   503  C2E503      0.2531
     20  N2        85.0320   61.5330   64.5110 N.pl3 503  C2E503     -0.0226
     21  N3        83.5660   62.5110   66.0520 N.2   503  C2E503     -0.3074
     22  C4        82.7380   62.3460   67.0950 C.2   503  C2E503      0.2300
     23  C4'       79.7110   64.9470   68.1420 C.3   503  C2E503      0.1771
     24  P11       78.0470   65.2590   64.7380 P.3   503  C2E503      0.2141
     25  O21       79.0000   64.3730   63.9590 O.2   503  C2E503     -0.5172
     26  O11       77.2440   66.3470   64.0260 O.3   503  C2E503     -0.4373
     27  O5A       76.8850   64.3300   65.3010 O.3   503  C2E503     -0.3114
     28  C5A       75.9060   65.0160   66.0720 C.3   503  C2E503      0.1812
     29  C4A       75.0920   64.0580   66.9180 C.3   503  C2E503      0.1771
     30  O4A       74.3960   63.0720   66.1410 O.3   503  C2E503     -0.3327
     31  C3A       75.8020   63.3900   68.1050 C.3   503  C2E503      0.1857
     32  O3A       75.8050   64.3480   69.1750 O.3   503  C2E503     -0.3112
     33  C2A       74.8830   62.1840   68.2610 C.3   503  C2E503      0.2282
     34  O2A       73.7770   62.5530   69.0500 O.3   503  C2E503     -0.2159
     35  C1A       74.3330   61.8600   66.8920 C.3   503  C2E503      0.2292
     36  N91       75.1650   60.8890   66.1700 N.pl3 503  C2E503     -0.2354
     37  C81       76.1560   61.1790   65.3130 C.3   503  C2E503      0.2246
     38  N71       76.6740   60.0350   64.8230 N.2   503  C2E503     -0.2322
     39  C51       75.9860   59.0100   65.3770 C.2   503  C2E503      0.2182
     40  C61       76.0470   57.6120   65.2690 C.1   503  C2E503      0.2372
     41  O61       76.8630   56.9910   64.5410 O.2   503  C2E503     -0.2069
     42  N11       75.2060   56.8850   65.9810 N.2   503  C2E503     -0.2485
     43  C21       74.3240   57.4440   66.7730 C.1   503  C2E503      0.2531
     44  N21       73.5040   56.6520   67.4480 N.pl3 503  C2E503     -0.0226
     45  N31       74.2200   58.7670   66.9160 N.2   503  C2E503     -0.3074
     46  C41       75.0450   59.5720   66.2260 C.2   503  C2E503      0.2300
@<TRIPOS>BOND
     1    25    24    2
     2    26    24    1
     3    20    19    1
     4    41    40    2
     5    24    27    1
     6    24     8    1
     7    38    37    1
     8    38    39    2
     9    40    39    1
    10    40    42    2
    11    27    28    1
    12    37    36    1
    13    39    46    1
    14    19    21    2
    15    19    18    2
    16    10     9    1
    17    42    43    2
    18     8     7    1
    19    21    22    2
    20    18    16    2
    21    28    29    1
    22    30    35    1
    23    30    29    1
    24    36    46    1
    25    36    35    1
    26    46    45    2
    27     9     7    1
    28     9    11    1
    29     7    23    1
    30    43    45    2
    31    43    44    1
    32    35    33    1
    33    29    31    1
    34    16    17    2
    35    16    15    1
    36    22    15    1
    37    22    12    1
    38    11    12    1
    39    11     6    1
    40    15    14    2
    41    12    13    1
    42    31    33    1
    43    31    32    1
    44    23     6    1
    45    23     5    1
    46    33    34    1
    47    14    13    1
    48     5     4    1
    49    32     1    1
    50     4     1    1
    51     1     2    2
    52     1     3    1
