@<TRIPOS>MOLECULE
2v0n_GAV_A_1.pdb
 32 34 0 0 0
SMALL
GASTEIGER

@<TRIPOS>ATOM
      1  O6        73.4440   37.3790   47.9140 O.2   600  GAV600     -0.2069
      2  C6        73.4790   37.8810   46.8010 C.1   600  GAV600      0.2372
      3  C5        72.3440   38.4940   46.2510 C.2   600  GAV600      0.2182
      4  C4        72.4520   39.0430   44.9770 C.2   600  GAV600      0.2300
      5  N3        73.6370   38.9730   44.2960 N.2   600  GAV600     -0.3074
      6  C2        74.7520   38.3730   44.8470 C.1   600  GAV600      0.2531
      7  N2        75.8890   38.3250   44.1540 N.pl3 600  GAV600     -0.0226
      8  N1        74.6720   37.8100   46.1060 N.2   600  GAV600     -0.2485
      9  N7        71.0670   38.7110   46.6790 N.2   600  GAV600     -0.2322
     10  C8        70.3740   39.3760   45.7100 C.3   600  GAV600      0.2246
     11  N9        71.2270   39.6010   44.6500 N.pl3 600  GAV600     -0.2354
     12  C1'       70.9730   40.2350   43.3270 C.3   600  GAV600      0.2293
     13  C2'       69.6100   39.8840   42.7380 C.3   600  GAV600      0.2310
     14  O2'       69.6130   38.5740   42.2210 O.3   600  GAV600     -0.2158
     15  C3'       69.4220   40.9550   41.6710 C.3   600  GAV600      0.2158
     16  O3'       69.5720   40.4630   40.3570 O.3   600  GAV600     -0.2175
     17  O4'       71.0470   41.6410   43.2480 O.3   600  GAV600     -0.3326
     18  C4'       70.5160   41.9810   41.9730 C.3   600  GAV600      0.1800
     19  C5'       70.0320   43.4250   41.9890 C.3   600  GAV600      0.1843
     20  O5'       69.1500   43.7400   40.9210 O.3   600  GAV600     -0.2834
     21  PA        68.2000   45.0470   41.0840 P.3   600  GAV600      0.4081
     22  S1A       66.9520   44.6460   42.1890 S.3   600  GAV600      0.0395
     23  O2A       67.6710   45.5640   39.7600 O.2   600  GAV600     -0.2446
     24  O3A       69.1250   46.1180   41.8760 O.3   600  GAV600     -0.2418
     25  PB        69.8840   47.3970   41.2610 P.3   600  GAV600      0.2302
     26  O1B       70.5370   47.0620   39.9380 O.2   600  GAV600     -0.5167
     27  O2B       70.9110   47.8090   42.2850 O.3   600  GAV600     -0.4368
     28  O3B       68.7310   48.5290   41.1380 O.3   600  GAV600     -0.2257
     29  PG        68.9080   50.1070   41.4620 P.3   600  GAV600      0.5373
     30  O1G       69.9210   50.6940   40.5000 O.2   600  GAV600     -0.2221
     31  O3G       69.3740   50.4220   42.8490 O.3   600  GAV600     -0.1143
     32  O2G       67.5500   50.7510   41.3650 O.3   600  GAV600     -0.1143
@<TRIPOS>BOND
     1    23    21    2
     2    26    25    2
     3    16    15    1
     4    30    29    2
     5    20    21    1
     6    20    19    1
     7    21    24    1
     8    21    22    1
     9    28    25    1
    10    28    29    1
    11    25    24    1
    12    25    27    1
    13    32    29    1
    14    29    31    1
    15    15    18    1
    16    15    13    1
    17    18    19    1
    18    18    17    1
    19    14    13    1
    20    13    12    1
    21    17    12    1
    22    12    11    1
    23     7     6    1
    24     5     6    2
    25     5     4    2
    26    11     4    1
    27    11    10    1
    28     6     8    2
    29     4     3    1
    30    10     9    1
    31     8     2    2
    32     3     9    2
    33     3     2    1
    34     2     1    2
