@<TRIPOS>MOLECULE
2v0u_FMN_A_1.pdb
 31 33 0 0 0
SMALL
GASTEIGER

@<TRIPOS>ATOM
      1  N1        20.6350    0.5840    5.8310 N.2   1547  FMN1547    -0.2887
      2  C2        20.8850   -0.6480    5.2890 C.1   1547  FMN1547     0.3669
      3  O2        22.0590   -0.9960    5.1180 O.2   1547  FMN1547    -0.1744
      4  N3        19.8160   -1.4390    4.9220 N.2   1547  FMN1547    -0.2300
      5  C4        18.4980   -1.1080    5.1140 C.1   1547  FMN1547     0.2513
      6  O4        17.5800   -1.8430    4.6820 O.2   1547  FMN1547    -0.2057
      7  C4A       18.2410    0.1590    5.6810 C.2   1547  FMN1547     0.2706
      8  N5        16.9470    0.5440    5.9120 N.2   1547  FMN1547    -0.3841
      9  C5A       16.7150    1.8270    6.4040 C.2   1547  FMN1547     0.1452
     10  C6        15.4000    2.2290    6.5830 C.2   1547  FMN1547     0.0252
     11  C7        15.1070    3.5010    7.0940 C.2   1547  FMN1547    -0.0375
     12  C7M       13.6920    4.0130    7.1040 C.3   1547  FMN1547     0.0268
     13  C8        16.1780    4.3180    7.4380 C.3   1547  FMN1547     0.0417
     14  C8M       15.9210    5.7360    7.9050 C.3   1547  FMN1547     0.0091
     15  C9        17.4970    3.9180    7.2670 C.2   1547  FMN1547    -0.0049
     16  C9A       17.7910    2.6460    6.7420 C.2   1547  FMN1547     0.0795
     17  N10       19.1000    2.2230    6.5620 N.pl3 1547  FMN1547    -0.2545
     18  C10       19.3360    0.9680    6.0160 C.2   1547  FMN1547     0.2449
     19  C1'       20.2520    3.1620    6.7080 C.3   1547  FMN1547     0.1336
     20  C2'       20.8530    3.2110    8.1180 C.3   1547  FMN1547     0.2048
     21  O2'       19.8520    3.1860    9.1170 O.3   1547  FMN1547    -0.2185
     22  C3'       21.7060    4.4810    8.2580 C.3   1547  FMN1547     0.2165
     23  O3'       20.9210    5.6020    7.8900 O.3   1547  FMN1547    -0.2175
     24  C4'       22.9590    4.4520    7.3920 C.3   1547  FMN1547     0.2147
     25  O4'       23.8100    3.4060    7.8210 O.3   1547  FMN1547    -0.2176
     26  C5'       23.7170    5.7840    7.3880 C.3   1547  FMN1547     0.1892
     27  O5'       23.8650    6.2980    8.6990 O.3   1547  FMN1547    -0.2674
     28  P         25.1800    6.0320    9.5690 P.3   1547  FMN1547     0.5327
     29  O1P       25.3170    4.5290    9.7810 O.3   1547  FMN1547    -0.1145
     30  O2P       25.0330    6.7720   10.8760 O.3   1547  FMN1547    -0.1145
     31  O3P       26.3780    6.5040    8.7870 O.2   1547  FMN1547    -0.2224
@<TRIPOS>BOND
     1     6     5    2
     2     4     5    2
     3     4     2    2
     4     5     7    1
     5     3     2    2
     6     2     1    2
     7     7     8    2
     8     7    18    1
     9     1    18    2
    10     8     9    2
    11    18    17    1
    12     9    10    1
    13     9    16    1
    14    17    19    1
    15    17    16    1
    16    10    11    2
    17    19    20    1
    18    16    15    2
    19    11    12    1
    20    11    13    1
    21    15    13    1
    22    26    24    1
    23    26    27    1
    24    24    25    1
    25    24    22    1
    26    13    14    1
    27    23    22    1
    28    20    22    1
    29    20    21    1
    30    27    28    1
    31    31    28    2
    32    28    29    1
    33    28    30    1
