@<TRIPOS>MOLECULE
2v0w_FMN_A_1.pdb
 31 33 0 0 0
SMALL
GASTEIGER

@<TRIPOS>ATOM
      1  N1        20.3670    0.4610    6.0770 N.2   1547  FMN1547    -0.2937
      2  C2        20.5840   -0.8480    5.6370 C.1   1547  FMN1547     0.3663
      3  O2        21.7420   -1.2110    5.5380 O.2   1547  FMN1547    -0.1745
      4  N3        19.5540   -1.6640    5.1980 N.2   1547  FMN1547    -0.2346
      5  C4        18.2380   -1.2910    5.3260 C.1   1547  FMN1547     0.2239
      6  O4        17.2950   -2.0460    5.0400 O.2   1547  FMN1547    -0.2109
      7  N5        16.7260    0.4960    5.8080 N.2   1547  FMN1547    -0.2495
      8  C5A       16.4800    1.8090    6.2900 C.2   1547  FMN1547     0.0730
      9  C6        15.1720    2.2450    6.3750 C.3   1547  FMN1547     0.0684
     10  C7        14.8730    3.5420    6.7940 C.2   1547  FMN1547    -0.0418
     11  C7M       13.4610    4.0420    6.7460 C.3   1547  FMN1547     0.0264
     12  C8        15.9150    4.3490    7.1840 C.2   1547  FMN1547    -0.0281
     13  C8M       15.6680    5.7710    7.6230 C.3   1547  FMN1547     0.0304
     14  C9        17.2240    3.9130    7.1380 C.2   1547  FMN1547     0.0112
     15  C9A       17.5420    2.6240    6.6530 C.2   1547  FMN1547     0.0667
     16  N10       18.8370    2.1800    6.6040 N.pl3 1547  FMN1547    -0.2591
     17  C1'       20.0160    3.0470    6.5550 C.3   1547  FMN1547     0.1333
     18  C2'       20.6240    3.2540    7.9080 C.3   1547  FMN1547     0.2048
     19  O2'       19.6550    3.2670    8.9210 O.3   1547  FMN1547    -0.2185
     20  C3'       21.4670    4.5380    7.9300 C.3   1547  FMN1547     0.2165
     21  O3'       20.6220    5.6230    7.5550 O.3   1547  FMN1547    -0.2175
     22  C4'       22.6710    4.4370    7.0030 C.3   1547  FMN1547     0.2147
     23  O4'       23.5600    3.4560    7.5130 O.3   1547  FMN1547    -0.2176
     24  C5'       23.4170    5.7780    6.8840 C.3   1547  FMN1547     0.1892
     25  O5'       23.6430    6.3260    8.1710 O.3   1547  FMN1547    -0.2674
     26  P         24.9980    6.1090    8.9750 P.3   1547  FMN1547     0.5327
     27  O1P       24.8620    6.8220   10.2830 O.3   1547  FMN1547    -0.1145
     28  O2P       26.1470    6.5760    8.1150 O.2   1547  FMN1547    -0.2224
     29  O3P       25.1590    4.6090    9.2650 O.3   1547  FMN1547    -0.1145
     30  C4A       17.9210   -0.1110    6.2630 C.3   1547  FMN1547     0.2881
     31  C10       19.0740    0.8940    6.1480 C.2   1547  FMN1547     0.2191
@<TRIPOS>BOND
     1     6     5    2
     2     4     5    2
     3     4     2    2
     4     5    30    1
     5     3     2    2
     6     2     1    2
     7     7    30    1
     8     7     8    2
     9     1    31    2
    10    31    30    1
    11    31    16    1
    12     8     9    1
    13     8    15    1
    14     9    10    1
    15    17    16    1
    16    17    18    1
    17    16    15    1
    18    15    14    2
    19    11    10    1
    20    10    12    2
    21    24    22    1
    22    24    25    1
    23    22    23    1
    24    22    20    1
    25    14    12    1
    26    12    13    1
    27    21    20    1
    28    18    20    1
    29    18    19    1
    30    28    26    2
    31    25    26    1
    32    26    29    1
    33    26    27    1
