@<TRIPOS>MOLECULE
2v0z_C41_C_1.pdb
 39 39 0 0 0
SMALL
GASTEIGER

@<TRIPOS>ATOM
      1  C1        15.0150   42.2060   70.2320 C.3   1328  C411328     0.1741
      2  O2        15.4670   43.5420   70.3270 O.3   1328  C411328    -0.3510
      3  C3        14.5690   44.3930   69.5720 C.3   1328  C411328     0.1461
      4  C4        14.2460   45.6780   70.3420 C.3   1328  C411328     0.0794
      5  C5        13.7670   45.3640   71.7650 C.3   1328  C411328     0.2082
      6  O6        13.5730   46.5520   72.5430 O.3   1328  C411328    -0.4723
      7  C7        12.4480   47.3610   72.3100 C.ar  1328  C411328     0.1719
      8  C8        11.3440   46.9530   71.6000 C.ar  1328  C411328     0.0358
      9  C9        10.2990   47.8670   71.4030 C.ar  1328  C411328    -0.0190
     10  C10       10.3860   49.1860   71.9330 C.ar  1328  C411328    -0.0009
     11  C11       11.4920   49.5980   72.6540 C.ar  1328  C411328     0.0397
     12  C12       12.5320   48.6720   72.8450 C.ar  1328  C411328     0.1724
     13  O13       13.7160   48.9420   73.5900 O.3   1328  C411328    -0.4684
     14  C14       13.9310   50.2470   74.1580 C.3   1328  C411328     0.2526
     15  C15        9.0560   47.4570   70.6110 C.3   1328  C411328     0.0265
     16  C16        9.3830   46.9610   69.1900 C.3   1328  C411328     0.0059
     17  C17       10.2440   48.0040   68.4170 C.3   1328  C411328     0.0004
     18  C18       10.7340   47.4340   67.0790 C.3   1328  C411328     0.0000
     19  C19        9.4810   49.3390   68.2340 C.3   1328  C411328     0.0000
     20  C20        8.0620   46.6810   68.4600 C.3   1328  C411328     0.0220
     21  C21        7.2830   45.4640   68.9730 C.3   1328  C411328     0.1221
     22  N22        8.1090   44.2510   68.7700 N.3   1328  C411328    -0.1302
     23  C23        5.9490   45.3180   68.2140 C.3   1328  C411328     0.1699
     24  O24        6.2230   44.8010   66.9080 O.3   1328  C411328    -0.2216
     25  C25        4.9930   44.3330   68.9230 C.3   1328  C411328     0.0435
     26  C26        3.6730   44.0650   68.1510 C.3   1328  C411328     0.0808
     27  C27        2.6600   43.2060   68.9760 C.3   1328  C411328     0.0087
     28  C28        1.3860   42.9090   68.1490 C.3   1328  C411328     0.0005
     29  C29        3.2960   41.8970   69.4400 C.3   1328  C411328     0.0005
     30  C30        3.0420   45.3990   67.7650 C.2   1328  C411328     0.2410
     31  O31        2.7040   46.2240   68.6280 O.2   1328  C411328    -0.2734
     32  N32        2.9320   45.6220   66.4630 N.am  1328  C411328    -0.2049
     33  C33        2.4060   46.8560   65.8820 C.3   1328  C411328     0.1237
     34  C34        1.1490   46.6710   65.0450 C.3   1328  C411328     0.0921
     35  C35        1.3890   45.6960   63.8770 C.3   1328  C411328     0.0110
     36  C36        0.7810   48.0300   64.4790 C.3   1328  C411328     0.0110
     37  C37        0.1120   46.2500   65.9150 C.2   1328  C411328     0.2615
     38  O38       -0.3810   45.1300   65.7570 O.2   1328  C411328    -0.2716
     39  N39       -0.2300   47.0350   66.9330 N.am  1328  C411328    -0.0878
@<TRIPOS>BOND
     1    35    34    1
     2    36    34    1
     3    34    33    1
     4    34    37    1
     5    38    37    2
     6    33    32    1
     7    37    39   am
     8    32    30   am
     9    24    23    1
    10    18    17    1
    11    30    26    1
    12    30    31    2
    13    28    27    1
    14    26    25    1
    15    26    27    1
    16    23    25    1
    17    23    21    1
    18    19    17    1
    19    17    16    1
    20    20    21    1
    21    20    16    1
    22    22    21    1
    23    27    29    1
    24    16    15    1
    25     3     2    1
    26     3     4    1
    27     1     2    1
    28     4     5    1
    29    15     9    1
    30     9     8   ar
    31     9    10   ar
    32     8     7   ar
    33     5     6    1
    34    10    11   ar
    35     7     6    1
    36     7    12   ar
    37    11    12   ar
    38    12    13    1
    39    13    14    1
