@<TRIPOS>MOLECULE
2v10_C61_C_1.pdb
 34 34 0 0 0
SMALL
GASTEIGER

@<TRIPOS>ATOM
      1  C2        15.8790   43.9080   69.8030 C.3   1341  C611341     0.1741
      2  O3        15.9160   45.0720   70.5930 O.3   1341  C611341    -0.3510
      3  C4        14.5790   45.5250   70.7430 C.3   1341  C611341     0.1461
      4  C5        14.4880   46.3440   72.0490 C.3   1341  C611341     0.0794
      5  C6        13.2840   47.2610   71.9710 C.3   1341  C611341     0.2082
      6  O7        13.2370   48.1260   73.0990 O.3   1341  C611341    -0.4723
      7  O8        13.2170   50.5430   74.6170 O.3   1341  C611341    -0.4684
      8  C9        12.9850   50.8150   76.0330 C.3   1341  C611341     0.2526
      9  C10       11.1500   48.8150   72.0110 C.ar  1341  C611341     0.0358
     10  C11       12.1830   49.0900   72.9270 C.ar  1341  C611341     0.1719
     11  C12       12.1670   50.2660   73.6800 C.ar  1341  C611341     0.1724
     12  C13       11.1220   51.1730   73.5130 C.ar  1341  C611341     0.0397
     13  C14       10.0940   50.9030   72.5870 C.ar  1341  C611341    -0.0009
     14  C15       10.1070   49.7130   71.8460 C.ar  1341  C611341    -0.0190
     15  C16        9.0290   49.3830   70.8280 C.3   1341  C611341     0.0265
     16  C17        9.7250   48.8990   69.5560 C.3   1341  C611341     0.0059
     17  C18       10.1090   50.1360   68.7190 C.3   1341  C611341     0.0004
     18  C19       10.7610   49.6390   67.6240 C.3   1341  C611341     0.0000
     19  C20        8.8630   50.8840   68.3510 C.3   1341  C611341     0.0000
     20  C21        8.7830   47.9670   68.8090 C.3   1341  C611341     0.0220
     21  C22        7.9910   47.1110   69.8190 C.3   1341  C611341     0.1221
     22  N23        8.8850   46.1350   70.4350 N.3   1341  C611341    -0.1302
     23  C24        6.8440   46.3770   69.0900 C.3   1341  C611341     0.1699
     24  O25        7.3560   45.4270   68.1170 O.3   1341  C611341    -0.2216
     25  C26        5.9280   45.6420   70.0680 C.3   1341  C611341     0.0435
     26  C27        5.0050   44.7760   69.2370 C.3   1341  C611341     0.0808
     27  C28        4.2640   43.6990   70.1740 C.3   1341  C611341     0.0097
     28  C29        3.8940   45.5660   68.5060 C.2   1341  C611341     0.2410
     29  O30        3.0710   46.2540   69.1210 O.2   1341  C611341    -0.2734
     30  N31        3.8460   45.4150   67.1940 N.am  1341  C611341    -0.2054
     31  C32        2.8010   45.9830   66.3790 C.3   1341  C611341     0.1151
     32  C33        2.6410   47.4500   66.3660 C.3   1341  C611341     0.0234
     33  C34        1.5180   47.8620   65.3930 C.3   1341  C611341     0.0018
     34  C35        1.8600   49.1950   64.6810 C.3   1341  C611341     0.0001
@<TRIPOS>BOND
     1    34    33    1
     2    33    32    1
     3    32    31    1
     4    31    30    1
     5    30    28   am
     6    18    17    1
     7    24    23    1
     8    19    17    1
     9    28    29    2
    10    28    26    1
    11    17    16    1
    12    20    16    1
    13    20    21    1
    14    23    21    1
    15    23    25    1
    16    26    25    1
    17    26    27    1
    18    16    15    1
    19     1     2    1
    20    21    22    1
    21     2     3    1
    22     3     4    1
    23    15    14    1
    24    14     9   ar
    25    14    13   ar
    26     5     4    1
    27     5     6    1
    28     9    10   ar
    29    13    12   ar
    30    10     6    1
    31    10    11   ar
    32    12    11   ar
    33    11     7    1
    34     7     8    1
