@<TRIPOS>MOLECULE
2v11_C80_C_1.pdb
 37 39 0 0 0
SMALL
GASTEIGER

@<TRIPOS>ATOM
      1  C1        15.0980   46.6280   70.8630 C.ar  1341  C801341    -0.0024
      2  C2        15.6330   45.8010   69.8770 C.ar  1341  C801341    -0.0003
      3  C3        15.3530   44.4480   69.8410 C.ar  1341  C801341    -0.0000
      4  C4        14.5260   43.9220   70.8090 C.ar  1341  C801341    -0.0003
      5  C5        13.9920   44.7510   71.7950 C.ar  1341  C801341    -0.0024
      6  C6        14.2740   46.1030   71.8330 C.ar  1341  C801341     0.0004
      7  C7        13.7260   46.9640   72.9610 C.3   1341  C801341     0.1328
      8  N8        12.8210   48.0430   72.5900 N.ar  1341  C801341    -0.3216
      9  C16       11.8290   47.9420   71.7430 C.ar  1341  C801341     0.0826
     10  C9        12.8690   49.2940   73.1280 C.ar  1341  C801341     0.0604
     11  C13       11.6110   51.3680   73.0890 C.ar  1341  C801341     0.0017
     12  C14       11.7980   50.0680   72.6660 C.ar  1341  C801341     0.0235
     13  C15       11.2070   49.1690   71.8180 C.ar  1341  C801341     0.0942
     14  C10       13.7740   49.8320   74.0370 C.ar  1341  C801341     0.0172
     15  C11       13.5850   51.1360   74.4660 C.ar  1341  C801341     0.0015
     16  C12       12.5180   51.8890   73.9970 C.ar  1341  C801341     0.0001
     17  C17       10.0360   49.6460   71.1980 C.2   1341  C801341     0.3427
     18  O18        9.1630   50.1370   71.9240 O.2   1341  C801341    -0.2448
     19  O19        9.8390   49.6510   69.9610 O.3   1341  C801341    -0.4454
     20  C20        9.7260   48.3690   69.3950 C.3   1341  C801341     0.2087
     21  C21        8.3020   48.0460   69.3880 C.3   1341  C801341     0.0454
     22  C22        8.0580   48.1910   67.9210 C.3   1341  C801341     0.0039
     23  C23        8.2130   46.6440   69.9150 C.3   1341  C801341     0.0253
     24  C24        6.8700   45.9430   70.0740 C.3   1341  C801341     0.1222
     25  N25        7.0100   44.5790   70.5290 N.3   1341  C801341    -0.1302
     26  C26        6.1410   45.8060   68.8060 C.3   1341  C801341     0.1699
     27  O27        6.9710   45.0670   67.9300 O.3   1341  C801341    -0.2216
     28  C28        4.7760   46.3900   68.5280 C.3   1341  C801341     0.0435
     29  C29        3.6910   45.5860   67.8910 C.3   1341  C801341     0.0808
     30  C30        3.3020   44.4370   68.7760 C.3   1341  C801341     0.0097
     31  C31        2.5390   46.5610   67.8030 C.2   1341  C801341     0.2410
     32  O32        1.8130   46.7350   68.7790 O.2   1341  C801341    -0.2734
     33  N33        2.3520   47.3480   66.7560 N.am  1341  C801341    -0.2054
     34  C34        1.7190   46.8670   65.5630 C.3   1341  C801341     0.1151
     35  C35        1.0820   48.0260   64.8790 C.3   1341  C801341     0.0234
     36  C36        2.1650   48.9200   64.3010 C.3   1341  C801341     0.0018
     37  C37        2.8290   48.3390   63.0020 C.3   1341  C801341     0.0001
@<TRIPOS>BOND
     1    37    36    1
     2    36    35    1
     3    35    34    1
     4    34    33    1
     5    33    31   am
     6    31    29    1
     7    31    32    2
     8    29    28    1
     9    29    30    1
    10    22    21    1
    11    27    26    1
    12    28    26    1
    13    26    24    1
    14    21    20    1
    15    21    23    1
    16    20    19    1
    17     3     2   ar
    18     3     4   ar
    19     2     1   ar
    20    23    24    1
    21    19    17    1
    22    24    25    1
    23     4     5   ar
    24     1     6   ar
    25    17    13    1
    26    17    18    2
    27     9    13   ar
    28     9     8   ar
    29     5     6   ar
    30    13    12   ar
    31     6     7    1
    32     8     7    1
    33     8    10   ar
    34    12    11   ar
    35    12    10   ar
    36    11    16   ar
    37    10    14   ar
    38    16    15   ar
    39    14    15   ar
