@<TRIPOS>MOLECULE
2v12_C39_C_1.pdb
 35 35 0 0 0
SMALL
GASTEIGER

@<TRIPOS>ATOM
      1  C1        15.5120   43.0430   70.2780 C.3   350  C39350      0.1741
      2  O2        15.7370   44.3980   70.6010 O.3   350  C39350     -0.3510
      3  C3        14.5810   45.1530   70.2710 C.3   350  C39350      0.1461
      4  C4        13.8990   45.6740   71.5360 C.3   350  C39350      0.0793
      5  C5        13.6060   47.1680   71.4880 C.3   350  C39350      0.2080
      6  O6        12.7030   47.5570   72.5150 O.3   350  C39350     -0.4752
      7  C7        12.6810   48.8420   73.0370 C.ar  350  C39350      0.1429
      8  C8        13.8730   49.2170   73.5950 C.ar  350  C39350      0.0370
      9  C9        14.0020   50.4830   74.0910 C.ar  350  C39350      0.0031
     10  C10       12.9530   51.3700   74.0240 C.ar  350  C39350      0.0003
     11  C11       11.7550   51.0270   73.4730 C.ar  350  C39350      0.0076
     12  C12       11.6170   49.7630   72.9910 C.ar  350  C39350      0.0889
     13  C13       10.4590   49.4420   72.3170 C.2   350  C39350      0.2677
     14  O14        9.3820   49.5780   72.8620 O.2   350  C39350     -0.2683
     15  N15       10.5600   48.6870   71.2580 N.am  350  C39350     -0.2016
     16  C16        9.4420   47.9010   70.8040 C.3   350  C39350      0.1155
     17  C17        9.3920   47.9170   69.3100 C.3   350  C39350      0.0233
     18  C18        9.8000   49.2600   68.6800 C.3   350  C39350      0.0018
     19  C19       11.2950   49.4220   68.4040 C.3   350  C39350      0.0001
     20  C20        9.1750   50.5110   69.2950 C.3   350  C39350      0.0001
     21  C21        8.0000   47.6100   68.8320 C.3   350  C39350      0.0234
     22  C22        7.1500   46.4770   69.3220 C.3   350  C39350      0.1221
     23  N23        7.9830   45.3270   69.5010 N.3   350  C39350     -0.1302
     24  C24        6.0900   46.0550   68.3240 C.3   350  C39350      0.1699
     25  O25        6.7880   45.2180   67.4030 O.3   350  C39350     -0.2216
     26  C26        4.9590   45.2790   68.9070 C.3   350  C39350      0.0435
     27  C27        3.7510   45.1450   68.0240 C.3   350  C39350      0.0808
     28  C28        2.8100   44.1580   68.6530 C.3   350  C39350      0.0097
     29  C29        3.0170   46.4290   67.8480 C.2   350  C39350      0.2410
     30  O30        3.1000   47.2770   68.7080 O.2   350  C39350     -0.2734
     31  N31        2.2840   46.6730   66.8050 N.am  350  C39350     -0.2054
     32  C32        2.4060   47.9420   66.1470 C.3   350  C39350      0.1151
     33  C33        2.0210   47.7670   64.7100 C.3   350  C39350      0.0234
     34  C34        2.4030   48.9950   63.8990 C.3   350  C39350      0.0018
     35  C35        2.8940   48.6200   62.4640 C.3   350  C39350      0.0001
@<TRIPOS>BOND
     1    35    34    1
     2    34    33    1
     3    33    32    1
     4    32    31    1
     5    31    29   am
     6    25    24    1
     7    29    27    1
     8    29    30    2
     9    27    28    1
    10    27    26    1
    11    24    26    1
    12    24    22    1
    13    19    18    1
    14    18    20    1
    15    18    17    1
    16    21    17    1
    17    21    22    1
    18    17    16    1
    19    22    23    1
    20     3     2    1
    21     3     4    1
    22     1     2    1
    23    16    15    1
    24    15    13   am
    25     5     4    1
    26     5     6    1
    27    13    14    2
    28    13    12    1
    29     6     7    1
    30    12     7   ar
    31    12    11   ar
    32     7     8   ar
    33    11    10   ar
    34     8     9   ar
    35    10     9   ar
