@<TRIPOS>MOLECULE
2v13_C40_A_1.pdb
 33 33 0 0 0
SMALL
GASTEIGER

@<TRIPOS>ATOM
      1  C1        86.2930   25.6350  -37.1600 C.3   1341  C401341     0.1741
      2  O2        85.7010   25.6730  -35.8710 O.3   1341  C401341    -0.3510
      3  C3        84.7080   24.6970  -36.0060 C.3   1341  C401341     0.1461
      4  C4        85.0570   23.5580  -35.0820 C.3   1341  C401341     0.0793
      5  C5        83.6860   22.9810  -34.8030 C.3   1341  C401341     0.2080
      6  O6        83.7070   21.7090  -34.1790 O.3   1341  C401341    -0.4752
      7  C7        82.7110   21.3470  -33.2880 C.ar  1341  C401341     0.1429
      8  C8        82.6060   22.1810  -32.1870 C.ar  1341  C401341     0.0370
      9  C9        81.5840   22.0740  -31.2900 C.ar  1341  C401341     0.0031
     10  C10       80.6400   21.1290  -31.4950 C.ar  1341  C401341     0.0003
     11  C11       80.7150   20.2900  -32.5850 C.ar  1341  C401341     0.0076
     12  C12       81.7410   20.3720  -33.4870 C.ar  1341  C401341     0.0889
     13  C13       81.8070   19.4940  -34.5830 C.2   1341  C401341     0.2677
     14  O14       81.8310   18.2950  -34.3790 O.2   1341  C401341    -0.2683
     15  C16       82.9160   18.9620  -36.6150 C.3   1341  C401341     0.1155
     16  N15       82.2470   19.8980  -35.7450 N.am  1341  C401341    -0.2016
     17  C18       80.9610   19.8110  -38.0050 C.3   1341  C401341     0.0019
     18  C17       82.4140   19.2530  -37.9850 C.3   1341  C401341     0.0233
     19  C19       82.4300   17.9810  -38.7790 C.3   1341  C401341     0.0234
     20  N21       84.7680   18.2490  -39.2870 N.3   1341  C401341    -0.1302
     21  C20       83.7330   17.3190  -38.9240 C.3   1341  C401341     0.1221
     22  C22       83.5650   16.3020  -40.0360 C.3   1341  C401341     0.1699
     23  O23       83.9430   17.1050  -41.1570 O.3   1341  C401341    -0.2216
     24  C24       84.4860   15.0650  -39.9620 C.3   1341  C401341     0.0435
     25  C25       84.5070   14.2200  -41.2130 C.3   1341  C401341     0.0808
     26  C26       85.6480   13.2880  -41.2340 C.3   1341  C401341     0.0097
     27  C27       83.3200   13.3510  -41.4160 C.2   1341  C401341     0.2410
     28  O28       82.6970   12.9220  -40.4510 O.2   1341  C401341    -0.2734
     29  C30       81.7740   12.3730  -42.9820 C.3   1341  C401341     0.1151
     30  N29       83.0160   13.0480  -42.6590 N.am  1341  C401341    -0.2054
     31  C31       80.5630   13.2390  -42.6730 C.3   1341  C401341     0.0234
     32  C32       79.2890   12.7330  -43.3300 C.3   1341  C401341     0.0018
     33  C33       78.8740   11.3490  -42.7430 C.3   1341  C401341     0.0001
@<TRIPOS>BOND
     1    32    33    1
     2    32    31    1
     3    29    31    1
     4    29    30    1
     5    30    27   am
     6    27    25    1
     7    27    28    2
     8    26    25    1
     9    25    24    1
    10    23    22    1
    11    22    24    1
    12    22    21    1
    13    20    21    1
    14    21    19    1
    15    19    18    1
    16    17    18    1
    17    18    15    1
    18     1     2    1
    19    15    16    1
    20     3     2    1
    21     3     4    1
    22    16    13   am
    23     4     5    1
    24     5     6    1
    25    13    14    2
    26    13    12    1
    27     6     7    1
    28    12     7   ar
    29    12    11   ar
    30     7     8   ar
    31    11    10   ar
    32     8     9   ar
    33    10     9   ar
