@<TRIPOS>MOLECULE
2v16_C47_C_1.pdb
 35 36 0 0 0
SMALL
GASTEIGER

@<TRIPOS>ATOM
      1  C1        15.0460   43.6410   70.8210 C.3   1327  C471327     0.2556
      2  O2        15.0650   45.1600   70.7220 O.3   1327  C471327    -0.4443
      3  C3        14.0670   45.7280   71.5810 C.2   1327  C471327     0.3186
      4  O4        13.5100   44.9490   72.3930 O.2   1327  C471327    -0.2500
      5  C5        13.6110   47.1370   71.5470 C.3   1327  C471327     0.1235
      6  C6        14.0030   47.4790   72.9680 C.3   1327  C471327     0.0405
      7  C7        13.5000   48.8170   73.3360 C.ar  1327  C471327    -0.0079
      8  C8        14.2950   49.7790   74.0560 C.ar  1327  C471327    -0.0030
      9  C9        13.6730   51.1380   74.3230 C.ar  1327  C471327    -0.0002
     10  C10       12.4190   51.5220   73.8450 C.ar  1327  C471327     0.0013
     11  C11       11.6820   50.6160   73.0600 C.ar  1327  C471327     0.0146
     12  C12       12.2480   49.2420   72.7600 C.ar  1327  C471327     0.0498
     13  N13       11.5300   48.1680   71.9710 N.am  1327  C471327    -0.2584
     14  C14       12.1670   46.9630   71.6000 C.3   1327  C471327     0.1096
     15  C15       10.1710   48.3200   71.6290 C.2   1327  C471327     0.2293
     16  O16        9.5430   49.3240   72.0060 O.2   1327  C471327    -0.2745
     17  C17        9.4860   47.3020   70.7100 C.3   1327  C471327     0.0856
     18  C18        8.9280   48.0840   69.6230 C.3   1327  C471327     0.0101
     19  C19        9.9140   48.9720   68.9730 C.3   1327  C471327     0.0005
     20  C20        7.7560   49.0040   70.0320 C.3   1327  C471327     0.0005
     21  C21        8.4640   47.1550   68.6220 C.3   1327  C471327     0.0221
     22  C22        7.4430   46.2430   69.2840 C.3   1327  C471327     0.1221
     23  N23        8.2470   44.9030   69.5060 N.3   1327  C471327    -0.1302
     24  C24        6.2660   45.9000   68.3560 C.3   1327  C471327     0.1699
     25  O25        6.9830   44.8730   67.5570 O.3   1327  C471327    -0.2216
     26  C26        5.1930   45.2640   69.3680 C.3   1327  C471327     0.0435
     27  C27        4.0430   44.7720   68.4950 C.3   1327  C471327     0.0808
     28  C28        3.2760   43.6620   69.2780 C.3   1327  C471327     0.0097
     29  C29        3.3150   46.0400   67.9720 C.2   1327  C471327     0.2410
     30  O30        3.5350   47.1020   68.4280 O.2   1327  C471327    -0.2734
     31  N31        2.5000   45.9940   66.9960 N.am  1327  C471327    -0.2054
     32  C32        1.9960   47.1240   66.2530 C.3   1327  C471327     0.1151
     33  C33        3.1300   47.8680   65.8800 C.3   1327  C471327     0.0234
     34  C34        2.7920   48.4560   64.5710 C.3   1327  C471327     0.0018
     35  C35        1.6740   49.4960   65.0320 C.3   1327  C471327     0.0001
@<TRIPOS>BOND
     1    34    35    1
     2    34    33    1
     3    33    32    1
     4    32    31    1
     5    31    29   am
     6    25    24    1
     7    29    30    2
     8    29    27    1
     9    24    22    1
    10    24    26    1
    11    27    28    1
    12    27    26    1
    13    21    22    1
    14    21    18    1
    15    19    18    1
    16    22    23    1
    17    18    20    1
    18    18    17    1
    19    17    15    1
    20     2     1    1
    21     2     3    1
    22     5     3    1
    23     5    14    1
    24     5     6    1
    25     3     4    2
    26    14    13    1
    27    15    13   am
    28    15    16    2
    29    13    12    1
    30    12    11   ar
    31    12     7   ar
    32     6     7    1
    33    11    10   ar
    34     7     8   ar
    35    10     9   ar
    36     8     9   ar
