@<TRIPOS>MOLECULE
2v17_III_A_1.pdb
 44 44 0 0 0
SMALL
GASTEIGER

@<TRIPOS>ATOM
      1  N        -31.0610  -26.5260    8.2950 N.3   386  THR386     -0.1203
      2  CA       -31.7100  -26.4430    9.6380 C.3   386  THR386      0.1994
      3  C        -30.9540  -27.2110   10.7520 C.2   386  THR386      0.2618
      4  O        -31.1930  -26.9490   11.9470 O.2   386  THR386     -0.2717
      5  CB       -33.2050  -26.8700    9.5690 C.3   386  THR386      0.1784
      6  OG1      -33.6450  -27.3650   10.8430 O.3   386  THR386     -0.2211
      7  CG2      -33.4260  -28.0360    8.6000 C.3   386  THR386      0.0376
      8  N        -30.0910  -28.1690   10.3780 N.am  387  ASP387     -0.1959
      9  CA       -29.0130  -28.6460   11.2680 C.3   387  ASP387      0.1840
     10  C        -27.8270  -27.7160   11.0320 C.2   387  ASP387      0.2622
     11  O        -27.1790  -27.7830    9.9830 O.2   387  ASP387     -0.2715
     12  CB       -28.6090  -30.1160   10.9670 C.3   387  ASP387      0.1450
     13  CG       -27.7360  -30.7460   12.0740 C.2   387  ASP387      0.3671
     14  OD1      -27.0400  -30.0300   12.8460 O.co2 387  ASP387     -0.2456
     15  OD2      -27.6730  -31.9840   12.2530 O.co2 387  ASP387     -0.2456
     16  N        -27.5540  -26.8340   11.9950 N.am  388  HIS388     -0.1959
     17  CA       -26.4420  -25.8880   11.8940 C.3   388  HIS388      0.1784
     18  C        -25.3600  -26.2610   12.9170 C.2   388  HIS388      0.2621
     19  O        -24.5580  -25.4150   13.2770 O.2   388  HIS388     -0.2715
     20  CB       -26.8770  -24.4170   12.1520 C.3   388  HIS388      0.0745
     21  CG       -27.9450  -23.8910   11.2230 C.2   388  HIS388      0.0653
     22  ND1      -27.8430  -23.9400    9.8520 N.2   388  HIS388     -0.2310
     23  CD2      -29.1300  -23.2860   11.4840 C.3   388  HIS388      0.1683
     24  CE1      -28.9300  -23.4210    9.3080 C.2   388  HIS388      0.1939
     25  NE2      -29.7260  -23.0090   10.2770 N.2   388  HIS388     -0.2440
     26  N        -25.3240  -27.5180   13.3760 N.am  389  GLY389     -0.1940
     27  CA       -24.2890  -27.9540   14.3130 C.3   389  GLY389      0.2014
     28  C        -24.7980  -28.0760   15.7330 C.2   389  GLY389      0.2639
     29  O        -26.0090  -28.2910   15.9820 O.2   389  GLY389     -0.2714
     30  N        -23.8830  -27.9740   16.6790 N.am  390  ALA390     -0.1963
     31  CA       -24.2170  -28.0040   18.1050 C.3   390  ALA390      0.1728
     32  C        -25.2160  -26.8800   18.4460 C.2   390  ALA390      0.2617
     33  O        -25.2370  -25.8040   17.8350 O.2   390  ALA390     -0.2715
     34  CB       -22.9550  -27.8290   18.9220 C.3   390  ALA390      0.0334
     35  N        -26.0880  -27.1760   19.3990 N.am  391  GLU391     -0.1941
     36  CA       -27.1260  -26.2700   19.8060 C.3   391  GLU391      0.1984
     37  C        -27.3350  -26.4620   21.3050 C.2   391  GLU391      0.3842
     38  O        -26.4360  -26.9310   22.0040 O.co2 391  GLU391     -0.2437
     39  CB       -28.4080  -26.5980   19.0330 C.3   391  GLU391      0.0451
     40  CG       -29.2550  -25.4140   18.6560 C.3   391  GLU391      0.1164
     41  CD       -30.3190  -25.8120   17.6350 C.2   391  GLU391      0.3649
     42  OE1      -30.9810  -26.8700   17.8580 O.co2 391  GLU391     -0.2457
     43  OE2      -30.4360  -25.0980   16.6010 O.co2 391  GLU391     -0.2457
     44  OXT      -28.3950  -26.1310   21.8180 O.co2 391  GLU391     -0.2437
@<TRIPOS>BOND
     1     1     2    1
     2     7     5    1
     3    24    22    1
     4    24    25    2
     5     5     2    1
     6     5     6    1
     7     2     3    1
     8    22    21    2
     9    11    10    2
    10    25    23    1
    11     8     3   am
    12     8     9    1
    13     3     4    2
    14    12     9    1
    15    12    13    1
    16    10     9    1
    17    10    16   am
    18    21    23    1
    19    21    20    1
    20    17    16    1
    21    17    20    1
    22    17    18    1
    23    13    15   ar
    24    13    14   ar
    25    18    19    2
    26    18    26   am
    27    26    27    1
    28    27    28    1
    29    28    29    2
    30    28    30   am
    31    43    41   ar
    32    30    31    1
    33    41    42   ar
    34    41    40    1
    35    33    32    2
    36    31    32    1
    37    31    34    1
    38    32    35   am
    39    40    39    1
    40    39    36    1
    41    35    36    1
    42    36    37    1
    43    37    44   ar
    44    37    38   ar
