@<TRIPOS>MOLECULE
2v18_COA_B_1.pdb
 48 50 0 0 0
SMALL
GASTEIGER

@<TRIPOS>ATOM
      1  N1A       32.4100    5.8820   72.2410 N.2   201  COA201      0.0021
      2  C2A       31.6430    4.7450   72.4720 C.3   201  COA201      0.5254
      3  N3A       30.5470    4.4480   71.6780 N.2   201  COA201     -0.0055
      4  C4A       30.2070    5.3030   70.6930 C.2   201  COA201      0.3518
      5  C5A       30.9710    6.4360   70.4380 C.2   201  COA201      0.2526
      6  C6A       32.0900    6.7310   71.2090 C.2   201  COA201      0.4393
      7  N6A       32.7860    7.8510   71.0030 N.pl3 201  COA201      0.2180
      8  N7A       30.4240    7.0740   69.3920 N.2   201  COA201     -0.2095
      9  C8A       29.3380    6.3950   68.9750 C.3   201  COA201      0.3377
     10  N9A       29.2050    5.2770   69.7630 N.pl3 201  COA201     -0.1439
     11  C1B       28.2320    4.1760   69.5670 C.3   201  COA201      0.3185
     12  C2B       26.8070    4.6750   69.3910 C.3   201  COA201      0.2543
     13  O2B       26.2280    5.0160   70.6380 O.3   201  COA201     -0.2131
     14  C3B       26.2010    3.4820   68.6910 C.3   201  COA201      0.1928
     15  O3B       25.9230    2.4770   69.6420 O.3   201  COA201     -0.2673
     16  P3B       24.4970    2.2380   70.3740 P.3   201  COA201      0.5327
     17  O7A       23.5790    1.5320   69.3840 O.2   201  COA201     -0.2224
     18  O8A       24.8460    1.3980   71.5830 O.3   201  COA201     -0.1145
     19  O9A       23.8250    3.5260   70.7980 O.3   201  COA201     -0.1145
     20  C4B       27.3120    2.9730   67.7890 C.3   201  COA201      0.1795
     21  O4B       28.4980    3.4310   68.3900 O.3   201  COA201     -0.3136
     22  C5B       27.3070    3.5280   66.3840 C.3   201  COA201      0.1812
     23  O5B       26.2190    3.0440   65.6260 O.3   201  COA201     -0.3112
     24  P1A       26.2280    1.5960   64.9100 P.3   201  COA201      0.2189
     25  O1A       27.6350    1.0120   64.8990 O.2   201  COA201     -0.5170
     26  O2A       25.2140    0.7350   65.6490 O.3   201  COA201     -0.4371
     27  O3A       25.6760    1.8090   63.4010 O.3   201  COA201     -0.2703
     28  P2A       26.5160    2.5680   62.2490 P.3   201  COA201      0.2188
     29  O4A       25.6090    3.4750   61.4700 O.2   201  COA201     -0.5170
     30  O5A       27.6230    3.3410   62.8960 O.3   201  COA201     -0.4371
     31  O6A       27.1730    1.4620   61.2670 O.3   201  COA201     -0.3138
     32  CBP       27.8690   -0.8280   60.8200 C.3   201  COA201      0.0645
     33  CCP       26.7110    0.1260   61.1210 C.3   201  COA201      0.1519
     34  CDP       27.3190   -2.2120   60.5080 C.3   201  COA201      0.0056
     35  CEP       28.5770   -0.3220   59.5700 C.3   201  COA201      0.0056
     36  CAP       28.8080   -0.8830   62.0290 C.3   201  COA201      0.2312
     37  OAP       28.1140   -1.1630   63.2240 O.3   201  COA201     -0.2131
     38  C9P       29.8780   -1.9130   61.8360 C.2   201  COA201      0.2719
     39  O9P       30.9110   -1.7250   60.9080 O.2   201  COA201     -0.2706
     40  N8P       29.8020   -3.0550   62.5060 N.am  201  COA201     -0.2028
     41  C7P       30.0630   -4.2670   61.7630 C.3   201  COA201      0.1248
     42  C6P       31.4780   -4.6940   62.0320 C.3   201  COA201      0.1102
     43  C5P       31.7210   -5.9540   61.2600 C.2   201  COA201      0.2432
     44  O5P       32.2650   -5.9090   60.1470 O.2   201  COA201     -0.2733
     45  N4P       31.2670   -7.0460   61.8590 N.am  201  COA201     -0.2044
     46  C3P       31.8680   -8.3420   61.6710 C.3   201  COA201      0.1276
     47  C2P       31.3190   -8.9330   60.3910 C.3   201  COA201      0.0920
     48  S1P       31.9560  -10.5900   60.1210 S.3   201  COA201     -0.0802
@<TRIPOS>BOND
     1    35    32    1
     2    48    47    1
     3    44    43    2
     4    47    46    1
     5    34    32    1
     6    32    33    1
     7    32    36    1
     8    39    38    2
     9    33    31    1
    10    43    45   am
    11    43    42    1
    12    31    28    1
    13    29    28    2
    14    46    45    1
    15    41    42    1
    16    41    40    1
    17    38    36    1
    18    38    40   am
    19    36    37    1
    20    28    30    1
    21    28    27    1
    22    27    24    1
    23    25    24    2
    24    24    23    1
    25    24    26    1
    26    23    22    1
    27    22    20    1
    28    20    21    1
    29    20    14    1
    30    21    11    1
    31    14    12    1
    32    14    15    1
    33     9     8    1
    34     9    10    1
    35    17    16    2
    36    12    11    1
    37    12    13    1
    38     8     5    2
    39    11    10    1
    40    15    16    1
    41    10     4    1
    42    16    19    1
    43    16    18    1
    44     5     4    1
    45     5     6    1
    46     4     3    2
    47     7     6    1
    48     6     1    2
    49     3     2    1
    50     1     2    1
