@<TRIPOS>MOLECULE
2v18_FMN_A_1.pdb
 31 33 0 0 0
SMALL
GASTEIGER

@<TRIPOS>ATOM
      1  N1        35.0240    0.2900   40.5490 N.2   101  FMN101     -0.2887
      2  C2        34.8810    1.4120   41.3290 C.1   101  FMN101      0.3669
      3  O2        33.8050    2.0110   41.3720 O.2   101  FMN101     -0.1744
      4  N3        35.9420    1.8670   42.0750 N.2   101  FMN101     -0.2300
      5  C4        37.1580    1.2350   42.0540 C.1   101  FMN101      0.2513
      6  O4        38.1510    1.9210   42.2970 O.2   101  FMN101     -0.2057
      7  C4A       37.2910    0.0760   41.2940 C.2   101  FMN101      0.2706
      8  N5        38.4770   -0.6260   41.2790 N.2   101  FMN101     -0.3841
      9  C5A       38.6250   -1.7730   40.5130 C.2   101  FMN101      0.1452
     10  C6        39.8480   -2.4580   40.5250 C.2   101  FMN101      0.0252
     11  C7        40.0180   -3.6070   39.7670 C.2   101  FMN101     -0.0375
     12  C7M       41.1970   -4.4850   40.0510 C.3   101  FMN101      0.0268
     13  C8        38.9550   -4.0690   38.9770 C.3   101  FMN101      0.0417
     14  C8M       39.1410   -5.1970   37.9970 C.3   101  FMN101      0.0091
     15  C9        37.7380   -3.3880   38.9770 C.2   101  FMN101     -0.0049
     16  C9A       37.5630   -2.2300   39.7380 C.2   101  FMN101      0.0795
     17  N10       36.3620   -1.5250   39.7680 N.pl3 101  FMN101     -0.2545
     18  C10       36.2240   -0.3790   40.5290 C.2   101  FMN101      0.2449
     19  C1'       35.1190   -2.0820   39.1560 C.3   101  FMN101      0.1336
     20  C2'       35.1400   -1.7810   37.6720 C.3   101  FMN101      0.2048
     21  O2'       34.6770   -0.4610   37.5060 O.3   101  FMN101     -0.2185
     22  C3'       34.2970   -2.8540   36.9770 C.3   101  FMN101      0.2165
     23  O3'       35.0900   -3.6710   36.1330 O.3   101  FMN101     -0.2175
     24  C4'       33.1730   -2.2460   36.1850 C.3   101  FMN101      0.2147
     25  O4'       32.3790   -1.5310   37.1060 O.3   101  FMN101     -0.2176
     26  C5'       32.4100   -3.3740   35.4840 C.3   101  FMN101      0.1892
     27  O5'       33.2810   -4.0710   34.6040 O.3   101  FMN101     -0.2674
     28  P         33.0170   -4.1810   33.0140 P.3   101  FMN101      0.5327
     29  O1P       33.2040   -5.6410   32.6490 O.3   101  FMN101     -0.1145
     30  O2P       31.5900   -3.7650   32.7360 O.3   101  FMN101     -0.1145
     31  O3P       33.9840   -3.3220   32.2070 O.2   101  FMN101     -0.2224
@<TRIPOS>BOND
     1    31    28    2
     2    29    28    1
     3    30    28    1
     4    28    27    1
     5    27    26    1
     6    26    24    1
     7    23    22    1
     8    24    22    1
     9    24    25    1
    10    22    20    1
    11    21    20    1
    12    20    19    1
    13    14    13    1
    14    13    15    1
    15    13    11    1
    16    15    16    2
    17    19    17    1
    18    16    17    1
    19    16     9    1
    20    11    12    1
    21    11    10    2
    22    17    18    1
    23     9    10    1
    24     9     8    2
    25    18     1    2
    26    18     7    1
    27     1     2    2
    28     8     7    2
    29     7     5    1
    30     2     3    2
    31     2     4    2
    32     5     4    2
    33     5     6    2
