@<TRIPOS>MOLECULE
2v19_COA_A_1.pdb
 48 50 0 0 0
SMALL
GASTEIGER

@<TRIPOS>ATOM
      1  N1A       37.5680   10.9440   -0.2040 N.2   201  COA201      0.0021
      2  C2A       38.8850   10.5430   -0.2040 C.3   201  COA201      0.5254
      3  N3A       39.2160    9.2590    0.1650 N.2   201  COA201     -0.0055
      4  C4A       38.2350    8.3950    0.5140 C.2   201  COA201      0.3518
      5  C5A       36.9050    8.7760    0.5080 C.2   201  COA201      0.2526
      6  C6A       36.5700   10.0660    0.1420 C.2   201  COA201      0.4393
      7  N6A       35.3030   10.3890   -0.0670 N.pl3 201  COA201      0.2180
      8  N7A       36.1680    7.7160    0.9030 N.2   201  COA201     -0.2095
      9  C8A       36.9900    6.6710    1.1490 C.3   201  COA201      0.3377
     10  N9A       38.2700    7.0870    0.9040 N.pl3 201  COA201     -0.1439
     11  C1B       39.4990    6.2960    0.9770 C.3   201  COA201      0.3185
     12  C2B       39.5150    5.3280    2.1510 C.3   201  COA201      0.2543
     13  O2B       39.9720    5.9350    3.3410 O.3   201  COA201     -0.2131
     14  C3B       40.4950    4.3070    1.6200 C.3   201  COA201      0.1928
     15  O3B       41.7910    4.8560    1.6970 O.3   201  COA201     -0.2673
     16  P3B       42.8140    4.5210    2.8770 P.3   201  COA201      0.5327
     17  O7A       43.0390    3.0300    2.8850 O.3   201  COA201     -0.1145
     18  O8A       44.0900    5.2640    2.5830 O.2   201  COA201     -0.2224
     19  O9A       42.2190    4.8950    4.2170 O.3   201  COA201     -0.1145
     20  C4B       40.1480    4.2280    0.1450 C.3   201  COA201      0.1795
     21  O4B       39.6540    5.5160   -0.1930 O.3   201  COA201     -0.3136
     22  C5B       39.1040    3.1580   -0.1470 C.3   201  COA201      0.1812
     23  O5B       39.6710    1.8730    0.0120 O.3   201  COA201     -0.3112
     24  P1A       40.3790    1.0620   -1.1990 P.3   201  COA201      0.2189
     25  O1A       40.2260    1.7420   -2.5420 O.2   201  COA201     -0.5170
     26  O2A       41.8310    0.8200   -0.8790 O.3   201  COA201     -0.4371
     27  O3A       39.6210   -0.3520   -1.1700 O.3   201  COA201     -0.2703
     28  P2A       38.1670   -0.5190   -1.8260 P.3   201  COA201      0.2188
     29  O4A       37.4880   -1.7470   -1.2730 O.3   201  COA201     -0.4371
     30  O5A       37.3340    0.7220   -1.6280 O.2   201  COA201     -0.5170
     31  O6A       38.5100   -0.7780   -3.3670 O.3   201  COA201     -0.3138
     32  CBP       39.7640   -1.6480   -5.1960 C.3   201  COA201      0.0645
     33  CCP       39.4710   -1.7490   -3.7070 C.3   201  COA201      0.1519
     34  CDP       41.0000   -2.4610   -5.5470 C.3   201  COA201      0.0056
     35  CEP       38.5800   -2.1950   -5.9820 C.3   201  COA201      0.0056
     36  CAP       39.9890   -0.1850   -5.5430 C.3   201  COA201      0.2312
     37  OAP       40.9850    0.3670   -4.7100 O.3   201  COA201     -0.2131
     38  C9P       40.4080   -0.0620   -6.9740 C.2   201  COA201      0.2719
     39  O9P       39.5090   -0.3960   -7.9960 O.2   201  COA201     -0.2706
     40  N8P       41.6390    0.3730   -7.2030 N.am  201  COA201     -0.2028
     41  C7P       42.0700    0.7670   -8.5260 C.3   201  COA201      0.1248
     42  C6P       42.4570   -0.4400   -9.3650 C.3   201  COA201      0.1102
     43  C5P       43.2320    0.0120  -10.5800 C.2   201  COA201      0.2432
     44  O5P       42.6670    0.6050  -11.5100 O.2   201  COA201     -0.2733
     45  N4P       44.5330   -0.2550  -10.5860 N.am  201  COA201     -0.2044
     46  C3P       45.3130   -0.1810  -11.8060 C.3   201  COA201      0.1276
     47  C2P       45.2080   -1.4720  -12.6080 C.3   201  COA201      0.0920
     48  S1P       46.2210   -1.4170  -14.0970 S.3   201  COA201     -0.0802
@<TRIPOS>BOND
     1    48    47    1
     2    47    46    1
     3    46    45    1
     4    44    43    2
     5    45    43   am
     6    43    42    1
     7    42    41    1
     8    41    40    1
     9    39    38    2
    10    40    38   am
    11    38    36    1
    12    35    32    1
    13    34    32    1
    14    36    32    1
    15    36    37    1
    16    32    33    1
    17    33    31    1
    18    31    28    1
    19    25    24    2
    20    28    30    2
    21    28    29    1
    22    28    27    1
    23    24    27    1
    24    24    26    1
    25    24    23    1
    26     2     1    1
    27     2     3    1
    28     1     6    2
    29    21    20    1
    30    21    11    1
    31    22    23    1
    32    22    20    1
    33     7     6    1
    34     6     5    1
    35    20    14    1
    36     3     4    2
    37     5     4    1
    38     5     8    2
    39     4    10    1
    40     8     9    1
    41    10    11    1
    42    10     9    1
    43    11    12    1
    44    14    15    1
    45    14    12    1
    46    15    16    1
    47    12    13    1
    48    18    16    2
    49    16    17    1
    50    16    19    1
