@<TRIPOS>MOLECULE
2v19_FMN_A_1.pdb
 31 33 0 0 0
SMALL
GASTEIGER

@<TRIPOS>ATOM
      1  N1        21.6760   14.9730   -7.9160 N.2   101  FMN101     -0.2887
      2  C2        20.5480   14.2250   -8.1800 C.1   101  FMN101      0.3669
      3  O2        19.5740   14.2940   -7.4320 O.2   101  FMN101     -0.1744
      4  N3        20.5070   13.3910   -9.2760 N.2   101  FMN101     -0.2300
      5  C4        21.5920   13.2840  -10.1150 C.1   101  FMN101      0.2513
      6  O4        21.7520   12.2030  -10.6790 O.2   101  FMN101     -0.2057
      7  C4A       22.7170   14.0590   -9.8600 C.2   101  FMN101      0.2703
      8  N5        23.8010   13.9750  -10.6990 N.2   101  FMN101     -0.3885
      9  C5A       24.9250   14.7280  -10.4470 C.2   101  FMN101      0.1233
     10  C6        26.0100   14.6200  -11.3020 C.3   101  FMN101      0.0606
     11  C7        27.1520   15.3730  -11.0840 C.3   101  FMN101      0.0111
     12  C7M       27.9660   15.7240  -12.2940 C.3   101  FMN101      0.0008
     13  C8        27.2070   16.2110   -9.9670 C.3   101  FMN101      0.0238
     14  C8M       28.4410   17.0160   -9.6980 C.3   101  FMN101      0.0047
     15  C9        26.1270   16.3160   -9.0960 C.2   101  FMN101     -0.0093
     16  C9A       24.9800   15.5700   -9.3410 C.2   101  FMN101      0.0750
     17  N10       23.8950   15.6500   -8.4880 N.pl3 101  FMN101     -0.2548
     18  C10       22.7660   14.8960   -8.7520 C.2   101  FMN101      0.2449
     19  C1'       23.9970   16.4260   -7.2040 C.3   101  FMN101      0.1336
     20  C2'       24.6280   15.5770   -6.1030 C.3   101  FMN101      0.2048
     21  O2'       23.8660   14.4090   -5.9030 O.3   101  FMN101     -0.2185
     22  C3'       24.7220   16.3450   -4.7860 C.3   101  FMN101      0.2165
     23  O3'       23.4620   16.8820   -4.4470 O.3   101  FMN101     -0.2175
     24  C4'       25.7490   17.4680   -4.8720 C.3   101  FMN101      0.2147
     25  O4'       26.8330   17.0410   -5.6680 O.3   101  FMN101     -0.2176
     26  C5'       26.2250   17.9090   -3.4840 C.3   101  FMN101      0.1892
     27  O5'       27.1720   17.0030   -2.9430 O.3   101  FMN101     -0.2674
     28  P         27.9880   17.3620   -1.5910 P.3   101  FMN101      0.5327
     29  O1P       28.6490   16.1190   -1.0230 O.3   101  FMN101     -0.1145
     30  O2P       29.0450   18.3900   -1.9090 O.2   101  FMN101     -0.2224
     31  O3P       27.0220   17.9350   -0.5790 O.3   101  FMN101     -0.1145
@<TRIPOS>BOND
     1    12    11    1
     2    10    11    1
     3    10     9    1
     4    11    13    1
     5     8     9    2
     6     8     7    2
     7     6     5    2
     8     9    16    1
     9     5     7    1
    10     5     4    2
    11    13    14    1
    12    13    15    1
    13     7    18    1
    14    16    15    2
    15    16    17    1
    16     4     2    2
    17    18    17    1
    18    18     1    2
    19    17    19    1
    20     2     1    2
    21     2     3    2
    22    19    20    1
    23    20    21    1
    24    20    22    1
    25    25    24    1
    26    24    22    1
    27    24    26    1
    28    22    23    1
    29    26    27    1
    30    27    28    1
    31    30    28    2
    32    28    29    1
    33    28    31    1
