@<TRIPOS>MOLECULE
2v1b_FMN_A_1.pdb
 31 33 0 0 0
SMALL
GASTEIGER

@<TRIPOS>ATOM
      1  N1        20.5350    0.4440    6.2930 N.2   1547  FMN1547    -0.2937
      2  C2        20.7710   -0.8320    5.8260 C.1   1547  FMN1547     0.3663
      3  O2        21.9180   -1.2090    5.7670 O.2   1547  FMN1547    -0.1745
      4  N3        19.7030   -1.6170    5.4850 N.2   1547  FMN1547    -0.2346
      5  C4        18.4040   -1.2330    5.5490 C.1   1547  FMN1547     0.2239
      6  O4        17.4520   -1.9780    5.2930 O.2   1547  FMN1547    -0.2109
      7  C4A       18.0610   -0.0710    6.5210 C.3   1547  FMN1547     0.2881
      8  N5        16.8940    0.5630    5.9740 N.2   1547  FMN1547    -0.2495
      9  C5A       16.5880    1.8610    6.4550 C.2   1547  FMN1547     0.0730
     10  C6        15.2740    2.3020    6.5190 C.3   1547  FMN1547     0.0684
     11  C7        14.9850    3.5970    6.9560 C.2   1547  FMN1547    -0.0418
     12  C7M       13.5700    4.0980    6.8800 C.3   1547  FMN1547     0.0264
     13  C8        16.0840    4.3580    7.3280 C.2   1547  FMN1547    -0.0281
     14  C8M       15.8270    5.8180    7.7560 C.3   1547  FMN1547     0.0304
     15  C9        17.3870    3.9120    7.2780 C.2   1547  FMN1547     0.0112
     16  C9A       17.6880    2.6100    6.8360 C.2   1547  FMN1547     0.0667
     17  N10       18.9820    2.1900    6.7620 N.pl3 1547  FMN1547    -0.2591
     18  C10       19.2610    0.8780    6.3590 C.2   1547  FMN1547     0.2191
     19  C1'       20.1480    3.0870    6.6800 C.3   1547  FMN1547     0.1333
     20  C2'       20.8020    3.3130    8.0280 C.3   1547  FMN1547     0.2048
     21  O2'       19.8530    3.3070    9.0690 O.3   1547  FMN1547    -0.2185
     22  C3'       21.6900    4.5970    8.0100 C.3   1547  FMN1547     0.2165
     23  O3'       20.8200    5.6320    7.6300 O.3   1547  FMN1547    -0.2175
     24  C4'       22.8990    4.4830    7.0710 C.3   1547  FMN1547     0.2147
     25  O4'       23.7700    3.4830    7.5670 O.3   1547  FMN1547    -0.2176
     26  C5'       23.6660    5.8250    6.9450 C.3   1547  FMN1547     0.1892
     27  O5'       23.7870    6.4420    8.2090 O.3   1547  FMN1547    -0.2674
     28  P         25.1020    6.2180    9.0610 P.3   1547  FMN1547     0.5327
     29  O1P       26.2640    6.7290    8.2240 O.2   1547  FMN1547    -0.2224
     30  O2P       25.0230    6.9890   10.3510 O.3   1547  FMN1547    -0.1145
     31  O3P       25.3550    4.7290    9.3330 O.3   1547  FMN1547    -0.1145
@<TRIPOS>BOND
     1     6     5    2
     2     4     5    2
     3     4     2    2
     4     5     7    1
     5     3     2    2
     6     2     1    2
     7     8     9    2
     8     8     7    1
     9     1    18    2
    10    18     7    1
    11    18    17    1
    12     9    10    1
    13     9    16    1
    14    10    11    1
    15    19    17    1
    16    19    20    1
    17    17    16    1
    18    16    15    2
    19    12    11    1
    20    26    24    1
    21    26    27    1
    22    11    13    2
    23    24    25    1
    24    24    22    1
    25    15    13    1
    26    13    14    1
    27    23    22    1
    28    22    20    1
    29    20    21    1
    30    27    28    1
    31    29    28    2
    32    28    31    1
    33    28    30    1
