@<TRIPOS>MOLECULE
2v1e_HEM_A_1.pdb
 43 50 0 0 0
SMALL
GASTEIGER

@<TRIPOS>ATOM
      1 FE         16.7850  -31.0340   -3.4570 Fe    1154  HEM1154     0.0000
      2  CHA       15.6350  -34.2500   -3.8650 C.2   1154  HEM1154     0.0000
      3  CHB       15.6090  -31.0710   -0.2330 C.2   1154  HEM1154     0.0000
      4  CHC       17.8880  -27.8260   -3.0010 C.2   1154  HEM1154     0.0000
      5  CHD       17.9270  -30.9740   -6.6660 C.2   1154  HEM1154     0.0000
      6  NA        15.8040  -32.3980   -2.2820 N.2   1154  HEM1154     0.0000
      7  C1A       15.4500  -33.6770   -2.6370 C.2   1154  HEM1154     0.0000
      8  C2A       14.8240  -34.3160   -1.4980 C.2   1154  HEM1154     0.0000
      9  C3A       14.8070  -33.4340   -0.4900 C.2   1154  HEM1154     0.0000
     10  C4A       15.4100  -32.2100   -0.9730 C.2   1154  HEM1154     0.0000
     11  CMA       14.2430  -33.6280    0.9330 C.3   1154  HEM1154     0.0000
     12  CAA       14.3100  -35.7700   -1.4880 C.3   1154  HEM1154     0.0000
     13  CBA       15.3110  -36.6460   -0.7090 C.3   1154  HEM1154     0.0000
     14  CGA       16.7300  -36.6310   -1.2520 C.2   1154  HEM1154     0.0000
     15  O1A       16.9370  -37.0360   -2.4310 O.co2 1154  HEM1154     0.0000
     16  O2A       17.6820  -36.2510   -0.5000 O.co2 1154  HEM1154     0.0000
     17  NB        16.7600  -29.7220   -1.9270 N.ar  1154  HEM1154     0.0000
     18  C1B       16.2330  -29.9300   -0.6670 C.ar  1154  HEM1154     0.0000
     19  C2B       16.4220  -28.7410    0.1290 C.ar  1154  HEM1154     0.0000
     20  C3B       17.0490  -27.8380   -0.6380 C.ar  1154  HEM1154     0.0000
     21  C4B       17.2780  -28.4420   -1.9330 C.ar  1154  HEM1154     0.0000
     22  CMB       15.9830  -28.6010    1.6040 C.3   1154  HEM1154     0.0000
     23  CAB       17.4730  -26.4170   -0.2390 C.2   1154  HEM1154     0.0000
     24  CBB       16.6510  -25.6320    0.4670 C.2   1154  HEM1154     0.0000
     25  NC        17.7700  -29.6620   -4.6130 N.2   1154  HEM1154     0.0000
     26  C1C       18.0640  -28.3600   -4.2580 C.2   1154  HEM1154     0.0000
     27  C2C       18.5510  -27.6620   -5.4310 C.2   1154  HEM1154     0.0000
     28  C3C       18.5450  -28.5430   -6.4520 C.2   1154  HEM1154     0.0000
     29  C4C       18.0640  -29.8120   -5.9470 C.2   1154  HEM1154     0.0000
     30  CMC       18.9790  -26.1810   -5.4320 C.3   1154  HEM1154     0.0000
     31  CAC       18.9540  -28.3470   -7.9280 C.2   1154  HEM1154     0.0000
     32  CBC       19.1650  -27.1580   -8.4850 C.2   1154  HEM1154     0.0000
     33  ND        16.8190  -32.3920   -4.9840 N.ar  1154  HEM1154     0.0000
     34  C1D       17.3080  -32.1240   -6.2580 C.ar  1154  HEM1154     0.0000
     35  C2D       17.0100  -33.2350   -7.1310 C.ar  1154  HEM1154     0.0000
     36  C3D       16.3050  -34.2550   -6.2590 C.ar  1154  HEM1154     0.0000
     37  C4D       16.2230  -33.6500   -4.9520 C.ar  1154  HEM1154     0.0000
     38  CMD       17.3550  -33.3970   -8.6250 C.3   1154  HEM1154     0.0000
     39  CAD       15.7300  -35.6030   -6.7220 C.3   1154  HEM1154     0.0000
     40  CBD       14.3560  -35.2330   -7.3040 C.3   1154  HEM1154     0.0000
     41  CGD       13.5890  -36.3970   -7.8690 C.2   1154  HEM1154     0.0000
     42  O1D       13.8520  -36.7760   -9.0340 O.co2 1154  HEM1154     0.0000
     43  O2D       12.6950  -36.9280   -7.1670 O.co2 1154  HEM1154     0.0000
@<TRIPOS>BOND
     1    42    41   ar
     2    38    35    1
     3    32    31    2
     4    31    28    1
     5    41    40    1
     6    41    43   ar
     7    40    39    1
     8    35    36   ar
     9    35    34   ar
    10    39    36    1
    11     5    34    2
    12     5    29    1
    13    28    29    1
    14    28    27    2
    15    36    37   ar
    16    34    33   ar
    17    29    25    2
    18    30    27    1
    19    27    26    1
    20    33    37   ar
    21    33     1    1
    22    37     2    2
    23    25    26    1
    24    25     1    1
    25    26     4    2
    26     2     7    1
    27     1     6    1
    28     1    17    1
    29     4    21    1
    30     7     6    2
    31     7     8    1
    32    15    14   ar
    33     6    10    1
    34    21    17   ar
    35    21    20   ar
    36    17    18   ar
    37     8    12    1
    38     8     9    2
    39    12    13    1
    40    14    13    1
    41    14    16   ar
    42    10     9    1
    43    10     3    2
    44    18     3    1
    45    18    19   ar
    46    20    23    1
    47    20    19   ar
    48     9    11    1
    49    23    24    2
    50    19    22    1
