@<TRIPOS>MOLECULE
2v1f_HEM_A_1.pdb
 43 50 0 0 0
SMALL
GASTEIGER

@<TRIPOS>ATOM
      1 FE         16.7630  -31.0330   -3.4710 Fe    1154  HEM1154     0.0000
      2  CHA       15.6150  -34.2620   -3.8730 C.2   1154  HEM1154     0.0000
      3  CHB       15.5610  -31.0590   -0.2460 C.2   1154  HEM1154     0.0000
      4  CHC       17.8250  -27.7900   -3.0050 C.2   1154  HEM1154     0.0000
      5  CHD       17.8270  -30.9410   -6.6670 C.2   1154  HEM1154     0.0000
      6  NA        15.7740  -32.3870   -2.3030 N.2   1154  HEM1154     0.0000
      7  C1A       15.4290  -33.6740   -2.6540 C.2   1154  HEM1154     0.0000
      8  C2A       14.8040  -34.3180   -1.5230 C.2   1154  HEM1154     0.0000
      9  C3A       14.7730  -33.4330   -0.5220 C.2   1154  HEM1154     0.0000
     10  C4A       15.3610  -32.1970   -0.9980 C.2   1154  HEM1154     0.0000
     11  CMA       14.1860  -33.6330    0.8860 C.3   1154  HEM1154     0.0000
     12  CAA       14.3540  -35.7920   -1.5130 C.3   1154  HEM1154     0.0000
     13  CBA       15.3290  -36.6450   -0.6890 C.3   1154  HEM1154     0.0000
     14  CGA       16.7420  -36.6330   -1.2300 C.2   1154  HEM1154     0.0000
     15  O1A       16.9520  -37.0550   -2.3940 O.co2 1154  HEM1154     0.0000
     16  O2A       17.6840  -36.2850   -0.4660 O.co2 1154  HEM1154     0.0000
     17  NB        16.7300  -29.6980   -1.9140 N.ar  1154  HEM1154     0.0000
     18  C1B       16.1880  -29.9070   -0.6560 C.ar  1154  HEM1154     0.0000
     19  C2B       16.3920  -28.7210    0.1410 C.ar  1154  HEM1154     0.0000
     20  C3B       17.0070  -27.8200   -0.6310 C.ar  1154  HEM1154     0.0000
     21  C4B       17.2200  -28.4070   -1.9340 C.ar  1154  HEM1154     0.0000
     22  CMB       15.9690  -28.5720    1.6160 C.3   1154  HEM1154     0.0000
     23  CAB       17.4200  -26.3910   -0.2580 C.2   1154  HEM1154     0.0000
     24  CBB       16.6080  -25.5980    0.4490 C.2   1154  HEM1154     0.0000
     25  NC        17.7030  -29.6290   -4.6040 N.2   1154  HEM1154     0.0000
     26  C1C       17.9910  -28.3290   -4.2630 C.2   1154  HEM1154     0.0000
     27  C2C       18.4780  -27.6450   -5.4410 C.2   1154  HEM1154     0.0000
     28  C3C       18.4440  -28.5210   -6.4570 C.2   1154  HEM1154     0.0000
     29  C4C       17.9870  -29.7910   -5.9380 C.2   1154  HEM1154     0.0000
     30  CMC       18.9160  -26.1680   -5.4660 C.3   1154  HEM1154     0.0000
     31  CAC       18.8150  -28.3180   -7.9420 C.2   1154  HEM1154     0.0000
     32  CBC       19.1020  -27.1220   -8.4570 C.2   1154  HEM1154     0.0000
     33  ND        16.7580  -32.3980   -4.9930 N.ar  1154  HEM1154     0.0000
     34  C1D       17.2650  -32.1210   -6.2560 C.ar  1154  HEM1154     0.0000
     35  C2D       17.0290  -33.2560   -7.1130 C.ar  1154  HEM1154     0.0000
     36  C3D       16.3380  -34.2910   -6.2470 C.ar  1154  HEM1154     0.0000
     37  C4D       16.2070  -33.6700   -4.9570 C.ar  1154  HEM1154     0.0000
     38  CMD       17.3870  -33.4020   -8.5990 C.3   1154  HEM1154     0.0000
     39  CAD       15.7900  -35.6580   -6.6850 C.3   1154  HEM1154     0.0000
     40  CBD       14.5380  -35.5300   -7.5510 C.3   1154  HEM1154     0.0000
     41  CGD       13.9170  -36.8830   -7.8230 C.2   1154  HEM1154     0.0000
     42  O1D       14.6440  -37.9050   -7.9350 O.co2 1154  HEM1154     0.0000
     43  O2D       12.6690  -36.9420   -7.9480 O.co2 1154  HEM1154     0.0000
@<TRIPOS>BOND
     1    38    35    1
     2    32    31    2
     3    43    41   ar
     4    31    28    1
     5    42    41   ar
     6    41    40    1
     7    40    39    1
     8    35    34   ar
     9    35    36   ar
    10    39    36    1
    11     5    34    2
    12     5    29    1
    13    28    29    1
    14    28    27    2
    15    34    33   ar
    16    36    37   ar
    17    29    25    2
    18    30    27    1
    19    27    26    1
    20    33    37   ar
    21    33     1    1
    22    37     2    2
    23    25    26    1
    24    25     1    1
    25    26     4    2
    26     2     7    1
    27     1     6    1
    28     1    17    1
    29     4    21    1
    30     7     6    2
    31     7     8    1
    32    15    14   ar
    33     6    10    1
    34    21    17   ar
    35    21    20   ar
    36    17    18   ar
    37     8    12    1
    38     8     9    2
    39    12    13    1
    40    14    13    1
    41    14    16   ar
    42    10     9    1
    43    10     3    2
    44    18     3    1
    45    18    19   ar
    46    20    23    1
    47    20    19   ar
    48     9    11    1
    49    23    24    2
    50    19    22    1
