@<TRIPOS>MOLECULE
2v1g_HEM_A_1.pdb
 43 50 0 0 0
SMALL
GASTEIGER

@<TRIPOS>ATOM
      1 FE         16.7230  -30.9650   -3.4740 Fe    1154  HEM1154     0.0000
      2  CHA       15.5840  -34.1910   -3.8730 C.2   1154  HEM1154     0.0000
      3  CHB       15.5070  -30.9700   -0.2590 C.2   1154  HEM1154     0.0000
      4  CHC       17.8470  -27.7440   -3.0030 C.2   1154  HEM1154     0.0000
      5  CHD       17.8670  -30.9010   -6.6630 C.2   1154  HEM1154     0.0000
      6  NA        15.7260  -32.2990   -2.3150 N.2   1154  HEM1154     0.0000
      7  C1A       15.3990  -33.5920   -2.6520 C.2   1154  HEM1154     0.0000
      8  C2A       14.7980  -34.2240   -1.5110 C.2   1154  HEM1154     0.0000
      9  C3A       14.7530  -33.3370   -0.5190 C.2   1154  HEM1154     0.0000
     10  C4A       15.3480  -32.1090   -0.9980 C.2   1154  HEM1154     0.0000
     11  CMA       14.2010  -33.5530    0.9000 C.3   1154  HEM1154     0.0000
     12  CAA       14.2980  -35.6750   -1.4770 C.3   1154  HEM1154     0.0000
     13  CBA       15.2890  -36.5250   -0.6690 C.3   1154  HEM1154     0.0000
     14  CGA       16.6930  -36.5120   -1.2320 C.2   1154  HEM1154     0.0000
     15  O1A       16.8760  -36.9240   -2.4090 O.co2 1154  HEM1154     0.0000
     16  O2A       17.6350  -36.1100   -0.4990 O.co2 1154  HEM1154     0.0000
     17  NB        16.6790  -29.6340   -1.9290 N.ar  1154  HEM1154     0.0000
     18  C1B       16.1450  -29.8320   -0.6700 C.ar  1154  HEM1154     0.0000
     19  C2B       16.3360  -28.6430    0.1200 C.ar  1154  HEM1154     0.0000
     20  C3B       16.9840  -27.7590   -0.6420 C.ar  1154  HEM1154     0.0000
     21  C4B       17.2140  -28.3550   -1.9420 C.ar  1154  HEM1154     0.0000
     22  CMB       15.8970  -28.4590    1.5860 C.3   1154  HEM1154     0.0000
     23  CAB       17.4160  -26.3440   -0.2410 C.2   1154  HEM1154     0.0000
     24  CBB       16.5590  -25.5510    0.4190 C.2   1154  HEM1154     0.0000
     25  NC        17.7160  -29.5970   -4.5910 N.2   1154  HEM1154     0.0000
     26  C1C       17.9990  -28.2910   -4.2550 C.2   1154  HEM1154     0.0000
     27  C2C       18.4790  -27.6080   -5.4320 C.2   1154  HEM1154     0.0000
     28  C3C       18.4800  -28.4920   -6.4460 C.2   1154  HEM1154     0.0000
     29  C4C       17.9920  -29.7500   -5.9290 C.2   1154  HEM1154     0.0000
     30  CMC       18.9120  -26.1330   -5.4460 C.3   1154  HEM1154     0.0000
     31  CAC       18.8690  -28.2940   -7.9260 C.2   1154  HEM1154     0.0000
     32  CBC       19.0640  -27.0850   -8.4460 C.2   1154  HEM1154     0.0000
     33  ND        16.7690  -32.3070   -4.9740 N.ar  1154  HEM1154     0.0000
     34  C1D       17.2480  -32.0490   -6.2510 C.ar  1154  HEM1154     0.0000
     35  C2D       16.9540  -33.1560   -7.1240 C.ar  1154  HEM1154     0.0000
     36  C3D       16.2410  -34.1670   -6.2600 C.ar  1154  HEM1154     0.0000
     37  C4D       16.1640  -33.5710   -4.9500 C.ar  1154  HEM1154     0.0000
     38  CMD       17.2770  -33.3150   -8.6160 C.3   1154  HEM1154     0.0000
     39  CAD       15.6720  -35.5150   -6.7300 C.3   1154  HEM1154     0.0000
     40  CBD       14.2740  -35.1420   -7.2480 C.3   1154  HEM1154     0.0000
     41  CGD       13.4940  -36.3120   -7.7790 C.2   1154  HEM1154     0.0000
     42  O1D       13.7330  -36.7020   -8.9470 O.co2 1154  HEM1154     0.0000
     43  O2D       12.6170  -36.8310   -7.0460 O.co2 1154  HEM1154     0.0000
@<TRIPOS>BOND
     1    42    41   ar
     2    38    35    1
     3    32    31    2
     4    31    28    1
     5    41    40    1
     6    41    43   ar
     7    40    39    1
     8    35    36   ar
     9    35    34   ar
    10    39    36    1
    11     5    34    2
    12     5    29    1
    13    28    29    1
    14    28    27    2
    15    36    37   ar
    16    34    33   ar
    17    29    25    2
    18    30    27    1
    19    27    26    1
    20    33    37   ar
    21    33     1    1
    22    37     2    2
    23    25    26    1
    24    25     1    1
    25    26     4    2
    26     2     7    1
    27     1     6    1
    28     1    17    1
    29     4    21    1
    30     7     6    2
    31     7     8    1
    32    15    14   ar
    33     6    10    1
    34    21    17   ar
    35    21    20   ar
    36    17    18   ar
    37     8    12    1
    38     8     9    2
    39    12    13    1
    40    14    13    1
    41    14    16   ar
    42    10     9    1
    43    10     3    2
    44    18     3    1
    45    18    19   ar
    46    20    23    1
    47    20    19   ar
    48     9    11    1
    49    23    24    2
    50    19    22    1
