@<TRIPOS>MOLECULE
2v1h_HEM_A_1.pdb
 43 50 0 0 0
SMALL
GASTEIGER

@<TRIPOS>ATOM
      1 FE         16.9040  -31.0000   -3.5020 Fe    1154  HEM1154     0.0000
      2  CHA       15.6960  -34.1860   -3.9370 C.2   1154  HEM1154     0.0000
      3  CHB       15.6550  -31.0090   -0.2840 C.2   1154  HEM1154     0.0000
      4  CHC       17.9660  -27.7680   -3.0390 C.2   1154  HEM1154     0.0000
      5  CHD       18.0040  -30.9080   -6.7110 C.2   1154  HEM1154     0.0000
      6  NA        15.8530  -32.3220   -2.3400 N.2   1154  HEM1154     0.0000
      7  C1A       15.5060  -33.6100   -2.7040 C.2   1154  HEM1154     0.0000
      8  C2A       14.8850  -34.2550   -1.5720 C.2   1154  HEM1154     0.0000
      9  C3A       14.8590  -33.3820   -0.5620 C.2   1154  HEM1154     0.0000
     10  C4A       15.4670  -32.1520   -1.0260 C.2   1154  HEM1154     0.0000
     11  CMA       14.2970  -33.5960    0.8550 C.3   1154  HEM1154     0.0000
     12  CAA       14.3830  -35.7070   -1.5740 C.3   1154  HEM1154     0.0000
     13  CBA       15.3500  -36.5660   -0.7430 C.3   1154  HEM1154     0.0000
     14  CGA       16.7710  -36.5960   -1.2620 C.2   1154  HEM1154     0.0000
     15  O1A       16.9770  -36.9990   -2.4350 O.co2 1154  HEM1154     0.0000
     16  O2A       17.7070  -36.2420   -0.4990 O.co2 1154  HEM1154     0.0000
     17  NB        16.8210  -29.6460   -1.9540 N.ar  1154  HEM1154     0.0000
     18  C1B       16.2720  -29.8560   -0.7040 C.ar  1154  HEM1154     0.0000
     19  C2B       16.4520  -28.6640    0.0910 C.ar  1154  HEM1154     0.0000
     20  C3B       17.0870  -27.7670   -0.6760 C.ar  1154  HEM1154     0.0000
     21  C4B       17.3260  -28.3650   -1.9740 C.ar  1154  HEM1154     0.0000
     22  CMB       15.9780  -28.5120    1.5530 C.3   1154  HEM1154     0.0000
     23  CAB       17.5050  -26.3370   -0.3010 C.2   1154  HEM1154     0.0000
     24  CBB       16.6950  -25.5630    0.4350 C.2   1154  HEM1154     0.0000
     25  NC        17.8480  -29.6080   -4.6400 N.2   1154  HEM1154     0.0000
     26  C1C       18.1390  -28.3050   -4.2980 C.2   1154  HEM1154     0.0000
     27  C2C       18.6260  -27.6080   -5.4710 C.2   1154  HEM1154     0.0000
     28  C3C       18.6210  -28.4880   -6.4800 C.2   1154  HEM1154     0.0000
     29  C4C       18.1310  -29.7550   -5.9770 C.2   1154  HEM1154     0.0000
     30  CMC       19.0650  -26.1320   -5.4880 C.3   1154  HEM1154     0.0000
     31  CAC       19.0280  -28.2930   -7.9530 C.2   1154  HEM1154     0.0000
     32  CBC       19.2490  -27.0940   -8.4800 C.2   1154  HEM1154     0.0000
     33  ND        16.8840  -32.3280   -5.0430 N.ar  1154  HEM1154     0.0000
     34  C1D       17.3800  -32.0610   -6.3160 C.ar  1154  HEM1154     0.0000
     35  C2D       17.0870  -33.1610   -7.1950 C.ar  1154  HEM1154     0.0000
     36  C3D       16.3670  -34.1710   -6.3330 C.ar  1154  HEM1154     0.0000
     37  C4D       16.2850  -33.5840   -5.0190 C.ar  1154  HEM1154     0.0000
     38  CMD       17.4240  -33.2970   -8.6880 C.3   1154  HEM1154     0.0000
     39  CAD       15.7910  -35.5200   -6.7820 C.3   1154  HEM1154     0.0000
     40  CBD       14.3870  -35.1410   -7.2800 C.3   1154  HEM1154     0.0000
     41  CGD       13.5660  -36.2960   -7.7900 C.2   1154  HEM1154     0.0000
     42  O1D       13.7270  -36.6760   -8.9720 O.co2 1154  HEM1154     0.0000
     43  O2D       12.7200  -36.8140   -7.0240 O.co2 1154  HEM1154     0.0000
@<TRIPOS>BOND
     1    42    41   ar
     2    38    35    1
     3    32    31    2
     4    31    28    1
     5    41    40    1
     6    41    43   ar
     7    40    39    1
     8    35    36   ar
     9    35    34   ar
    10    39    36    1
    11     5    34    2
    12     5    29    1
    13    28    29    1
    14    28    27    2
    15    36    37   ar
    16    34    33   ar
    17    29    25    2
    18    30    27    1
    19    27    26    1
    20    33    37   ar
    21    33     1    1
    22    37     2    2
    23    25    26    1
    24    25     1    1
    25    26     4    2
    26     2     7    1
    27     1     6    1
    28     1    17    1
    29     4    21    1
    30     7     6    2
    31     7     8    1
    32    15    14   ar
    33     6    10    1
    34    21    17   ar
    35    21    20   ar
    36    17    18   ar
    37    12     8    1
    38    12    13    1
    39     8     9    2
    40    14    13    1
    41    14    16   ar
    42    10     9    1
    43    10     3    2
    44    18     3    1
    45    18    19   ar
    46    20    23    1
    47    20    19   ar
    48     9    11    1
    49    23    24    2
    50    19    22    1
