@<TRIPOS>MOLECULE
2v1i_HEM_A_1.pdb
 43 50 0 0 0
SMALL
GASTEIGER

@<TRIPOS>ATOM
      1 FE         16.7770  -31.0910   -3.4480 Fe    1154  HEM1154     0.0000
      2  CHA       15.5980  -34.2950   -3.8780 C.2   1154  HEM1154     0.0000
      3  CHB       15.4970  -31.0810   -0.2650 C.2   1154  HEM1154     0.0000
      4  CHC       17.8430  -27.8510   -3.0120 C.2   1154  HEM1154     0.0000
      5  CHD       17.8900  -31.0110   -6.6740 C.2   1154  HEM1154     0.0000
      6  NA        15.7320  -32.4200   -2.3130 N.2   1154  HEM1154     0.0000
      7  C1A       15.3950  -33.7130   -2.6540 C.2   1154  HEM1154     0.0000
      8  C2A       14.7870  -34.3470   -1.5110 C.2   1154  HEM1154     0.0000
      9  C3A       14.7440  -33.4570   -0.5210 C.2   1154  HEM1154     0.0000
     10  C4A       15.3290  -32.2290   -1.0050 C.2   1154  HEM1154     0.0000
     11  CMA       14.1800  -33.6850    0.8900 C.3   1154  HEM1154     0.0000
     12  CAA       14.2920  -35.8060   -1.4770 C.3   1154  HEM1154     0.0000
     13  CBA       15.2860  -36.6490   -0.6630 C.3   1154  HEM1154     0.0000
     14  CGA       16.6980  -36.6740   -1.2090 C.2   1154  HEM1154     0.0000
     15  O1A       16.8950  -37.1080   -2.3760 O.co2 1154  HEM1154     0.0000
     16  O2A       17.6350  -36.2860   -0.4560 O.co2 1154  HEM1154     0.0000
     17  NB        16.6840  -29.7310   -1.9310 N.ar  1154  HEM1154     0.0000
     18  C1B       16.1330  -29.9280   -0.6800 C.ar  1154  HEM1154     0.0000
     19  C2B       16.3210  -28.7340    0.1100 C.ar  1154  HEM1154     0.0000
     20  C3B       16.9620  -27.8440   -0.6570 C.ar  1154  HEM1154     0.0000
     21  C4B       17.1960  -28.4490   -1.9520 C.ar  1154  HEM1154     0.0000
     22  CMB       15.8520  -28.5640    1.5740 C.3   1154  HEM1154     0.0000
     23  CAB       17.3920  -26.4150   -0.2830 C.2   1154  HEM1154     0.0000
     24  CBB       16.5870  -25.6190    0.4310 C.2   1154  HEM1154     0.0000
     25  NC        17.7300  -29.6970   -4.6060 N.2   1154  HEM1154     0.0000
     26  C1C       18.0160  -28.3970   -4.2630 C.2   1154  HEM1154     0.0000
     27  C2C       18.5080  -27.7110   -5.4400 C.2   1154  HEM1154     0.0000
     28  C3C       18.5060  -28.5960   -6.4480 C.2   1154  HEM1154     0.0000
     29  C4C       18.0270  -29.8560   -5.9410 C.2   1154  HEM1154     0.0000
     30  CMC       18.9370  -26.2310   -5.4620 C.3   1154  HEM1154     0.0000
     31  CAC       18.9100  -28.4140   -7.9250 C.2   1154  HEM1154     0.0000
     32  CBC       19.1420  -27.2240   -8.4760 C.2   1154  HEM1154     0.0000
     33  ND        16.7710  -32.4290   -4.9960 N.ar  1154  HEM1154     0.0000
     34  C1D       17.2730  -32.1640   -6.2650 C.ar  1154  HEM1154     0.0000
     35  C2D       17.0020  -33.2850   -7.1250 C.ar  1154  HEM1154     0.0000
     36  C3D       16.2920  -34.2940   -6.2580 C.ar  1154  HEM1154     0.0000
     37  C4D       16.1830  -33.6870   -4.9590 C.ar  1154  HEM1154     0.0000
     38  CMD       17.3470  -33.4560   -8.6140 C.3   1154  HEM1154     0.0000
     39  CAD       15.7430  -35.6490   -6.7130 C.3   1154  HEM1154     0.0000
     40  CBD       14.3180  -35.3060   -7.1710 C.3   1154  HEM1154     0.0000
     41  CGD       13.5180  -36.4770   -7.6690 C.2   1154  HEM1154     0.0000
     42  O1D       13.7180  -36.8780   -8.8410 O.co2 1154  HEM1154     0.0000
     43  O2D       12.6580  -36.9790   -6.9030 O.co2 1154  HEM1154     0.0000
@<TRIPOS>BOND
     1    42    41   ar
     2    38    35    1
     3    32    31    2
     4    31    28    1
     5    41    40    1
     6    41    43   ar
     7    40    39    1
     8    35    34   ar
     9    35    36   ar
    10    39    36    1
    11     5    34    2
    12     5    29    1
    13    28    29    1
    14    28    27    2
    15    34    33   ar
    16    36    37   ar
    17    29    25    2
    18    30    27    1
    19    27    26    1
    20    33    37   ar
    21    33     1    1
    22    37     2    2
    23    25    26    1
    24    25     1    1
    25    26     4    2
    26     2     7    1
    27     1     6    1
    28     1    17    1
    29     4    21    1
    30     7     6    2
    31     7     8    1
    32    15    14   ar
    33     6    10    1
    34    21    17   ar
    35    21    20   ar
    36    17    18   ar
    37     8    12    1
    38     8     9    2
    39    12    13    1
    40    14    13    1
    41    14    16   ar
    42    10     9    1
    43    10     3    2
    44    18     3    1
    45    18    19   ar
    46    20    23    1
    47    20    19   ar
    48     9    11    1
    49    23    24    2
    50    19    22    1
