@<TRIPOS>MOLECULE
2v1j_HEM_A_1.pdb
 43 50 0 0 0
SMALL
GASTEIGER

@<TRIPOS>ATOM
      1 FE         16.7670  -30.8030   -3.4450 Fe    1154  HEM1154     0.0000
      2  CHA       15.6120  -34.0030   -3.8700 C.2   1154  HEM1154     0.0000
      3  CHB       15.4800  -30.8170   -0.2430 C.2   1154  HEM1154     0.0000
      4  CHC       17.8360  -27.5690   -2.9740 C.2   1154  HEM1154     0.0000
      5  CHD       17.8950  -30.7120   -6.6220 C.2   1154  HEM1154     0.0000
      6  NA        15.7440  -32.1240   -2.3020 N.2   1154  HEM1154     0.0000
      7  C1A       15.3980  -33.4090   -2.6620 C.2   1154  HEM1154     0.0000
      8  C2A       14.7640  -34.0630   -1.5460 C.2   1154  HEM1154     0.0000
      9  C3A       14.7200  -33.1870   -0.5340 C.2   1154  HEM1154     0.0000
     10  C4A       15.3280  -31.9550   -0.9930 C.2   1154  HEM1154     0.0000
     11  CMA       14.1330  -33.4040    0.8790 C.3   1154  HEM1154     0.0000
     12  CAA       14.2730  -35.5220   -1.5730 C.3   1154  HEM1154     0.0000
     13  CBA       15.2260  -36.3660   -0.7170 C.3   1154  HEM1154     0.0000
     14  CGA       16.6380  -36.4010   -1.2600 C.2   1154  HEM1154     0.0000
     15  O1A       16.8450  -36.8180   -2.4360 O.co2 1154  HEM1154     0.0000
     16  O2A       17.5700  -36.0260   -0.4940 O.co2 1154  HEM1154     0.0000
     17  NB        16.6710  -29.4730   -1.9270 N.ar  1154  HEM1154     0.0000
     18  C1B       16.1130  -29.6730   -0.6730 C.ar  1154  HEM1154     0.0000
     19  C2B       16.2930  -28.4830    0.1200 C.ar  1154  HEM1154     0.0000
     20  C3B       16.9380  -27.5930   -0.6380 C.ar  1154  HEM1154     0.0000
     21  C4B       17.1880  -28.1890   -1.9310 C.ar  1154  HEM1154     0.0000
     22  CMB       15.8320  -28.3060    1.5830 C.3   1154  HEM1154     0.0000
     23  CAB       17.3600  -26.1740   -0.2420 C.2   1154  HEM1154     0.0000
     24  CBB       16.5020  -25.3830    0.4200 C.2   1154  HEM1154     0.0000
     25  NC        17.7230  -29.4170   -4.5600 N.2   1154  HEM1154     0.0000
     26  C1C       18.0080  -28.1130   -4.2230 C.2   1154  HEM1154     0.0000
     27  C2C       18.4770  -27.4140   -5.3950 C.2   1154  HEM1154     0.0000
     28  C3C       18.4920  -28.2940   -6.4090 C.2   1154  HEM1154     0.0000
     29  C4C       18.0190  -29.5620   -5.8950 C.2   1154  HEM1154     0.0000
     30  CMC       18.8970  -25.9290   -5.3970 C.3   1154  HEM1154     0.0000
     31  CAC       18.8810  -28.0800   -7.8890 C.2   1154  HEM1154     0.0000
     32  CBC       19.1250  -26.8780   -8.4000 C.2   1154  HEM1154     0.0000
     33  ND        16.7900  -32.1220   -4.9390 N.ar  1154  HEM1154     0.0000
     34  C1D       17.2790  -31.8550   -6.2120 C.ar  1154  HEM1154     0.0000
     35  C2D       17.0190  -32.9730   -7.0810 C.ar  1154  HEM1154     0.0000
     36  C3D       16.3060  -33.9940   -6.2310 C.ar  1154  HEM1154     0.0000
     37  C4D       16.2040  -33.3890   -4.9350 C.ar  1154  HEM1154     0.0000
     38  CMD       17.3690  -33.1460   -8.5670 C.3   1154  HEM1154     0.0000
     39  CAD       15.7640  -35.3550   -6.6790 C.3   1154  HEM1154     0.0000
     40  CBD       14.3810  -34.9760   -7.2150 C.3   1154  HEM1154     0.0000
     41  CGD       13.5930  -36.1410   -7.7490 C.2   1154  HEM1154     0.0000
     42  O1D       13.7260  -36.4600   -8.9570 O.co2 1154  HEM1154     0.0000
     43  O2D       12.8050  -36.7320   -6.9710 O.co2 1154  HEM1154     0.0000
@<TRIPOS>BOND
     1    42    41   ar
     2    38    35    1
     3    32    31    2
     4    31    28    1
     5    41    40    1
     6    41    43   ar
     7    40    39    1
     8    35    36   ar
     9    35    34   ar
    10    39    36    1
    11     5    34    2
    12     5    29    1
    13    28    29    1
    14    28    27    2
    15    36    37   ar
    16    34    33   ar
    17    29    25    2
    18    30    27    1
    19    27    26    1
    20    33    37   ar
    21    33     1    1
    22    37     2    2
    23    25    26    1
    24    25     1    1
    25    26     4    2
    26     2     7    1
    27     1     6    1
    28     1    17    1
    29     4    21    1
    30     7     6    2
    31     7     8    1
    32    15    14   ar
    33     6    10    1
    34    21    17   ar
    35    21    20   ar
    36    17    18   ar
    37    12     8    1
    38    12    13    1
    39     8     9    2
    40    14    13    1
    41    14    16   ar
    42    10     9    1
    43    10     3    2
    44    18     3    1
    45    18    19   ar
    46    20    23    1
    47    20    19   ar
    48     9    11    1
    49    23    24    2
    50    19    22    1
