@<TRIPOS>MOLECULE
2v1k_HEM_A_1.pdb
 43 50 0 0 0
SMALL
GASTEIGER

@<TRIPOS>ATOM
      1 FE         16.8050  -31.0930   -3.2990 Fe    1154  HEM1154     0.0000
      2  CHA       15.4150  -34.2290   -3.7710 C.2   1154  HEM1154     0.0000
      3  CHB       15.5140  -31.0560   -0.1060 C.2   1154  HEM1154     0.0000
      4  CHC       17.6740  -27.7680   -2.9530 C.2   1154  HEM1154     0.0000
      5  CHD       17.6050  -30.9250   -6.6410 C.2   1154  HEM1154     0.0000
      6  NA        15.6410  -32.3860   -2.1780 N.2   1154  HEM1154     0.0000
      7  C1A       15.2830  -33.6700   -2.5220 C.2   1154  HEM1154     0.0000
      8  C2A       14.7150  -34.3220   -1.3630 C.2   1154  HEM1154     0.0000
      9  C3A       14.7370  -33.4480   -0.3540 C.2   1154  HEM1154     0.0000
     10  C4A       15.3020  -32.2070   -0.8460 C.2   1154  HEM1154     0.0000
     11  CMA       14.2340  -33.6820    1.0790 C.3   1154  HEM1154     0.0000
     12  CAA       14.2310  -35.7840   -1.3330 C.3   1154  HEM1154     0.0000
     13  CBA       15.2570  -36.6400   -0.5640 C.3   1154  HEM1154     0.0000
     14  CGA       16.6600  -36.6430   -1.1410 C.2   1154  HEM1154     0.0000
     15  O1A       16.8330  -37.0240   -2.3280 O.co2 1154  HEM1154     0.0000
     16  O2A       17.6300  -36.3010   -0.4000 O.co2 1154  HEM1154     0.0000
     17  NB        16.5880  -29.6490   -1.8090 N.ar  1154  HEM1154     0.0000
     18  C1B       16.1120  -29.8840   -0.5310 C.ar  1154  HEM1154     0.0000
     19  C2B       16.3310  -28.6930    0.2600 C.ar  1154  HEM1154     0.0000
     20  C3B       16.9180  -27.7870   -0.5370 C.ar  1154  HEM1154     0.0000
     21  C4B       17.0870  -28.3710   -1.8530 C.ar  1154  HEM1154     0.0000
     22  CMB       15.9370  -28.5580    1.7480 C.3   1154  HEM1154     0.0000
     23  CAB       17.3450  -26.3580   -0.1770 C.2   1154  HEM1154     0.0000
     24  CBB       16.5410  -25.5660    0.5440 C.2   1154  HEM1154     0.0000
     25  NC        17.5170  -29.5990   -4.5780 N.2   1154  HEM1154     0.0000
     26  C1C       17.8190  -28.3050   -4.2220 C.2   1154  HEM1154     0.0000
     27  C2C       18.2920  -27.6240   -5.4120 C.2   1154  HEM1154     0.0000
     28  C3C       18.2530  -28.5070   -6.4310 C.2   1154  HEM1154     0.0000
     29  C4C       17.7720  -29.7670   -5.9180 C.2   1154  HEM1154     0.0000
     30  CMC       18.7360  -26.1500   -5.4330 C.3   1154  HEM1154     0.0000
     31  CAC       18.6330  -28.3270   -7.9160 C.2   1154  HEM1154     0.0000
     32  CBC       18.9680  -27.1450   -8.4300 C.2   1154  HEM1154     0.0000
     33  ND        16.5280  -32.3600   -4.9350 N.ar  1154  HEM1154     0.0000
     34  C1D       16.9990  -32.0810   -6.2170 C.ar  1154  HEM1154     0.0000
     35  C2D       16.7240  -33.2090   -7.0680 C.ar  1154  HEM1154     0.0000
     36  C3D       16.0430  -34.2340   -6.1870 C.ar  1154  HEM1154     0.0000
     37  C4D       15.9610  -33.6270   -4.8810 C.ar  1154  HEM1154     0.0000
     38  CMD       17.0540  -33.3650   -8.5610 C.3   1154  HEM1154     0.0000
     39  CAD       15.5100  -35.6010   -6.6380 C.3   1154  HEM1154     0.0000
     40  CBD       14.1360  -35.2790   -7.2440 C.3   1154  HEM1154     0.0000
     41  CGD       13.4420  -36.4600   -7.8660 C.2   1154  HEM1154     0.0000
     42  O1D       13.7280  -36.7900   -9.0470 O.co2 1154  HEM1154     0.0000
     43  O2D       12.5800  -37.0580   -7.1810 O.co2 1154  HEM1154     0.0000
@<TRIPOS>BOND
     1    42    41   ar
     2    38    35    1
     3    32    31    2
     4    31    28    1
     5    41    40    1
     6    41    43   ar
     7    40    39    1
     8    35    34   ar
     9    35    36   ar
    10     5    34    2
    11     5    29    1
    12    39    36    1
    13    28    29    1
    14    28    27    2
    15    34    33   ar
    16    36    37   ar
    17    29    25    2
    18    30    27    1
    19    27    26    1
    20    33    37   ar
    21    33     1    1
    22    37     2    2
    23    25    26    1
    24    25     1    1
    25    26     4    2
    26     2     7    1
    27     1     6    1
    28     1    17    1
    29     4    21    1
    30     7     6    2
    31     7     8    1
    32    15    14   ar
    33     6    10    1
    34    21    17   ar
    35    21    20   ar
    36    17    18   ar
    37     8    12    1
    38     8     9    2
    39    12    13    1
    40    14    13    1
    41    14    16   ar
    42    10     9    1
    43    10     3    2
    44    20    23    1
    45    20    19   ar
    46    18     3    1
    47    18    19   ar
    48     9    11    1
    49    23    24    2
    50    19    22    1
