@<TRIPOS>MOLECULE
2v1o_COA_A_1.pdb
 48 50 0 0 0
SMALL
GASTEIGER

@<TRIPOS>ATOM
      1  N1A      -19.3900   19.1110  -30.8050 N.2   1162  COA1162     0.0021
      2  C2A      -19.9380   17.8620  -30.6260 C.3   1162  COA1162     0.5254
      3  N3A      -21.3060   17.7150  -30.6310 N.2   1162  COA1162    -0.0055
      4  C4A      -22.0970   18.8040  -30.8170 C.2   1162  COA1162     0.3518
      5  C5A      -21.5670   20.0730  -31.0080 C.2   1162  COA1162     0.2526
      6  C6A      -20.1910   20.2230  -31.0030 C.2   1162  COA1162     0.4393
      7  N6A      -19.6340   21.4220  -31.1600 N.pl3 1162  COA1162     0.2180
      8  N7A      -22.5970   20.9440  -31.1650 N.2   1162  COA1162    -0.2095
      9  C8A      -23.7530   20.2520  -31.0760 C.3   1162  COA1162     0.3377
     10  N9A      -23.4530   18.9340  -30.8620 N.pl3 1162  COA1162    -0.1439
     11  C1B      -24.3660   17.7910  -30.8530 C.3   1162  COA1162     0.3185
     12  C2B      -25.1610   17.7110  -29.5580 C.3   1162  COA1162     0.2543
     13  O2B      -24.3900   17.1420  -28.5240 O.3   1162  COA1162    -0.2131
     14  C3B      -26.3550   16.8830  -30.0060 C.3   1162  COA1162     0.1928
     15  O3B      -26.0920   15.4930  -29.9550 O.3   1162  COA1162    -0.2673
     16  P3B      -26.6910   14.5590  -28.7830 P.3   1162  COA1162     0.5327
     17  O7A      -26.0130   14.9540  -27.5120 O.3   1162  COA1162    -0.1145
     18  O8A      -28.1760   14.8140  -28.6830 O.3   1162  COA1162    -0.1145
     19  O9A      -26.3970   13.1190  -29.1200 O.2   1162  COA1162    -0.2224
     20  C4B      -26.5220   17.2710  -31.4750 C.3   1162  COA1162     0.1795
     21  O4B      -25.3280   17.9200  -31.8710 O.3   1162  COA1162    -0.3136
     22  C5B      -27.7200   18.1820  -31.7200 C.3   1162  COA1162     0.1812
     23  O5B      -27.7360   19.2510  -30.8000 O.3   1162  COA1162    -0.3112
     24  P1A      -28.8020   20.4300  -31.0100 P.3   1162  COA1162     0.2189
     25  O1A      -30.1160   19.8390  -31.4400 O.2   1162  COA1162    -0.5170
     26  O2A      -28.8790   21.2290  -29.7280 O.3   1162  COA1162    -0.4371
     27  O3A      -28.2340   21.3420  -32.2090 O.3   1162  COA1162    -0.2703
     28  P2A      -27.2540   22.6000  -32.0270 P.3   1162  COA1162     0.2188
     29  O4A      -26.2650   22.3990  -30.9050 O.3   1162  COA1162    -0.4371
     30  O5A      -28.0280   23.8920  -31.8980 O.2   1162  COA1162    -0.5170
     31  O6A      -26.5100   22.6130  -33.4480 O.3   1162  COA1162    -0.3138
     32  CBP      -24.9570   21.8890  -35.1300 C.3   1162  COA1162     0.0645
     33  CCP      -25.5510   21.6120  -33.7490 C.3   1162  COA1162     0.1519
     34  CDP      -23.7240   20.9980  -35.3210 C.3   1162  COA1162     0.0056
     35  CEP      -26.0190   21.4930  -36.1560 C.3   1162  COA1162     0.0056
     36  CAP      -24.5960   23.3780  -35.2240 C.3   1162  COA1162     0.2312
     37  OAP      -23.6710   23.7470  -34.2200 O.3   1162  COA1162    -0.2131
     38  C9P      -24.0530   23.7670  -36.5780 C.2   1162  COA1162     0.2719
     39  O9P      -24.9270   23.8980  -37.6590 O.2   1162  COA1162    -0.2706
     40  N8P      -22.7460   23.9730  -36.6690 N.am  1162  COA1162    -0.2028
     41  C7P      -22.0770   24.1630  -37.9440 C.3   1162  COA1162     0.1248
     42  C6P      -21.8430   22.8360  -38.6660 C.3   1162  COA1162     0.1102
     43  C5P      -21.1130   23.1000  -39.9640 C.2   1162  COA1162     0.2432
     44  O5P      -21.7180   23.6470  -40.9030 O.2   1162  COA1162    -0.2733
     45  N4P      -19.8340   22.7200  -40.0150 N.am  1162  COA1162    -0.2044
     46  C3P      -18.8630   23.2790  -40.9530 C.3   1162  COA1162     0.1276
     47  C2P      -18.6060   24.7900  -40.7590 C.3   1162  COA1162     0.0920
     48  S1P      -17.4760   25.3010  -42.0720 S.3   1162  COA1162    -0.0802
@<TRIPOS>BOND
     1    48    47    1
     2    46    47    1
     3    46    45    1
     4    44    43    2
     5    45    43   am
     6    43    42    1
     7    42    41    1
     8    41    40    1
     9    39    38    2
    10    40    38   am
    11    38    36    1
    12    35    32    1
    13    34    32    1
    14    36    32    1
    15    36    37    1
    16    32    33    1
    17    33    31    1
    18    31    28    1
    19    27    28    1
    20    27    24    1
    21    28    30    2
    22    28    29    1
    23    21    20    1
    24    21    11    1
    25    22    20    1
    26    22    23    1
    27    20    14    1
    28    25    24    2
    29     8     9    1
    30     8     5    2
    31     7     6    1
    32     9    10    1
    33    24    23    1
    34    24    26    1
    35     5     6    1
    36     5     4    1
    37     6     1    2
    38    10    11    1
    39    10     4    1
    40    11    12    1
    41     4     3    2
    42     1     2    1
    43     3     2    1
    44    14    15    1
    45    14    12    1
    46    15    16    1
    47    12    13    1
    48    19    16    2
    49    16    18    1
    50    16    17    1
