@<TRIPOS>MOLECULE
2v1r_III_R_1.pdb
 37 38 0 0 0
SMALL
GASTEIGER

@<TRIPOS>ATOM
      1  N          5.0300    3.3550  -17.2360 N.3     3  MET3       -0.1231
      2  CA         3.5930    3.5950  -17.3400 C.3     3  MET3        0.1687
      3  C          2.7600    2.3490  -17.0460 C.2     3  MET3        0.2434
      4  O          2.2340    1.7270  -17.9720 O.2     3  MET3       -0.2733
      5  CB         3.2280    4.1080  -18.7380 C.3     3  MET3        0.0400
      6  CG         3.3870    5.5990  -18.9410 C.3     3  MET3        0.0596
      7  SD         1.9800    6.2470  -19.8620 S.3     3  MET3       -0.1393
      8  CE         1.8000    4.9970  -21.1330 C.3     3  MET3        0.0692
      9  N          2.6270    1.9790  -15.7600 N.am    4  PRO4       -0.2718
     10  CA         3.2520    2.5790  -14.5780 C.3     4  PRO4        0.1520
     11  C          4.6230    1.9470  -14.3410 C.2     4  PRO4        0.2440
     12  O          5.1350    1.2770  -15.2400 O.2     4  PRO4       -0.2731
     13  CB         2.2890    2.1940  -13.4380 C.3     4  PRO4        0.0310
     14  CG         1.1390    1.4550  -14.0780 C.3     4  PRO4        0.0237
     15  CD         1.6670    0.9340  -15.3750 C.3     4  PRO4        0.0939
     16  N          5.2150    2.1590  -13.1520 N.am    5  PRO5       -0.2716
     17  CA         6.5180    1.5560  -12.8400 C.3     5  PRO5        0.1536
     18  C          6.5070    0.0250  -12.8630 C.2     5  PRO5        0.2599
     19  O          5.4420   -0.5930  -12.9410 O.2     5  PRO5       -0.2715
     20  CB         6.7980    2.0480  -11.4150 C.3     5  PRO5        0.0310
     21  CG         6.0310    3.3100  -11.2870 C.3     5  PRO5        0.0237
     22  CD         4.7900    3.1180  -12.1160 C.3     5  PRO5        0.0939
     23  N          7.6940   -0.5710  -12.7880 N.am    6  THR6       -0.1937
     24  CA         7.8330   -2.0210  -12.7110 C.3     6  THR6        0.2028
     25  C          7.4720   -2.4980  -11.3120 C.2     6  THR6        0.2642
     26  O          7.7840   -1.8320  -10.3220 O.2     6  THR6       -0.2714
     27  CB         9.2710   -2.4740  -13.0490 C.3     6  THR6        0.1808
     28  OG1        9.6120   -2.0460  -14.3740 O.3     6  THR6       -0.2208
     29  CG2        9.3950   -3.9880  -12.9700 C.3     6  THR6        0.0379
     30  N          6.8100   -3.6500  -11.2360 N.am    7  LEU7       -0.1977
     31  CA         6.3840   -4.2030   -9.9570 C.3     7  LEU7        0.1596
     32  C          7.5640   -4.7730   -9.1730 C.2     7  LEU7        0.2287
     33  O          8.6320   -5.0210   -9.7350 O.2     7  LEU7       -0.2864
     34  CB         5.3120   -5.2740  -10.1700 C.3     7  LEU7        0.0297
     35  CG         4.0100   -4.7710  -10.8010 C.3     7  LEU7        0.0022
     36  CD1        3.0750   -5.9240  -11.1440 C.3     7  LEU7        0.0001
     37  CD2        3.3150   -3.7700   -9.8860 C.3     7  LEU7        0.0001
@<TRIPOS>BOND
     1     8     7    1
     2     7     6    1
     3     6     5    1
     4     5     2    1
     5     4     3    2
     6     2     1    1
     7     2     3    1
     8     3     9   am
     9     9    15    1
    10     9    10    1
    11    15    14    1
    12    12    11    2
    13    10    11    1
    14    10    13    1
    15    28    27    1
    16    11    16   am
    17    14    13    1
    18    16    17    1
    19    16    22    1
    20    27    29    1
    21    27    24    1
    22    19    18    2
    23    18    17    1
    24    18    23   am
    25    17    20    1
    26    23    24    1
    27    24    25    1
    28    22    21    1
    29    20    21    1
    30    25    30   am
    31    25    26    2
    32    30    31    1
    33    36    35    1
    34    35    34    1
    35    35    37    1
    36    34    31    1
    37    31    32    1
    38    33    32    2
