@<TRIPOS>MOLECULE
2v1s_III_M_1.pdb
 50 50 0 0 0
SMALL
GASTEIGER

@<TRIPOS>ATOM
      1  N         97.5680  -26.2540    0.9320 N.3    18  LEU18      -0.1231
      2  CA        98.8310  -25.4890    0.7490 C.3    18  LEU18       0.1693
      3  C         98.5740  -23.9870    0.7180 C.2    18  LEU18       0.2592
      4  O         99.1860  -23.2440    1.4820 O.2    18  LEU18      -0.2718
      5  CB        99.5260  -25.9250   -0.5550 C.3    18  LEU18       0.0284
      6  CG       100.7340  -25.1560   -1.1200 C.3    18  LEU18       0.0019
      7  CD1      100.3160  -23.8680   -1.8400 C.3    18  LEU18       0.0001
      8  CD2      101.7710  -24.8680   -0.0380 C.3    18  LEU18       0.0001
      9  N         97.6290  -23.5710   -0.1320 N.am   19  LEU19      -0.1966
     10  CA        97.5930  -22.2140   -0.7510 C.3    19  LEU19       0.1728
     11  C         97.8220  -20.9780    0.1390 C.2    19  LEU19       0.2617
     12  O         97.0380  -20.0220    0.1470 O.2    19  LEU19      -0.2715
     13  CB        96.3240  -22.0590   -1.6160 C.3    19  LEU19       0.0311
     14  CG        96.5290  -22.3390   -3.1140 C.3    19  LEU19       0.0022
     15  CD1       97.4490  -23.5420   -3.3820 C.3    19  LEU19       0.0001
     16  CD2       95.1840  -22.5190   -3.8220 C.3    19  LEU19       0.0001
     17  N         98.9540  -20.9950    0.8330 N.am   20  SER20      -0.1936
     18  CA        99.4800  -19.8300    1.5260 C.3    20  SER20       0.2055
     19  C        100.1100  -18.8650    0.5210 C.2    20  SER20       0.2643
     20  O        100.1810  -17.6610    0.7640 O.2    20  SER20      -0.2714
     21  CB       100.5010  -20.2780    2.5770 C.3    20  SER20       0.2130
     22  OG        99.8430  -20.9990    3.6180 O.3    20  SER20      -0.2179
     23  N        100.5430  -19.4060   -0.6170 N.am   21  TYR21      -0.1959
     24  CA       101.2180  -18.6190   -1.6610 C.3    21  TYR21       0.1771
     25  C        100.2300  -17.6630   -2.3310 C.2    21  TYR21       0.2619
     26  O        100.5620  -16.5050   -2.5960 O.2    21  TYR21      -0.2715
     27  CB       101.8650  -19.5420   -2.7040 C.3    21  TYR21       0.0574
     28  CG       102.6430  -18.7980   -3.7830 C.ar   21  TYR21      -0.0198
     29  CD1      103.7390  -18.0100   -3.4550 C.ar   21  TYR21      -0.0009
     30  CD2      102.2790  -18.8830   -5.1260 C.ar   21  TYR21      -0.0009
     31  CE1      104.4550  -17.3120   -4.4390 C.ar   21  TYR21       0.0417
     32  CE2      103.0000  -18.1910   -6.1290 C.ar   21  TYR21       0.0417
     33  CZ       104.0810  -17.4050   -5.7740 C.ar   21  TYR21       0.1957
     34  OH       104.7950  -16.7270   -6.7420 O.3    21  TYR21      -0.2866
     35  N         99.0170  -18.1620   -2.5820 N.am   22  ALA22      -0.1963
     36  CA        97.9130  -17.3740   -3.1470 C.3    22  ALA22       0.1728
     37  C         97.5100  -16.1840   -2.2780 C.2    22  ALA22       0.2617
     38  O         97.0180  -15.1790   -2.7930 O.2    22  ALA22      -0.2715
     39  CB        96.6980  -18.2660   -3.3700 C.3    22  ALA22       0.0334
     40  N         97.6930  -16.3170   -0.9650 N.am   23  GLY23      -0.1940
     41  CA        97.3260  -15.2700   -0.0110 C.3    23  GLY23       0.2014
     42  C         98.5130  -14.4090    0.3950 C.2    23  GLY23       0.2639
     43  O         98.3640  -13.5010    1.2180 O.2    23  GLY23      -0.2714
     44  N         99.8290  -14.3930    0.1100 N.am   24  CYS24      -0.1953
     45  CA       100.9420  -13.5810    0.6010 C.3    24  CYS24       0.1860
     46  C        100.7480  -12.1230    0.2850 C.2    24  CYS24       0.2815
     47  O        101.1560  -11.2680    1.0520 O.2    24  CYS24      -0.2698
     48  CB       102.2590  -14.0780    0.0130 C.3    24  CYS24       0.0997
     49  SG       102.1910  -14.3460   -1.7770 S.3    24  CYS24      -0.0797
     50  N1       100.1050  -11.8290   -0.8410 N.am   24  CYS24      -0.0863
@<TRIPOS>BOND
     1    34    33    1
     2    32    33   ar
     3    32    30   ar
     4    33    31   ar
     5    30    28   ar
     6    31    29   ar
     7    16    14    1
     8    28    29   ar
     9    28    27    1
    10    15    14    1
    11    39    36    1
    12    36    35    1
    13    36    37    1
    14    14    13    1
    15    38    37    2
    16    27    24    1
    17    26    25    2
    18    35    25   am
    19    25    24    1
    20    37    40   am
    21     7     6    1
    22    49    48    1
    23    24    23    1
    24    13    10    1
    25     6     5    1
    26     6     8    1
    27    40    41    1
    28    50    46   am
    29    10     9    1
    30    10    11    1
    31    23    19   am
    32     5     2    1
    33     9     3   am
    34    41    42    1
    35    48    45    1
    36    44    42   am
    37    44    45    1
    38    11    12    2
    39    11    17   am
    40    46    45    1
    41    46    47    2
    42    42    43    2
    43    19    20    2
    44    19    18    1
    45     3     2    1
    46     3     4    2
    47     2     1    1
    48    17    18    1
    49    18    21    1
    50    21    22    1
