@<TRIPOS>MOLECULE
2v1u_ADP_A_1.pdb
 27 29 0 0 0
SMALL
GASTEIGER

@<TRIPOS>ATOM
      1  PB       -11.6440  -19.1670  -18.5170 P.3   1400  ADP1400     0.5373
      2  O1B      -12.8300  -19.3380  -17.5960 O.3   1400  ADP1400    -0.1143
      3  O2B      -10.3190  -19.6690  -17.9920 O.3   1400  ADP1400    -0.1143
      4  O3B      -11.9520  -19.5620  -19.9420 O.2   1400  ADP1400    -0.2221
      5  PA       -10.9600  -16.8180  -19.9140 P.3   1400  ADP1400     0.2231
      6  O1A      -12.2800  -16.5700  -20.6040 O.3   1400  ADP1400    -0.4370
      7  O2A       -9.8280  -17.5170  -20.6250 O.2   1400  ADP1400    -0.5169
      8  O3A      -11.3350  -17.5850  -18.5490 O.3   1400  ADP1400    -0.2261
      9  O5'      -10.3280  -15.4340  -19.3970 O.3   1400  ADP1400    -0.3111
     10  C5'      -11.1860  -14.5030  -18.7440 C.3   1400  ADP1400     0.1813
     11  C4'      -11.0040  -13.1370  -19.3900 C.3   1400  ADP1400     0.1821
     12  O4'       -9.6390  -12.7610  -19.2290 O.3   1400  ADP1400    -0.3135
     13  C3'      -11.2960  -13.2020  -20.8820 C.3   1400  ADP1400     0.2184
     14  O3'      -12.2120  -12.1560  -21.2200 O.3   1400  ADP1400    -0.2174
     15  C2'       -9.9640  -12.9740  -21.5770 C.3   1400  ADP1400     0.2570
     16  O2'      -10.0670  -11.9000  -22.5130 O.3   1400  ADP1400    -0.2130
     17  C1'       -9.0030  -12.5430  -20.4840 C.3   1400  ADP1400     0.3186
     18  N9        -7.7490  -13.3310  -20.5100 N.pl3 1400  ADP1400    -0.1439
     19  C8        -7.5490  -14.5050  -19.8920 C.3   1400  ADP1400     0.3377
     20  N7        -6.2720  -14.9310  -20.0470 N.2   1400  ADP1400    -0.2095
     21  C5        -5.6130  -13.9940  -20.7570 C.2   1400  ADP1400     0.2526
     22  C6        -4.2390  -13.8120  -21.2890 C.2   1400  ADP1400     0.4393
     23  N6        -3.2710  -14.7370  -21.0810 N.pl3 1400  ADP1400     0.2180
     24  N1        -3.9930  -12.6920  -22.0020 N.2   1400  ADP1400     0.0021
     25  C2        -4.9400  -11.7660  -22.2210 C.3   1400  ADP1400     0.5254
     26  N3        -6.2040  -11.8610  -21.7850 N.2   1400  ADP1400    -0.0055
     27  C4        -6.6000  -12.9340  -21.0610 C.2   1400  ADP1400     0.3518
@<TRIPOS>BOND
     1    16    15    1
     2    25    24    1
     3    25    26    1
     4    24    22    2
     5    26    27    2
     6    15    13    1
     7    15    17    1
     8    22    23    1
     9    22    21    1
    10    14    13    1
    11    27    21    1
    12    27    18    1
    13    13    11    1
    14    21    20    2
    15     7     5    2
    16     6     5    1
    17    18    17    1
    18    18    19    1
    19    17    12    1
    20    20    19    1
    21     4     1    2
    22     5     9    1
    23     5     8    1
    24     9    10    1
    25    11    12    1
    26    11    10    1
    27     8     1    1
    28     1     3    1
    29     1     2    1
