@<TRIPOS>MOLECULE
2v1x_ADP_A_1.pdb
 27 29 0 0 0
SMALL
GASTEIGER

@<TRIPOS>ATOM
      1  PB        12.9990    2.6220   17.3900 P.3   1593  ADP1593     0.5373
      2  O1B       11.5890    2.1140   17.1630 O.3   1593  ADP1593    -0.1143
      3  O2B       13.5870    2.0550   18.6300 O.3   1593  ADP1593    -0.1143
      4  O3B       13.1780    4.1400   17.1570 O.2   1593  ADP1593    -0.2221
      5  PA        14.9350    0.9620   16.0110 P.3   1593  ADP1593     0.2231
      6  O1A       16.1180    1.5010   16.7740 O.3   1593  ADP1593    -0.4370
      7  O2A       14.4660   -0.3950   16.3020 O.2   1593  ADP1593    -0.5169
      8  O3A       13.7310    2.0230   16.1050 O.3   1593  ADP1593    -0.2261
      9  O5'       15.1950    1.0080   14.4370 O.3   1593  ADP1593    -0.3111
     10  C5'       14.2200    0.5890   13.4970 C.3   1593  ADP1593     0.1813
     11  C4'       14.9070    0.1670   12.2160 C.3   1593  ADP1593     0.1821
     12  O4'       15.6640    1.2410   11.6580 O.3   1593  ADP1593    -0.3135
     13  C3'       15.8770   -0.9820   12.4520 C.3   1593  ADP1593     0.2184
     14  O3'       15.6500   -1.9890   11.4600 O.3   1593  ADP1593    -0.2174
     15  C2'       17.2460   -0.3350   12.3300 C.3   1593  ADP1593     0.2570
     16  O2'       18.2380   -1.3020   11.9640 O.3   1593  ADP1593    -0.2130
     17  C1'       16.9570    0.7500   11.3040 C.3   1593  ADP1593     0.3186
     18  N9        17.9030    1.8760   11.3150 N.pl3 1593  ADP1593    -0.1439
     19  C8        18.3400    2.5400   12.4020 C.3   1593  ADP1593     0.3377
     20  N7        19.1940    3.5320   12.0510 N.2   1593  ADP1593    -0.2095
     21  C5        19.3070    3.4960   10.7180 C.2   1593  ADP1593     0.2526
     22  C6        20.0680    4.2480    9.7040 C.2   1593  ADP1593     0.4393
     23  N6        20.8650    5.2480   10.0870 N.pl3 1593  ADP1593     0.2180
     24  N1        19.9150    3.9160    8.4020 N.2   1593  ADP1593     0.0021
     25  C2        19.1060    2.9080    8.0150 C.3   1593  ADP1593     0.5254
     26  N3        18.3940    2.1670    8.8910 N.2   1593  ADP1593    -0.0055
     27  C4        18.4450    2.4140   10.2300 C.2   1593  ADP1593     0.3518
@<TRIPOS>BOND
     1    25    24    1
     2    25    26    1
     3    24    22    2
     4    26    27    2
     5    22    23    1
     6    22    21    1
     7    27    21    1
     8    27    18    1
     9    21    20    2
    10    17    18    1
    11    17    12    1
    12    17    15    1
    13    18    19    1
    14    14    13    1
    15    12    11    1
    16    16    15    1
    17    20    19    1
    18    11    13    1
    19    11    10    1
    20    15    13    1
    21    10     9    1
    22     9     5    1
    23     5     8    1
    24     5     7    2
    25     5     6    1
    26     8     1    1
    27     4     1    2
    28     2     1    1
    29     1     3    1
