@<TRIPOS>MOLECULE
2v21_FMN_A_1.pdb
 31 33 0 0 0
SMALL
GASTEIGER

@<TRIPOS>ATOM
      1  N1        43.9530   -4.9640   64.8240 N.2   101  FMN101     -0.2887
      2  C2        44.4410   -4.0710   65.7520 C.1   101  FMN101      0.3669
      3  O2        44.1490   -4.1930   66.9360 O.2   101  FMN101     -0.1744
      4  N3        45.2830   -3.0510   65.3650 N.2   101  FMN101     -0.2300
      5  C4        45.6110   -2.8820   64.0300 C.1   101  FMN101      0.2513
      6  O4        45.7750   -1.7170   63.6570 O.2   101  FMN101     -0.2057
      7  C4A       45.1330   -3.8000   63.0960 C.2   101  FMN101      0.2706
      8  N5        45.4710   -3.6720   61.7690 N.2   101  FMN101     -0.3841
      9  C5A       44.9920   -4.5600   60.8270 C.2   101  FMN101      0.1452
     10  C6        45.3640   -4.3870   59.4960 C.2   101  FMN101      0.0252
     11  C7        44.8990   -5.2680   58.5320 C.2   101  FMN101     -0.0375
     12  C7M       45.6490   -5.3280   57.2370 C.3   101  FMN101      0.0268
     13  C8        44.0570   -6.3210   58.9050 C.3   101  FMN101      0.0417
     14  C8M       43.3470   -7.1310   57.8590 C.3   101  FMN101      0.0091
     15  C9        43.6770   -6.4890   60.2330 C.2   101  FMN101     -0.0049
     16  C9A       44.1490   -5.6100   61.2140 C.2   101  FMN101      0.0795
     17  N10       43.8050   -5.7430   62.5610 N.pl3 101  FMN101     -0.2545
     18  C10       44.2960   -4.8380   63.4910 C.2   101  FMN101      0.2449
     19  C1'       42.8540   -6.8040   63.0460 C.3   101  FMN101      0.1336
     20  C2'       41.4220   -6.2720   62.9570 C.3   101  FMN101      0.2048
     21  O2'       41.3050   -5.1160   63.7630 O.3   101  FMN101     -0.2185
     22  C3'       40.3660   -7.2970   63.3900 C.3   101  FMN101      0.2165
     23  O3'       40.4400   -7.4920   64.7870 O.3   101  FMN101     -0.2175
     24  C4'       40.5120   -8.6450   62.6750 C.3   101  FMN101      0.2147
     25  O4'       40.6850   -8.4100   61.2960 O.3   101  FMN101     -0.2176
     26  C5'       39.3180   -9.5790   62.8880 C.3   101  FMN101      0.1892
     27  O5'       38.1090   -8.8900   62.6550 O.3   101  FMN101     -0.2674
     28  P         36.8500   -9.5400   61.8900 P.3   101  FMN101      0.5327
     29  O1P       35.9210   -8.4000   61.5320 O.3   101  FMN101     -0.1145
     30  O2P       37.3060  -10.2640   60.6490 O.2   101  FMN101     -0.2224
     31  O3P       36.1350  -10.5090   62.8060 O.3   101  FMN101     -0.1145
@<TRIPOS>BOND
     1    12    11    1
     2    14    13    1
     3    11    13    1
     4    11    10    2
     5    13    15    1
     6    10     9    1
     7    15    16    2
     8    30    28    2
     9     9    16    1
    10     9     8    2
    11    16    17    1
    12    25    24    1
    13    29    28    1
    14     8     7    2
    15    28    27    1
    16    28    31    1
    17    17    19    1
    18    17    18    1
    19    27    26    1
    20    24    26    1
    21    24    22    1
    22    20    19    1
    23    20    22    1
    24    20    21    1
    25     7    18    1
    26     7     5    1
    27    22    23    1
    28    18     1    2
    29     6     5    2
    30     5     4    2
    31     1     2    2
    32     4     2    2
    33     2     3    2
