@<TRIPOS>MOLECULE
2v23_HEM_A_1.pdb
 43 50 0 0 0
SMALL
GASTEIGER

@<TRIPOS>ATOM
      1 FE        -11.7250    2.5930    1.5650 Fe    1295  HEM1295     0.0000
      2  CHA      -14.3540    0.3410    1.2370 C.2   1295  HEM1295     0.0000
      3  CHB      -10.2800    0.5050    3.9660 C.2   1295  HEM1295     0.0000
      4  CHC       -9.0490    4.6740    1.7820 C.2   1295  HEM1295     0.0000
      5  CHD      -12.8170    4.2600   -1.2500 C.2   1295  HEM1295     0.0000
      6  NA       -12.2030    0.7580    2.4070 N.2   1295  HEM1295     0.0000
      7  C1A      -13.3510    0.0330    2.1490 C.2   1295  HEM1295     0.0000
      8  C2A      -13.3460   -1.1230    3.0210 C.2   1295  HEM1295     0.0000
      9  C3A      -12.2340   -1.0780    3.7820 C.2   1295  HEM1295     0.0000
     10  C4A      -11.4900    0.1090    3.4170 C.2   1295  HEM1295     0.0000
     11  CMA      -11.7850   -2.0930    4.8640 C.3   1295  HEM1295     0.0000
     12  CAA      -14.4690   -2.1810    3.0310 C.3   1295  HEM1295     0.0000
     13  CBA      -14.2860   -3.2240    1.9230 C.3   1295  HEM1295     0.0000
     14  CGA      -15.4690   -4.1560    2.0000 C.2   1295  HEM1295     0.0000
     15  O1A      -15.6400   -4.8490    3.0400 O.co2 1295  HEM1295     0.0000
     16  O2A      -16.2540   -4.2090    1.0320 O.co2 1295  HEM1295     0.0000
     17  NB        -9.9450    2.5600    2.6620 N.ar  1295  HEM1295     0.0000
     18  C1B       -9.5970    1.6790    3.6640 C.ar  1295  HEM1295     0.0000
     19  C2B       -8.4150    2.1960    4.3270 C.ar  1295  HEM1295     0.0000
     20  C3B       -8.0660    3.3530    3.7230 C.ar  1295  HEM1295     0.0000
     21  C4B       -9.0290    3.6050    2.6560 C.ar  1295  HEM1295     0.0000
     22  CMB       -7.7190    1.4750    5.5080 C.3   1295  HEM1295     0.0000
     23  CAB       -6.8760    4.2930    4.0540 C.2   1295  HEM1295     0.0000
     24  CBB       -6.3730    4.3610    5.2920 C.2   1295  HEM1295     0.0000
     25  NC       -11.0490    4.2050    0.4450 N.2   1295  HEM1295     0.0000
     26  C1C       -9.8930    4.8900    0.6990 C.2   1295  HEM1295     0.0000
     27  C2C       -9.7080    5.8460   -0.3920 C.2   1295  HEM1295     0.0000
     28  C3C      -10.7660    5.7420   -1.2400 C.2   1295  HEM1295     0.0000
     29  C4C      -11.6260    4.6940   -0.7110 C.2   1295  HEM1295     0.0000
     30  CMC       -8.4920    6.7940   -0.4790 C.3   1295  HEM1295     0.0000
     31  CAC      -11.0550    6.5060   -2.5580 C.2   1295  HEM1295     0.0000
     32  CBC      -10.7280    7.7960   -2.7530 C.2   1295  HEM1295     0.0000
     33  ND       -13.3190    2.2890    0.1510 N.ar  1295  HEM1295     0.0000
     34  C1D      -13.6470    3.2540   -0.7970 C.ar  1295  HEM1295     0.0000
     35  C2D      -15.0100    3.0210   -1.2530 C.ar  1295  HEM1295     0.0000
     36  C3D      -15.4940    1.8040   -0.4690 C.ar  1295  HEM1295     0.0000
     37  C4D      -14.3750    1.4080    0.3690 C.ar  1295  HEM1295     0.0000
     38  CMD      -15.8360    3.8320   -2.2680 C.3   1295  HEM1295     0.0000
     39  CAD      -16.8830    1.1580   -0.5900 C.3   1295  HEM1295     0.0000
     40  CBD      -16.7250   -0.0850   -1.4760 C.3   1295  HEM1295     0.0000
     41  CGD      -18.0510   -0.7990   -1.6370 C.2   1295  HEM1295     0.0000
     42  O1D      -18.0520   -1.8590   -2.3270 O.co2 1295  HEM1295     0.0000
     43  O2D      -19.0880   -0.3160   -1.0900 O.co2 1295  HEM1295     0.0000
@<TRIPOS>BOND
     1    32    31    2
     2    31    28    1
     3    42    41   ar
     4    38    35    1
     5    41    40    1
     6    41    43   ar
     7    40    39    1
     8    35    34   ar
     9    35    36   ar
    10     5    34    2
    11     5    29    1
    12    28    29    1
    13    28    27    2
    14    34    33   ar
    15    29    25    2
    16    39    36    1
    17    30    27    1
    18    36    37   ar
    19    27    26    1
    20    33    37   ar
    21    33     1    1
    22    37     2    2
    23    25    26    1
    24    25     1    1
    25    26     4    2
    26    16    14   ar
    27     2     7    1
    28     1     6    1
    29     1    17    1
    30     4    21    1
    31    13    14    1
    32    13    12    1
    33    14    15   ar
    34     7     6    2
    35     7     8    1
    36     6    10    1
    37    21    17   ar
    38    21    20   ar
    39    17    18   ar
    40     8    12    1
    41     8     9    2
    42    10     9    1
    43    10     3    2
    44    18     3    1
    45    18    19   ar
    46    20    23    1
    47    20    19   ar
    48     9    11    1
    49    23    24    2
    50    19    22    1
