@<TRIPOS>MOLECULE
2v26_ADP_A_1.pdb
 27 29 0 0 0
SMALL
GASTEIGER

@<TRIPOS>ATOM
      1  PB        -5.4170   -1.6540   15.9160 P.3   1789  ADP1789     0.5373
      2  O1B       -5.7080   -3.0340   16.4720 O.3   1789  ADP1789    -0.1143
      3  O2B       -4.5320   -0.8350   16.8060 O.3   1789  ADP1789    -0.1143
      4  O3B       -4.9620   -1.6390   14.4740 O.2   1789  ADP1789    -0.2221
      5  PA        -8.2720   -1.3800   16.2760 P.3   1789  ADP1789     0.2231
      6  O1A       -8.6350   -2.5800   15.4530 O.2   1789  ADP1789    -0.5169
      7  O2A       -8.3060   -1.4750   17.7840 O.3   1789  ADP1789    -0.4370
      8  O3A       -6.8100   -0.8220   15.8710 O.3   1789  ADP1789    -0.2261
      9  O5'       -9.2080   -0.1520   15.8290 O.3   1789  ADP1789    -0.3111
     10  C5'       -9.1580    1.0810   16.5360 C.3   1789  ADP1789     0.1813
     11  C4'      -10.5810    1.6090   16.6460 C.3   1789  ADP1789     0.1821
     12  O4'      -11.0350    1.9560   15.3420 O.3   1789  ADP1789    -0.3135
     13  C3'      -11.6050    0.5970   17.1440 C.3   1789  ADP1789     0.2184
     14  O3'      -11.6670    0.5160   18.5710 O.3   1789  ADP1789    -0.2174
     15  C2'      -12.9070    1.0910   16.5470 C.3   1789  ADP1789     0.2570
     16  O2'      -13.3770    2.2410   17.2740 O.3   1789  ADP1789    -0.2130
     17  C1'      -12.4200    1.6070   15.2100 C.3   1789  ADP1789     0.3186
     18  N9       -12.5420    0.6340   14.0950 N.pl3 1789  ADP1789    -0.1439
     19  C8       -11.5300    0.0040   13.4630 C.3   1789  ADP1789     0.3377
     20  N7       -11.9840   -0.7670   12.4420 N.2   1789  ADP1789    -0.2095
     21  C5       -13.3200   -0.6220   12.4110 C.2   1789  ADP1789     0.2526
     22  C6       -14.4330   -1.1530   11.5910 C.2   1789  ADP1789     0.4393
     23  N6       -14.2050   -2.0140   10.5700 N.pl3 1789  ADP1789     0.2180
     24  N1       -15.6880   -0.7430   11.9010 N.2   1789  ADP1789     0.0021
     25  C2       -15.9410    0.1110   12.9110 C.3   1789  ADP1789     0.5254
     26  N3       -14.9840    0.6360   13.6950 N.2   1789  ADP1789    -0.0055
     27  C4       -13.6790    0.3080   13.4950 C.2   1789  ADP1789     0.3518
@<TRIPOS>BOND
     1    23    22    1
     2    22    24    2
     3    22    21    1
     4    24    25    1
     5    21    20    2
     6    21    27    1
     7    20    19    1
     8    25    26    1
     9    19    18    1
    10    27    26    2
    11    27    18    1
    12    18    17    1
    13     4     1    2
    14    17    12    1
    15    17    15    1
    16    12    11    1
    17     6     5    2
    18     9     5    1
    19     9    10    1
    20     8     1    1
    21     8     5    1
    22     1     2    1
    23     1     3    1
    24     5     7    1
    25    10    11    1
    26    15    13    1
    27    15    16    1
    28    11    13    1
    29    13    14    1
