@<TRIPOS>MOLECULE
2v2a_13P_A_1.pdb
 10 9 0 0 0
SMALL
GASTEIGER

@<TRIPOS>ATOM
      1  P         34.1340   91.0940   36.3130 P.3   1277  13P1277     0.5330
      2  O1P       34.2620   92.3810   37.0780 O.3   1277  13P1277    -0.1145
      3  O2P       32.7370   90.5350   36.3840 O.2   1277  13P1277    -0.2224
      4  O3P       35.2040   90.0860   36.6200 O.3   1277  13P1277    -0.1145
      5  O1        34.3360   91.4540   34.7430 O.3   1277  13P1277    -0.2621
      6  C1        35.5590   92.0590   34.2730 C.3   1277  13P1277     0.2204
      7  C2        35.9390   91.7190   32.8360 C.2   1277  13P1277     0.2140
      8  O2        36.9190   92.2150   32.2940 O.2   1277  13P1277    -0.2906
      9  C3        35.1370   90.7340   32.0480 C.3   1277  13P1277     0.2485
     10  O3        35.9960   89.9180   31.2520 O.3   1277  13P1277    -0.2118
@<TRIPOS>BOND
     1    10     9    1
     2     9     7    1
     3     8     7    2
     4     7     6    1
     5     6     5    1
     6     5     1    1
     7     1     3    2
     8     1     4    1
     9     1     2    1
