@<TRIPOS>MOLECULE
2v2e_ISZ_A_1.pdb
 10 10 0 0 0
SMALL
GASTEIGER

@<TRIPOS>ATOM
      1  C2        -9.1960   -4.3950    2.6320 C.ar  1296  ISZ1296     0.0253
      2  C4        -9.2210   -5.4320    3.5720 C.ar  1296  ISZ1296     0.0990
      3  N1        -8.8060   -5.2270    4.8410 N.ar  1296  ISZ1296    -0.2423
      4  C5        -8.3360   -4.0220    5.2360 C.ar  1296  ISZ1296     0.0990
      5  C3        -8.2870   -2.9500    4.3380 C.ar  1296  ISZ1296     0.0253
      6  C1        -8.7110   -3.1370    3.0170 C.ar  1296  ISZ1296     0.0600
      7  C6        -8.6960   -1.9980    2.0250 C.2   1296  ISZ1296     0.2876
      8  O1        -9.6160   -1.9570    1.2130 O.2   1296  ISZ1296    -0.2664
      9  N2        -7.7280   -1.0660    2.0530 N.am  1296  ISZ1296    -0.0546
     10  N3        -7.7250   -0.0940    1.2450 N.2   1296  ISZ1296    -0.0328
@<TRIPOS>BOND
     1     8     7    2
     2    10     9    2
     3     7     9    1
     4     7     6    1
     5     1     6   ar
     6     1     2   ar
     7     6     5   ar
     8     2     3   ar
     9     5     4   ar
    10     3     4   ar
