@<TRIPOS>MOLECULE
2v2e_HEM_A_1.pdb
 43 50 0 0 0
SMALL
GASTEIGER

@<TRIPOS>ATOM
      1 FE        -11.8690    2.4920    1.3840 Fe    1295  HEM1295     0.0000
      2  CHA      -14.4970    0.3070    1.0650 C.2   1295  HEM1295     0.0000
      3  CHB      -10.4370    0.4100    3.7270 C.2   1295  HEM1295     0.0000
      4  CHC       -9.1210    4.5510    1.5970 C.2   1295  HEM1295     0.0000
      5  CHD      -12.9560    4.2400   -1.3760 C.2   1295  HEM1295     0.0000
      6  NA       -12.3560    0.6960    2.2260 N.2   1295  HEM1295     0.0000
      7  C1A      -13.4990   -0.0280    1.9490 C.2   1295  HEM1295     0.0000
      8  C2A      -13.4940   -1.2100    2.7790 C.2   1295  HEM1295     0.0000
      9  C3A      -12.3750   -1.2010    3.5220 C.2   1295  HEM1295     0.0000
     10  C4A      -11.6410    0.0100    3.1910 C.2   1295  HEM1295     0.0000
     11  CMA      -11.9480   -2.2810    4.5510 C.3   1295  HEM1295     0.0000
     12  CAA      -14.6110   -2.2720    2.7480 C.3   1295  HEM1295     0.0000
     13  CBA      -14.3770   -3.3370    1.6740 C.3   1295  HEM1295     0.0000
     14  CGA      -15.5970   -4.2290    1.6970 C.2   1295  HEM1295     0.0000
     15  O1A      -15.7880   -4.9740    2.6900 O.co2 1295  HEM1295     0.0000
     16  O2A      -16.4050   -4.1680    0.7470 O.co2 1295  HEM1295     0.0000
     17  NB       -10.0710    2.4710    2.4420 N.ar  1295  HEM1295     0.0000
     18  C1B       -9.7450    1.5640    3.4300 C.ar  1295  HEM1295     0.0000
     19  C2B       -8.5510    2.0310    4.1010 C.ar  1295  HEM1295     0.0000
     20  C3B       -8.1800    3.1950    3.5290 C.ar  1295  HEM1295     0.0000
     21  C4B       -9.1290    3.4750    2.4600 C.ar  1295  HEM1295     0.0000
     22  CMB       -7.8820    1.2920    5.2790 C.3   1295  HEM1295     0.0000
     23  CAB       -6.9710    4.0920    3.8830 C.2   1295  HEM1295     0.0000
     24  CBB       -6.4870    4.2080    5.1250 C.2   1295  HEM1295     0.0000
     25  NC       -11.1640    4.1170    0.3040 N.2   1295  HEM1295     0.0000
     26  C1C       -9.9770    4.7710    0.5370 C.2   1295  HEM1295     0.0000
     27  C2C       -9.7930    5.7460   -0.5260 C.2   1295  HEM1295     0.0000
     28  C3C      -10.8600    5.6690   -1.3610 C.2   1295  HEM1295     0.0000
     29  C4C      -11.7430    4.6340   -0.8440 C.2   1295  HEM1295     0.0000
     30  CMC       -8.5490    6.6670   -0.6250 C.3   1295  HEM1295     0.0000
     31  CAC      -11.1200    6.4780   -2.6610 C.2   1295  HEM1295     0.0000
     32  CBC      -10.8610    7.7820   -2.8120 C.2   1295  HEM1295     0.0000
     33  ND       -13.4560    2.2670    0.0010 N.ar  1295  HEM1295     0.0000
     34  C1D      -13.7950    3.2370   -0.9370 C.ar  1295  HEM1295     0.0000
     35  C2D      -15.1600    3.0090   -1.3770 C.ar  1295  HEM1295     0.0000
     36  C3D      -15.6310    1.7840   -0.6030 C.ar  1295  HEM1295     0.0000
     37  C4D      -14.5090    1.3850    0.2120 C.ar  1295  HEM1295     0.0000
     38  CMD      -15.9990    3.8210   -2.3840 C.3   1295  HEM1295     0.0000
     39  CAD      -17.0060    1.1020   -0.6800 C.3   1295  HEM1295     0.0000
     40  CBD      -16.8750   -0.0380   -1.6870 C.3   1295  HEM1295     0.0000
     41  CGD      -18.1770   -0.7930   -1.8440 C.2   1295  HEM1295     0.0000
     42  O1D      -19.2240   -0.3690   -1.2910 O.co2 1295  HEM1295     0.0000
     43  O2D      -18.1610   -1.8350   -2.5550 O.co2 1295  HEM1295     0.0000
@<TRIPOS>BOND
     1    32    31    2
     2    31    28    1
     3    43    41   ar
     4    38    35    1
     5    41    40    1
     6    41    42   ar
     7    40    39    1
     8    35    34   ar
     9    35    36   ar
    10     5    34    2
    11     5    29    1
    12    28    29    1
    13    28    27    2
    14    34    33   ar
    15    29    25    2
    16    39    36    1
    17    30    27    1
    18    36    37   ar
    19    27    26    1
    20    33    37   ar
    21    33     1    1
    22    37     2    2
    23    25    26    1
    24    25     1    1
    25    26     4    2
    26    16    14   ar
    27     2     7    1
    28     1     6    1
    29     1    17    1
    30     4    21    1
    31    13    14    1
    32    13    12    1
    33    14    15   ar
    34     7     6    2
    35     7     8    1
    36     6    10    1
    37    17    21   ar
    38    17    18   ar
    39    21    20   ar
    40    12     8    1
    41     8     9    2
    42    10     9    1
    43    10     3    2
    44    18     3    1
    45    18    19   ar
    46     9    11    1
    47    20    23    1
    48    20    19   ar
    49    23    24    2
    50    19    22    1
