@<TRIPOS>MOLECULE
2v2q_NVG_A_1.pdb
 30 33 0 0 0
SMALL
GASTEIGER

@<TRIPOS>ATOM
      1  OAC       12.9440   -9.9710   14.9610 O.2   1274  NVG1274    -0.1925
      2  CAV       13.0410   -9.0370   15.7620 C.1   1274  NVG1274     0.2756
      3  NAO       12.3190   -7.9140   15.5500 N.2   1274  NVG1274    -0.3024
      4  CAT       12.3730   -6.8650   16.3910 C.2   1274  NVG1274     0.2346
      5  NAA       11.6480   -5.7770   16.1530 N.pl3 1274  NVG1274    -0.0921
      6  CAF       13.1900   -6.8970   17.5220 C.2   1274  NVG1274     0.0687
      7  CAG       13.9540   -8.0270   17.7840 C.2   1274  NVG1274     0.0836
      8  NBD       13.8960   -9.1240   16.9000 N.am  1274  NVG1274    -0.1778
      9  CBC       14.7180  -10.3600   17.1830 C.3   1274  NVG1274     0.2400
     10  OAS       15.2460  -10.4160   18.5600 O.3   1274  NVG1274    -0.3327
     11  CBA       15.9510  -10.4870   16.2580 C.3   1274  NVG1274     0.2319
     12  OAE       15.9890  -11.8010   15.6740 O.3   1274  NVG1274    -0.2157
     13  CAZ       17.1610  -10.2830   17.1680 C.3   1274  NVG1274     0.2151
     14  OAD       17.8180  -11.5390   17.2980 O.3   1274  NVG1274    -0.2176
     15  CBB       16.5610   -9.8010   18.5160 C.3   1274  NVG1274     0.1716
     16  CAN       17.3020  -10.0920   19.8640 C.3   1274  NVG1274     0.1473
     17  NAQ       18.2310  -11.2300   19.7370 N.am  1274  NVG1274    -0.2027
     18  CAU       19.5410  -11.1410   19.9820 C.2   1274  NVG1274     0.2426
     19  OAB       20.1120  -10.1100   20.3370 O.2   1274  NVG1274    -0.2733
     20  CAL       20.3390  -12.4420   19.7890 C.3   1274  NVG1274     0.1049
     21  CAM       19.5050  -13.7070   20.0450 C.3   1274  NVG1274     0.1344
     22  CAW       19.1260  -13.8430   21.5220 C.1   1274  NVG1274     0.1139
     23  NAR       18.2900  -13.0430   22.1840 N.2   1274  NVG1274    -0.3410
     24  CAY       18.2060  -13.4680   23.4380 C.ar  1274  NVG1274     0.1738
     25  CAK       17.4910  -13.0090   24.5430 C.ar  1274  NVG1274     0.0357
     26  CAI       17.6050  -13.6780   25.7610 C.ar  1274  NVG1274     0.0028
     27  CAH       18.4300  -14.7990   25.8700 C.ar  1274  NVG1274     0.0028
     28  CAJ       19.1460  -15.2540   24.7630 C.ar  1274  NVG1274     0.0357
     29  CAX       19.0300  -14.5830   23.5470 C.ar  1274  NVG1274     0.1738
     30  NAP       19.5760  -14.7840   22.3520 N.2   1274  NVG1274    -0.3410
@<TRIPOS>BOND
     1     1     2    2
     2     3     2    2
     3     3     4    2
     4    12    11    1
     5     2     8   am
     6     5     4    1
     7    11    13    1
     8    11     9    1
     9     4     6    1
    10     8     9    1
    11     8     7    1
    12    13    14    1
    13    13    15    1
    14     9    10    1
    15     6     7    2
    16    15    10    1
    17    15    16    1
    18    17    16    1
    19    17    18   am
    20    20    18    1
    21    20    21    1
    22    18    19    2
    23    21    22    1
    24    22    23    2
    25    22    30    2
    26    23    24    2
    27    30    29    2
    28    24    29   ar
    29    24    25   ar
    30    29    28   ar
    31    25    26   ar
    32    28    27   ar
    33    26    27   ar
