@<TRIPOS>MOLECULE
2v2v_V12_A_1.pdb
 29 32 0 0 0
SMALL
GASTEIGER

@<TRIPOS>ATOM
      1  OAC       12.8760  -10.0680   14.8980 O.2   1277  V121277    -0.1925
      2  CAV       12.9820   -9.1330   15.6950 C.1   1277  V121277     0.2756
      3  NAO       12.2620   -8.0190   15.4750 N.2   1277  V121277    -0.3024
      4  CAT       12.3070   -6.9530   16.2930 C.2   1277  V121277     0.2346
      5  NAA       11.5750   -5.8730   16.0340 N.pl3 1277  V121277    -0.0921
      6  CAF       13.1170   -6.9550   17.4210 C.2   1277  V121277     0.0687
      7  CAG       13.8800   -8.0780   17.6990 C.2   1277  V121277     0.0836
      8  NBD       13.8280   -9.1900   16.8310 N.am  1277  V121277    -0.1778
      9  CBC       14.6770  -10.3720   17.1840 C.3   1277  V121277     0.2400
     10  OAS       15.1950  -10.0900   18.5380 O.3   1277  V121277    -0.3327
     11  CBA       15.9030  -10.5500   16.2680 C.3   1277  V121277     0.2319
     12  OAE       15.9370  -11.8890   15.7270 O.3   1277  V121277    -0.2157
     13  CAZ       17.0970  -10.2900   17.1890 C.3   1277  V121277     0.2151
     14  OAD       18.1130  -11.2630   16.9490 O.3   1277  V121277    -0.2176
     15  CB0       16.5590  -10.4900   18.5940 C.3   1277  V121277     0.1716
     16  CAN       17.2900   -9.4750   19.4790 C.3   1277  V121277     0.1473
     17  NAQ       16.9700   -9.6620   20.9050 N.am  1277  V121277    -0.2018
     18  CAU       17.7770  -10.2890   21.7650 C.2   1277  V121277     0.2588
     19  OAB       18.8660  -10.7830   21.4700 O.2   1277  V121277    -0.2721
     20  CAL       17.2430  -10.3490   23.2020 C.3   1277  V121277     0.2110
     21  CA0       17.5970  -11.6650   23.9100 C.1   1277  V121277     0.1229
     22  NAR       17.3450  -11.9200   25.1940 N.2   1277  V121277    -0.3405
     23  CAY       17.7790  -13.1430   25.4770 C.ar  1277  V121277     0.1738
     24  CAK       17.7700  -13.9000   26.6480 C.ar  1277  V121277     0.0357
     25  CAI       18.3100  -15.1860   26.6420 C.ar  1277  V121277     0.0028
     26  CAH       18.8570  -15.7090   25.4690 C.ar  1277  V121277     0.0028
     27  CAJ       18.8640  -14.9480   24.3000 C.ar  1277  V121277     0.0357
     28  CAX       18.3220  -13.6630   24.3080 C.ar  1277  V121277     0.1738
     29  NAP       18.1930  -12.7300   23.3680 N.2   1277  V121277    -0.3405
@<TRIPOS>BOND
     1     1     2    2
     2     3     2    2
     3     3     4    2
     4     2     8   am
     5    12    11    1
     6     5     4    1
     7    11     9    1
     8    11    13    1
     9     4     6    1
    10     8     9    1
    11     8     7    1
    12    14    13    1
    13     9    10    1
    14    13    15    1
    15     6     7    2
    16    10    15    1
    17    15    16    1
    18    16    17    1
    19    17    18   am
    20    19    18    2
    21    18    20    1
    22    20    21    1
    23    29    21    2
    24    29    28    2
    25    21    22    2
    26    27    28   ar
    27    27    26   ar
    28    28    23   ar
    29    22    23    2
    30    26    25   ar
    31    23    24   ar
    32    25    24   ar
