@<TRIPOS>MOLECULE
2v2z_CDM_A_1.pdb
 33 34 0 0 0
SMALL
GASTEIGER

@<TRIPOS>ATOM
      1  N1       122.8500   59.7330   51.1360 N.am  1269  CDM1269    -0.1778
      2  C2       123.6920   59.8230   52.2730 C.1   1269  CDM1269     0.2756
      3  N3       124.3820   60.9460   52.5120 N.2   1269  CDM1269    -0.3024
      4  C4       124.3010   62.0100   51.7080 C.2   1269  CDM1269     0.2346
      5  C5       123.4810   61.9670   50.5710 C.2   1269  CDM1269     0.0687
      6  C6       122.7680   60.7960   50.3100 C.2   1269  CDM1269     0.0836
      7  O2       123.7980   58.8600   53.0720 O.2   1269  CDM1269    -0.1925
      8  N4       125.0260   63.1180   52.0050 N.pl3 1269  CDM1269    -0.0921
      9  C1'      122.0930   58.4840   50.8660 C.3   1269  CDM1269     0.2400
     10  C2'      120.8550   58.3550   51.7510 C.3   1269  CDM1269     0.2319
     11  O2'      120.7170   56.9970   52.1810 O.3   1269  CDM1269    -0.2157
     12  C3'      119.6970   58.6950   50.8470 C.3   1269  CDM1269     0.2158
     13  C4'      120.1950   58.2990   49.4640 C.3   1269  CDM1269     0.1799
     14  O4'      121.6270   58.4230   49.5100 O.3   1269  CDM1269    -0.3320
     15  O3'      118.5150   57.9820   51.2250 O.3   1269  CDM1269    -0.2175
     16  C5'      119.6200   59.1900   48.3680 C.3   1269  CDM1269     0.1813
     17  O5'      119.6420   60.5480   48.7970 O.3   1269  CDM1269    -0.3112
     18  PA       119.4840   61.7700   47.7670 P.3   1269  CDM1269     0.2189
     19  O1A      118.4510   61.3720   46.7460 O.2   1269  CDM1269    -0.5170
     20  O2A      119.3440   63.0520   48.5540 O.3   1269  CDM1269    -0.4371
     21  O3A      120.9510   61.6900   47.0980 O.3   1269  CDM1269    -0.2703
     22  PB       121.5240   62.6280   45.9190 P.3   1269  CDM1269     0.2189
     23  O1B      120.8200   63.9630   45.9400 O.3   1269  CDM1269    -0.4371
     24  O2B      121.5980   61.8280   44.6360 O.2   1269  CDM1269    -0.5170
     25  O3B      123.0320   62.8360   46.4580 O.3   1269  CDM1269    -0.3111
     26  C1M      124.0540   61.8550   46.2940 C.3   1269  CDM1269     0.1845
     27  C2M      125.4210   62.5430   46.4220 C.3   1269  CDM1269     0.2120
     28  O2M      125.8560   62.5120   47.7940 O.3   1269  CDM1269    -0.2177
     29  C3M      126.5170   62.0030   45.4840 C.3   1269  CDM1269     0.1873
     30  C4M      127.7440   62.9100   45.5370 C.3   1269  CDM1269     0.2148
     31  C5M      126.9240   60.5770   45.8410 C.3   1269  CDM1269     0.0384
     32  O3M      126.0300   61.9850   44.1320 O.3   1269  CDM1269    -0.2202
     33  O4M      127.5030   64.1830   44.9230 O.3   1269  CDM1269    -0.2176
@<TRIPOS>BOND
     1    32    29    1
     2    24    22    2
     3    33    30    1
     4    29    30    1
     5    29    31    1
     6    29    27    1
     7    22    23    1
     8    22    25    1
     9    22    21    1
    10    26    27    1
    11    26    25    1
    12    27    28    1
    13    19    18    2
    14    21    18    1
    15    18    20    1
    16    18    17    1
    17    16    17    1
    18    16    13    1
    19    13    14    1
    20    13    12    1
    21    14     9    1
    22     6     5    2
    23     6     1    1
    24     5     4    1
    25    12    15    1
    26    12    10    1
    27     9     1    1
    28     9    10    1
    29     1     2   am
    30     4     8    1
    31     4     3    2
    32    10    11    1
    33     2     3    2
    34     2     7    2
