@<TRIPOS>MOLECULE
2v2z_ADP_A_1.pdb
 27 29 0 0 0
SMALL
GASTEIGER

@<TRIPOS>ATOM
      1  PB       122.5390   59.6550   40.6950 P.3   1270  ADP1270     0.5373
      2  O1B      123.0360   58.3040   40.2730 O.3   1270  ADP1270    -0.1143
      3  O2B      122.9990   60.7830   39.8130 O.2   1270  ADP1270    -0.2221
      4  O3B      122.7120   59.9080   42.1790 O.3   1270  ADP1270    -0.1143
      5  PA       119.9970   60.3810   39.5580 P.3   1270  ADP1270     0.2231
      6  O1A      120.4270   60.0710   38.1460 O.2   1270  ADP1270    -0.5169
      7  O2A      119.8970   61.8210   40.0170 O.3   1270  ADP1270    -0.4370
      8  O3A      120.9400   59.5670   40.5790 O.3   1270  ADP1270    -0.2261
      9  O5'      118.5870   59.6600   39.8730 O.3   1270  ADP1270    -0.3111
     10  C5'      118.4440   58.2380   39.7960 C.3   1270  ADP1270     0.1813
     11  C4'      117.1840   57.7440   40.5150 C.3   1270  ADP1270     0.1821
     12  O4'      116.2290   58.7890   40.7560 O.3   1270  ADP1270    -0.3135
     13  C3'      116.4700   56.6960   39.6800 C.3   1270  ADP1270     0.2184
     14  O3'      116.0450   55.6400   40.5480 O.3   1270  ADP1270    -0.2174
     15  C2'      115.2670   57.4110   39.0900 C.3   1270  ADP1270     0.2570
     16  O2'      114.1440   56.5370   38.9600 O.3   1270  ADP1270    -0.2130
     17  C1'      114.9910   58.5430   40.0690 C.3   1270  ADP1270     0.3186
     18  N9       114.5410   59.7950   39.3940 N.pl3 1270  ADP1270    -0.1439
     19  C8       113.4430   60.4970   39.7270 C.3   1270  ADP1270     0.3377
     20  N7       113.3000   61.5970   38.9490 N.2   1270  ADP1270    -0.2095
     21  C5       114.3330   61.6150   38.0900 C.2   1270  ADP1270     0.2526
     22  C6       114.7970   62.4960   36.9940 C.2   1270  ADP1270     0.4393
     23  N6       114.1030   63.6080   36.6530 N.pl3 1270  ADP1270     0.2180
     24  N1       115.9410   62.1550   36.3510 N.2   1270  ADP1270     0.0021
     25  C2       116.6460   61.0520   36.6730 C.3   1270  ADP1270     0.5254
     26  N3       116.2770   60.2110   37.6540 N.2   1270  ADP1270    -0.0055
     27  C4       115.1550   60.4300   38.3880 C.2   1270  ADP1270     0.3518
@<TRIPOS>BOND
     1    24    25    1
     2    24    22    2
     3    23    22    1
     4    25    26    1
     5    22    21    1
     6    26    27    2
     7    21    27    1
     8    21    20    2
     9     6     5    2
    10    27    18    1
    11    20    19    1
    12    16    15    1
    13    15    13    1
    14    15    17    1
    15    18    19    1
    16    18    17    1
    17     5     9    1
    18     5     7    1
    19     5     8    1
    20    13    11    1
    21    13    14    1
    22    10     9    1
    23    10    11    1
    24     3     1    2
    25    17    12    1
    26     2     1    1
    27    11    12    1
    28     8     1    1
    29     1     4    1
