@<TRIPOS>MOLECULE
2v30_U5P_A_1.pdb
 21 22 0 0 0
SMALL
GASTEIGER

@<TRIPOS>ATOM
      1  N1        10.7940   62.4080   19.4450 N.am  1480  U5P1480    -0.1766
      2  C2        11.8230   63.3610   19.5970 C.1   1480  U5P1480     0.2845
      3  N3        13.0830   63.0520   19.2790 N.2   1480  U5P1480    -0.2452
      4  C4        13.4220   61.8520   18.7860 C.1   1480  U5P1480     0.2182
      5  C5        12.4330   60.8850   18.6060 C.2   1480  U5P1480     0.1242
      6  C6        11.1150   61.1970   18.9340 C.2   1480  U5P1480     0.0929
      7  O2        11.5510   64.4800   20.0450 O.2   1480  U5P1480    -0.1918
      8  O4        14.6170   61.6260   18.4850 O.2   1480  U5P1480    -0.2085
      9  C1'        9.3970   62.7510   19.7630 C.3   1480  U5P1480     0.2401
     10  C2'        9.0700   63.1860   21.1980 C.3   1480  U5P1480     0.2319
     11  O2'        8.6800   62.0980   22.0230 O.3   1480  U5P1480    -0.2157
     12  C3'        7.8830   64.1040   20.9890 C.3   1480  U5P1480     0.2158
     13  C4'        8.1620   64.7590   19.6410 C.3   1480  U5P1480     0.1801
     14  O3'        6.6110   63.4050   20.9070 O.3   1480  U5P1480    -0.2175
     15  O4'        8.9630   63.8230   18.9070 O.3   1480  U5P1480    -0.3320
     16  C5'        8.8970   66.0870   19.7990 C.3   1480  U5P1480     0.1859
     17  O5'        8.0100   67.0180   20.3690 O.3   1480  U5P1480    -0.2675
     18  P          8.4160   68.5410   20.6240 P.3   1480  U5P1480     0.5327
     19  O1P        7.3000   69.0010   21.5440 O.3   1480  U5P1480    -0.1145
     20  O2P        9.7730   68.5410   21.2930 O.3   1480  U5P1480    -0.1145
     21  O3P        8.3700   69.1780   19.2440 O.2   1480  U5P1480    -0.2224
@<TRIPOS>BOND
     1     8     4    2
     2     5     4    1
     3     5     6    2
     4     4     3    2
     5    15    13    1
     6    15     9    1
     7     6     1    1
     8    21    18    2
     9     3     2    2
    10     1     2   am
    11     1     9    1
    12     2     7    2
    13    13    16    1
    14    13    12    1
    15     9    10    1
    16    16    17    1
    17    17    18    1
    18    18    20    1
    19    18    19    1
    20    14    12    1
    21    12    10    1
    22    10    11    1
