@<TRIPOS>MOLECULE
2v34_SG3_B_1.pdb
 13 12 0 0 0
SMALL
GASTEIGER

@<TRIPOS>ATOM
      1  O3        95.0800   -2.8800   21.1930 O.2   1270  SG31270    -0.4601
      2  P         96.0240   -2.9690   22.4810 P.3   1270  SG31270     0.1173
      3  O4        95.0120   -2.7460   23.7020 O.3   1270  SG31270    -0.3571
      4  O2        96.7000   -4.2860   22.5780 O.3   1270  SG31270    -0.3571
      5  C5        97.1610   -1.5160   22.4560 C.3   1270  SG31270     0.0616
      6  C6        97.2280   -0.8160   21.3100 C.3   1270  SG31270     0.0434
      7  C7        96.6140    0.6110   21.4180 C.3   1270  SG31270     0.1846
      8  O13       95.3800    0.5250   22.1400 O.3   1270  SG31270    -0.2202
      9  C8        97.4820    1.8140   21.9750 C.3   1270  SG31270     0.1919
     10  C12       98.5220    1.3710   23.0230 C.3   1270  SG31270     0.0407
     11  F11       98.0970    2.5170   21.0080 F     1270  SG31270    -0.2347
     12  C9        96.5720    2.8150   22.6440 C.3   1270  SG31270     0.2169
     13  O10       97.1010    4.1030   22.3660 O.3   1270  SG31270    -0.2174
@<TRIPOS>BOND
     1    11     9    1
     2     1     2    2
     3     6     7    1
     4     6     5    1
     5     7     9    1
     6     7     8    1
     7     9    12    1
     8     9    10    1
     9    13    12    1
    10     5     2    1
    11     2     4    1
    12     2     3    1
