@<TRIPOS>MOLECULE
2v34_CTN_A_1.pdb
 17 18 0 0 0
SMALL
GASTEIGER

@<TRIPOS>ATOM
      1  O5'       94.6380   50.8690   13.7170 O.3   1269  CTN1269    -0.2176
      2  C5'       93.2820   51.3210   13.7420 C.3   1269  CTN1269     0.2142
      3  C4'       92.5920   50.7980   15.0010 C.3   1269  CTN1269     0.1829
      4  O4'       92.8190   49.3710   15.0860 O.3   1269  CTN1269    -0.3318
      5  C1'       92.8440   49.0050   16.5110 C.3   1269  CTN1269     0.2400
      6  N1        94.0700   48.1970   16.8190 N.am  1269  CTN1269    -0.1778
      7  C6        95.1530   48.1740   15.9060 C.2   1269  CTN1269     0.0836
      8  C5        96.2460   47.4530   16.1810 C.2   1269  CTN1269     0.0687
      9  C4        96.3170   46.7130   17.3700 C.2   1269  CTN1269     0.2346
     10  N3        95.2930   46.7230   18.2440 N.2   1269  CTN1269    -0.3024
     11  C2        94.1740   47.4340   18.0100 C.1   1269  CTN1269     0.2756
     12  O2        93.2690   47.4070   18.8420 O.2   1269  CTN1269    -0.1925
     13  N4        97.4000   45.9890   17.6450 N.pl3 1269  CTN1269    -0.0921
     14  C2'       92.7980   50.3190   17.3080 C.3   1269  CTN1269     0.2319
     15  O2'       91.4540   50.5700   17.7510 O.3   1269  CTN1269    -0.2157
     16  C3'       93.2200   51.3610   16.2820 C.3   1269  CTN1269     0.2159
     17  O3'       92.6430   52.6350   16.6150 O.3   1269  CTN1269    -0.2175
@<TRIPOS>BOND
     1     1     2    1
     2     2     3    1
     3     3     4    1
     4     3    16    1
     5     4     5    1
     6     7     8    2
     7     7     6    1
     8     8     9    1
     9    16    17    1
    10    16    14    1
    11     5     6    1
    12     5    14    1
    13     6    11   am
    14    14    15    1
    15     9    13    1
    16     9    10    2
    17    11    10    2
    18    11    12    2
