@<TRIPOS>MOLECULE
2v35_J54_A_1.pdb
 16 16 0 0 0
SMALL
GASTEIGER

@<TRIPOS>ATOM
      1  O02        8.4990    4.1800   -0.6890 O.2   1246  J541246    -0.2854
      2  C06        8.7590    5.0410    0.0610 C.2   1246  J541246     0.2418
      3  C05       10.2010    5.5110    0.0380 C.3   1246  J541246     0.2375
      4  O18       10.4230    6.8480    0.2960 O.3   1246  J541246    -0.2127
      5  C04       11.1040    5.1300   -1.0640 C.3   1246  J541246     0.1577
      6  N02       12.2620    5.9610   -1.1600 N.am  1246  J541246    -0.1840
      7  C03       13.1920    5.5760   -2.0720 C.2   1246  J541246     0.3396
      8  O01       13.0460    4.6040   -2.6830 O.2   1246  J541246    -0.2492
      9  N01       14.2580    6.3200   -2.3070 N.am  1246  J541246    -0.1824
     10  C02       15.4910    5.9080   -2.9960 C.3   1246  J541246     0.1432
     11  C01       15.6220    6.4120   -4.4230 C.ar  1246  J541246    -0.0005
     12  CE1       14.5950    7.1270   -5.0040 C.ar  1246  J541246    -0.0026
     13  CD1       14.7140    7.6220   -6.3190 C.ar  1246  J541246    -0.0003
     14  CG        15.8800    7.3510   -7.0170 C.ar  1246  J541246    -0.0000
     15  CD2       16.8800    6.6110   -6.4550 C.ar  1246  J541246    -0.0003
     16  CE2       16.7750    6.1450   -5.1660 C.ar  1246  J541246    -0.0026
@<TRIPOS>BOND
     1    14    15   ar
     2    14    13   ar
     3    15    16   ar
     4    13    12   ar
     5    16    11   ar
     6    12    11   ar
     7    11    10    1
     8    10     9    1
     9     8     7    2
    10     9     7   am
    11     7     6   am
    12     6     5    1
    13     5     3    1
    14     1     2    2
    15     3     2    1
    16     3     4    1
