@<TRIPOS>MOLECULE
2v38_IFL_A_1.pdb
 11 11 0 0 0
SMALL
GASTEIGER

@<TRIPOS>ATOM
      1  O4        61.8740   45.4760   35.6850 O.3   1309  IFL1309    -0.2201
      2  C4        61.8280   44.0630   35.9370 C.3   1309  IFL1309     0.1901
      3  C3        61.3210   43.3730   34.6640 C.3   1309  IFL1309     0.2291
      4  O3        60.0080   43.8040   34.3180 O.3   1309  IFL1309    -0.2161
      5  C2        61.3340   41.8650   34.8620 C.3   1309  IFL1309     0.2586
      6  N         62.6520   41.4060   35.2850 N.3   1309  IFL1309    -0.1868
      7  C7        63.1250   42.0270   36.5290 C.3   1309  IFL1309     0.0966
      8  C5        63.2150   43.5450   36.3190 C.3   1309  IFL1309     0.0836
      9  C6        63.8130   44.2350   37.5560 C.3   1309  IFL1309     0.1861
     10  O6        63.0050   44.0320   38.7040 O.3   1309  IFL1309    -0.2203
     11  O2        60.9790   41.2260   33.6310 O.3   1309  IFL1309    -0.2007
@<TRIPOS>BOND
     1    11     5    1
     2     4     3    1
     3     3     5    1
     4     3     2    1
     5     5     6    1
     6     6     7    1
     7     1     2    1
     8     2     8    1
     9     8     7    1
    10     8     9    1
    11     9    10    1
