@<TRIPOS>MOLECULE
2v38_IDR_A_1.pdb
 11 11 0 0 0
SMALL
GASTEIGER

@<TRIPOS>ATOM
      1  C1        61.3760   46.2910   36.7370 C.3   1310  IDR1310     0.1777
      2  C2        61.7330   47.7280   36.3370 C.3   1310  IDR1310     0.2141
      3  C3        61.1100   48.6970   37.3540 C.3   1310  IDR1310     0.2173
      4  C4        59.6240   48.4080   37.4910 C.3   1310  IDR1310     0.2142
      5  C5        59.3780   46.9200   37.7810 C.3   1310  IDR1310     0.1810
      6  C6        57.9130   46.5550   37.8790 C.3   1310  IDR1310     0.2141
      7  O2        63.1310   47.9050   36.2900 O.3   1310  IDR1310    -0.2176
      8  O3        61.3230   50.0660   36.9640 O.3   1310  IDR1310    -0.2175
      9  O4        59.0160   49.2270   38.4900 O.3   1310  IDR1310    -0.2176
     10  O5        59.9750   46.1460   36.7310 O.3   1310  IDR1310    -0.3481
     11  O6A       57.2280   46.7660   36.6440 O.3   1310  IDR1310    -0.2176
@<TRIPOS>BOND
     1     7     2    1
     2     2     1    1
     3     2     3    1
     4    11     6    1
     5    10     1    1
     6    10     5    1
     7     8     3    1
     8     3     4    1
     9     4     5    1
    10     4     9    1
    11     5     6    1
