@<TRIPOS>MOLECULE
2v3d_NBV_A_1.pdb
 15 15 0 0 0
SMALL
GASTEIGER

@<TRIPOS>ATOM
      1  O9        34.6420   34.2760   -1.1950 O.3   1503  NBV1503    -0.2188
      2  C12       33.8390   33.4890   -0.2680 C.3   1503  NBV1503     0.2006
      3  C11       34.6480   32.2880    0.3200 C.3   1503  NBV1503     0.1241
      4  C10       35.8210   32.7510    1.1910 C.3   1503  NBV1503     0.2018
      5  O1        35.4120   33.7460    2.1780 O.3   1503  NBV1503    -0.2188
      6  C9        36.5240   31.5590    1.8670 C.3   1503  NBV1503     0.2150
      7  O8        37.7380   31.9710    2.5030 O.3   1503  NBV1503    -0.2176
      8  C8        36.9050   30.4670    0.8500 C.3   1503  NBV1503     0.2006
      9  O7        37.1310   29.2710    1.6000 O.3   1503  NBV1503    -0.2188
     10  N1        35.2190   31.4520   -0.7420 N.3   1503  NBV1503    -0.2673
     11  C7        35.8120   30.2110   -0.1820 C.3   1503  NBV1503     0.1082
     12  C13       34.2610   31.2750   -1.8520 C.3   1503  NBV1503     0.0723
     13  C14       34.8060   30.3340   -2.9390 C.3   1503  NBV1503     0.0173
     14  C15       34.1390   30.6730   -4.3020 C.3   1503  NBV1503     0.0014
     15  C16       34.5900   29.7200   -5.4350 C.3   1503  NBV1503     0.0000
@<TRIPOS>BOND
     1    15    14    1
     2    14    13    1
     3    13    12    1
     4    12    10    1
     5     1     2    1
     6    10    11    1
     7    10     3    1
     8     2     3    1
     9    11     8    1
    10     3     4    1
    11     8     9    1
    12     8     6    1
    13     4     6    1
    14     4     5    1
    15     6     7    1
