@<TRIPOS>MOLECULE
2v3e_NND_A_1.pdb
 20 20 0 0 0
SMALL
GASTEIGER

@<TRIPOS>ATOM
      1  O6        34.7260   34.3490   -1.1620 O.3   1502  NND1502    -0.2188
      2  C6        33.9040   33.5170   -0.2920 C.3   1502  NND1502     0.2006
      3  C5        34.6920   32.3580    0.3880 C.3   1502  NND1502     0.1241
      4  C4        35.9070   32.8280    1.2120 C.3   1502  NND1502     0.2018
      5  O4        35.4740   33.8620    2.1000 O.3   1502  NND1502    -0.2188
      6  O3        37.8040   32.0370    2.6250 O.3   1502  NND1502    -0.2176
      7  C2        37.0430   30.5510    0.9240 C.3   1502  NND1502     0.2006
      8  O2        37.2110   29.3030    1.6290 O.3   1502  NND1502    -0.2188
      9  N1        35.2970   31.5030   -0.6430 N.3   1502  NND1502    -0.2673
     10  C8        34.4170   31.3610   -1.8130 C.3   1502  NND1502     0.0723
     11  C7        35.0870   30.4190   -2.7800 C.3   1502  NND1502     0.0173
     12  C1        35.9400   30.2900   -0.0960 C.3   1502  NND1502     0.1082
     13  C9        34.5410   30.7590   -4.1600 C.3   1502  NND1502     0.0014
     14  C10       35.1320   29.8940   -5.2710 C.3   1502  NND1502     0.0000
     15  C14       34.3960   30.3560   -6.5400 C.3   1502  NND1502     0.0000
     16  C13       35.2100   30.0240   -7.7850 C.3   1502  NND1502     0.0000
     17  C12       35.8160   31.2880   -8.3660 C.3   1502  NND1502     0.0000
     18  C16       38.1120   31.6660   -9.0960 C.3   1502  NND1502     0.0000
     19  C11       36.8370   30.9370   -9.4390 C.3   1502  NND1502     0.0000
     20  C31       36.6110   31.6420    1.9160 C.3   1502  NND1502     0.2150
@<TRIPOS>BOND
     1    19    18    1
     2    19    17    1
     3    17    16    1
     4    16    15    1
     5    15    14    1
     6    14    13    1
     7    13    11    1
     8    11    10    1
     9    10     9    1
    10     1     2    1
    11     9    12    1
    12     9     3    1
    13     2     3    1
    14    12     7    1
    15     3     4    1
    16     7     8    1
    17     7    20    1
    18     4    20    1
    19     4     5    1
    20    20     6    1
