@<TRIPOS>MOLECULE
2v3g_BGC_A_1.pdb
 12 12 0 0 0
SMALL
GASTEIGER

@<TRIPOS>ATOM
      1  C2        22.6420   35.1000   16.8720 C.3   1281  BGC1281     0.2434
      2  C3        24.0330   34.4890   17.0100 C.3   1281  BGC1281     0.2199
      3  C4        23.9280   33.2620   17.8930 C.3   1281  BGC1281     0.2144
      4  C5        22.9090   32.3010   17.2820 C.3   1281  BGC1281     0.1836
      5  C6        22.7470   31.0050   18.0660 C.3   1281  BGC1281     0.2142
      6  C1        21.6360   34.0680   16.3940 C.3   1281  BGC1281     0.3024
      7  O1        20.3480   34.6590   16.4910 O.3   1281  BGC1281    -0.1869
      8  O2        22.6790   36.2270   16.0020 O.3   1281  BGC1281    -0.2148
      9  O3        24.9470   35.4180   17.5370 O.3   1281  BGC1281    -0.2174
     10  O4        25.2040   32.6410   17.9450 O.3   1281  BGC1281    -0.2176
     11  O5        21.6400   32.9470   17.2380 O.3   1281  BGC1281    -0.3236
     12  O6        22.2310   31.3160   19.3830 O.3   1281  BGC1281    -0.2176
@<TRIPOS>BOND
     1     8     1    1
     2     6     7    1
     3     6     1    1
     4     6    11    1
     5     1     2    1
     6     2     9    1
     7     2     3    1
     8    11     4    1
     9     4     3    1
    10     4     5    1
    11     3    10    1
    12     5    12    1
