@<TRIPOS>MOLECULE
2v3g_NOY_A_1.pdb
 10 10 0 0 0
SMALL
GASTEIGER

@<TRIPOS>ATOM
      1  O4        18.2190   33.4640   17.8880 O.3   1282  NOY1282    -0.2229
      2  C4        18.0390   34.1860   16.6550 C.3   1282  NOY1282     0.1599
      3  C3        19.2950   33.9950   15.8060 C.3   1282  NOY1282     0.0843
      4  C2        19.1360   34.6830   14.4280 C.3   1282  NOY1282     0.2281
      5  N         17.8850   34.2810   13.7690 N.3   1282  NOY1282    -0.1890
      6  C7        16.6820   34.4680   14.6030 C.3   1282  NOY1282     0.0964
      7  C5        16.8270   33.6580   15.8860 C.3   1282  NOY1282     0.0810
      8  C6        15.5060   33.7160   16.6930 C.3   1282  NOY1282     0.1860
      9  O2        20.2050   34.3450   13.5500 O.3   1282  NOY1282    -0.2036
     10  O6        15.1670   35.0290   17.0890 O.3   1282  NOY1282    -0.2203
@<TRIPOS>BOND
     1     9     4    1
     2     5     4    1
     3     5     6    1
     4     4     3    1
     5     6     7    1
     6     3     2    1
     7     7     2    1
     8     7     8    1
     9     2     1    1
    10     8    10    1
