@<TRIPOS>MOLECULE
2v3h_I25_H_1.pdb
 31 32 0 0 0
SMALL
GASTEIGER

@<TRIPOS>ATOM
      1  O17       16.5450  -11.0290   17.3850 O.co2 1246  I251246    -0.2434
      2  C15       16.0290  -12.1890   17.5590 C.2   1246  I251246     0.3883
      3  O16       16.0240  -13.1210   16.6850 O.co2 1246  I251246    -0.2434
      4  C13       15.4300  -12.4950   18.8920 C.3   1246  I251246     0.2173
      5  N14       15.0360  -11.2260   19.5370 N.pl3 1246  I251246    -0.2235
      6  C1        14.1040  -11.2530   20.5690 C.ar  1246  I251246     0.0663
      7  C6        13.7390  -10.0180   21.1330 C.ar  1246  I251246     0.0164
      8  C4        12.8250  -10.0040   22.1670 C.ar  1246  I251246     0.0093
      9  C3        12.2880  -11.2050   22.6230 C.ar  1246  I251246     0.0976
     10  C18       11.3310  -11.1520   23.6960 C.2   1246  I251246     0.4766
     11  N20       10.5560  -12.2100   24.0080 N.pl3 1246  I251246     0.2047
     12  N19       11.1600  -10.0300   24.4260 N.pl3 1246  I251246     0.2047
     13  C5        12.6460  -12.4480   22.0520 C.ar  1246  I251246     0.0093
     14  C2        13.5620  -12.4700   21.0100 C.ar  1246  I251246     0.0164
     15  C11       16.4540  -13.2680   19.6640 C.ar  1246  I251246     0.0109
     16  C8        16.1850  -14.5990   19.9740 C.ar  1246  I251246     0.0348
     17  C9        17.6750  -12.6920   20.0230 C.ar  1246  I251246    -0.0061
     18  C10       18.6200  -13.4480   20.7290 C.ar  1246  I251246    -0.0194
     19  C21       19.9390  -12.8550   21.1220 C.3   1246  I251246     0.0265
     20  C22       20.8470  -12.7800   19.8860 C.3   1246  I251246     0.0050
     21  C12       18.3630  -14.7810   21.0540 C.ar  1246  I251246     0.0326
     22  C7        17.1430  -15.3350   20.6780 C.ar  1246  I251246     0.1380
     23  O23       16.8690  -16.6440   20.9900 O.3   1246  I251246    -0.4754
     24  C24       16.8590  -17.5080   19.8450 C.3   1246  I251246     0.2065
     25  C25       16.3140  -18.9300   20.0980 C.3   1246  I251246     0.0551
     26  C26       15.7160  -19.0870   21.5040 C.3   1246  I251246     0.0051
     27  C27       15.1940  -19.1950   19.0880 C.3   1246  I251246     0.0051
     28  C28       17.4000  -19.9950   19.8570 C.3   1246  I251246     0.0757
     29  N29       18.6870  -19.7320   20.5420 N.3   1246  I251246    -0.2702
     30  C31       19.8060  -19.7180   19.5710 C.3   1246  I251246     0.0897
     31  C30       18.9460  -20.7440   21.5840 C.3   1246  I251246     0.0897
@<TRIPOS>BOND
     1     3     2   ar
     2     1     2   ar
     3     2     4    1
     4     4     5    1
     5     4    15    1
     6    27    25    1
     7     5     6    1
     8    30    29    1
     9    15    16   ar
    10    15    17   ar
    11    24    25    1
    12    24    23    1
    13    28    25    1
    14    28    29    1
    15    20    19    1
    16    16    22   ar
    17    17    18   ar
    18    25    26    1
    19    29    31    1
    20     6    14   ar
    21     6     7   ar
    22    22    23    1
    23    22    21   ar
    24    18    21   ar
    25    18    19    1
    26    14    13   ar
    27     7     8   ar
    28    13     9   ar
    29     8     9   ar
    30     9    10    1
    31    10    11    2
    32    10    12    1
