@<TRIPOS>MOLECULE
2v3i_XX6_A_1.pdb
 25 27 0 0 0
SMALL
GASTEIGER

@<TRIPOS>ATOM
      1  O4        28.3860   57.8220   86.4110 O.3   501  XX6501     -0.2188
      2  C19       29.1010   58.5040   87.3740 C.3   501  XX6501      0.2020
      3  C18       28.1640   58.8720   88.4990 C.3   501  XX6501      0.1386
      4  C20       28.6240   60.2930   88.7630 C.3   501  XX6501      0.2020
      5  O3        27.6500   61.1070   89.3860 O.3   501  XX6501     -0.2188
      6  N         28.3400   58.1270   89.7900 N.3   501  XX6501     -0.2113
      7  C17       27.6290   56.8310   90.1450 C.3   501  XX6501      0.1255
      8  C16       26.1630   56.7710   89.8100 C.3   501  XX6501      0.2126
      9  O2        26.0970   56.2970   88.4680 O.3   501  XX6501     -0.2176
     10  C15       25.4750   55.7780   90.7160 C.3   501  XX6501      0.2395
     11  O1        24.1640   55.5140   90.2580 O.3   501  XX6501     -0.4727
     12  C10       23.4070   54.6530   90.9700 C.ar  501  XX6501      0.1386
     13  C5        22.1960   54.2700   90.3810 C.ar  501  XX6501      0.0340
     14  C6        21.8830   54.7380   89.0890 C.ar  501  XX6501      0.0030
     15  C1        20.7370   54.3430   88.4450 C.ar  501  XX6501      0.0001
     16  C2        19.8990   53.4510   89.0880 C.ar  501  XX6501      0.0000
     17  C3        20.1740   52.9650   90.3670 C.ar  501  XX6501      0.0001
     18  C4        21.3610   53.3550   91.0130 C.ar  501  XX6501      0.0029
     19  C7        21.6750   52.9100   92.3010 C.ar  501  XX6501      0.0002
     20  C11       20.8210   51.9980   92.9720 C.ar  501  XX6501      0.0000
     21  C12       21.1930   51.5670   94.2460 C.ar  501  XX6501      0.0000
     22  C13       22.3600   51.9870   94.8680 C.ar  501  XX6501      0.0000
     23  C14       23.1930   52.8720   94.1980 C.ar  501  XX6501      0.0001
     24  C8        22.8680   53.3230   92.9090 C.ar  501  XX6501      0.0030
     25  C9        23.7300   54.2150   92.2490 C.ar  501  XX6501      0.0369
@<TRIPOS>BOND
     1     1     2    1
     2     2     3    1
     3    15    16   ar
     4    15    14   ar
     5     9     8    1
     6     3     4    1
     7     3     6    1
     8     4     5    1
     9    16    17   ar
    10    14    13   ar
    11     6     7    1
    12     8     7    1
    13     8    10    1
    14    11    10    1
    15    11    12    1
    16    17    18   ar
    17    13    12   ar
    18    13    18   ar
    19    12    25   ar
    20    18    19   ar
    21    25    24   ar
    22    19    24   ar
    23    19    20   ar
    24    24    23   ar
    25    20    21   ar
    26    23    22   ar
    27    21    22   ar
