@<TRIPOS>MOLECULE
2v3k_SAM_A_1.pdb
 27 29 0 0 0
SMALL
GASTEIGER

@<TRIPOS>ATOM
      1  N         23.7160    8.7200   41.0890 N.3   1254  SAM1254    -0.1208
      2  CA        22.3250    9.1500   41.4300 C.3   1254  SAM1254     0.1952
      3  C         21.6580    8.1500   42.3690 C.2   1254  SAM1254     0.3819
      4  O         20.8350    8.5030   43.2400 O.co2 1254  SAM1254    -0.2441
      5  OXT       21.9320    6.9480   42.2770 O.co2 1254  SAM1254    -0.2441
      6  CB        21.5010    9.3210   40.1570 C.3   1254  SAM1254     0.0414
      7  CG        20.1570    9.9950   40.3670 C.3   1254  SAM1254     0.0503
      8  SD        20.1270   11.6620   41.0980 S.3   1254  SAM1254    -0.1761
      9  CE        18.3650   11.7060   41.5270 C.3   1254  SAM1254     0.0590
     10  C5'       20.1770   12.6220   39.5510 C.3   1254  SAM1254     0.0806
     11  C4'       21.4410   13.5090   39.3760 C.3   1254  SAM1254     0.1622
     12  O4'       21.4590   14.6400   40.2420 O.3   1254  SAM1254    -0.3153
     13  C3'       22.7570   12.8250   39.6670 C.3   1254  SAM1254     0.2168
     14  O3'       23.1790   11.9790   38.6180 O.3   1254  SAM1254    -0.2175
     15  C2'       23.6990   13.9620   39.9860 C.3   1254  SAM1254     0.2569
     16  O2'       24.1560   14.5560   38.7920 O.3   1254  SAM1254    -0.2130
     17  C1'       22.7770   14.9650   40.6580 C.3   1254  SAM1254     0.3185
     18  N9        22.8310   14.9120   42.1370 N.pl3 1254  SAM1254    -0.1439
     19  C8        22.0450   14.1770   43.0340 C.3   1254  SAM1254     0.3377
     20  N7        22.4960   14.4590   44.3030 N.2   1254  SAM1254    -0.2095
     21  C5        23.5180   15.3800   44.2150 C.2   1254  SAM1254     0.2526
     22  C6        24.3390   16.0380   45.1610 C.2   1254  SAM1254     0.4393
     23  N6        24.2380   15.8600   46.4940 N.pl3 1254  SAM1254     0.2180
     24  N1        25.3170   16.8890   44.6990 N.2   1254  SAM1254     0.0021
     25  C2        25.5240   17.1170   43.3390 C.3   1254  SAM1254     0.5254
     26  N3        24.7180   16.4880   42.4320 N.2   1254  SAM1254    -0.0055
     27  C4        23.7560   15.6190   42.8590 C.2   1254  SAM1254     0.3518
@<TRIPOS>BOND
     1    14    13    1
     2    16    15    1
     3    11    10    1
     4    11    13    1
     5    11    12    1
     6    10     8    1
     7    13    15    1
     8    15    17    1
     9     6     7    1
    10     6     2    1
    11    12    17    1
    12     7     8    1
    13    17    18    1
    14     1     2    1
    15     8     9    1
    16     2     3    1
    17    18    27    1
    18    18    19    1
    19     5     3   ar
    20     3     4   ar
    21    26    27    2
    22    26    25    1
    23    27    21    1
    24    19    20    1
    25    25    24    1
    26    21    20    2
    27    21    22    1
    28    24    22    2
    29    22    23    1
