@<TRIPOS>MOLECULE
2v3o_I26_H_1.pdb
 32 33 0 0 0
SMALL
GASTEIGER

@<TRIPOS>ATOM
      1  O17       15.9270  -14.0820   17.7970 O.co2 1246  I261246    -0.2434
      2  C15       15.5900  -12.9160   18.1830 C.2   1246  I261246     0.3884
      3  O16       15.0290  -12.0450   17.4640 O.co2 1246  I261246    -0.2434
      4  C13       15.9180  -12.5870   19.6060 C.3   1246  I261246     0.2195
      5  N14       15.5070  -11.2820   20.1570 N.pl3 1246  I261246    -0.2234
      6  C1        14.3800  -11.2490   20.9830 C.ar  1246  I261246     0.0663
      7  C6        13.5980  -12.4020   21.2030 C.ar  1246  I261246     0.0164
      8  C4        12.4890  -12.3300   22.0390 C.ar  1246  I261246     0.0093
      9  C3        12.1560  -11.0970   22.6140 C.ar  1246  I261246     0.0976
     10  C18       11.0380  -11.0150   23.5310 C.2   1246  I261246     0.4766
     11  N20       10.2830  -12.1000   23.8380 N.pl3 1246  I261246     0.2047
     12  N19       10.7800   -9.8810   24.2370 N.pl3 1246  I261246     0.2047
     13  C5        12.9480   -9.9550   22.3970 C.ar  1246  I261246     0.0093
     14  C2        14.0470  -10.0100   21.5660 C.ar  1246  I261246     0.0164
     15  C11       17.4120  -12.7040   19.8940 C.ar  1246  I261246     0.0384
     16  C8        17.9030  -13.0180   21.1740 C.ar  1246  I261246     0.1719
     17  C9        18.3850  -12.5010   18.8960 C.ar  1246  I261246    -0.0039
     18  C10       19.7720  -12.6280   19.2020 C.ar  1246  I261246    -0.0193
     19  C21       20.8460  -12.4130   18.1910 C.3   1246  I261246     0.0265
     20  C22       20.4010  -12.4520   16.7290 C.3   1246  I261246     0.0050
     21  C12       20.2230  -12.9570   20.4900 C.ar  1246  I261246     0.0350
     22  C7        19.2710  -13.1630   21.4670 C.ar  1246  I261246     0.1652
     23  O23       19.6330  -13.4800   22.7670 O.3   1246  I261246    -0.4732
     24  C24       20.9390  -14.0180   22.9900 C.3   1246  I261246     0.2066
     25  C25       21.0360  -14.4400   24.4710 C.3   1246  I261246     0.0551
     26  C26       20.8060  -13.2590   25.4240 C.3   1246  I261246     0.0051
     27  C27       22.4510  -14.9580   24.7200 C.3   1246  I261246     0.0051
     28  C28       19.9680  -15.4740   24.8920 C.3   1246  I261246     0.0757
     29  N29       19.4400  -16.4090   23.8880 N.3   1246  I261246    -0.2702
     30  C31       19.4270  -17.7590   24.4920 C.3   1246  I261246     0.0897
     31  C30       18.0470  -16.0670   23.5090 C.3   1246  I261246     0.0897
     32  F20       17.0660  -13.2350   22.2160 F     1246  I261246    -0.2012
@<TRIPOS>BOND
     1    20    19    1
     2     3     2   ar
     3     1     2   ar
     4     2     4    1
     5    19    18    1
     6    17    18   ar
     7    17    15   ar
     8    18    21   ar
     9     4    15    1
    10     4     5    1
    11    15    16   ar
    12     5     6    1
    13    21    22   ar
    14     6     7   ar
    15     6    14   ar
    16    16    22   ar
    17    16    32    1
    18     7     8   ar
    19    22    23    1
    20    14    13   ar
    21     8     9   ar
    22    13     9   ar
    23     9    10    1
    24    23    24    1
    25    24    25    1
    26    31    29    1
    27    10    11    2
    28    10    12    1
    29    29    30    1
    30    29    28    1
    31    25    27    1
    32    25    28    1
    33    25    26    1
