@<TRIPOS>MOLECULE
2v3r_XX7_A_1.pdb
 25 27 0 0 0
SMALL
GASTEIGER

@<TRIPOS>ATOM
      1  O4        27.7450   61.3210   89.4910 O.3   501  XX7501     -0.2188
      2  C19       28.8050   60.6500   88.7630 C.3   501  XX7501      0.2020
      3  C18       28.3290   59.2760   88.2870 C.3   501  XX7501      0.1386
      4  C20       29.1280   58.7800   87.0910 C.3   501  XX7501      0.2020
      5  O3        28.6460   57.5060   86.6480 O.3   501  XX7501     -0.2188
      6  N         28.4120   58.2890   89.3990 N.3   501  XX7501     -0.2113
      7  C17       27.2770   57.3220   89.4260 C.3   501  XX7501      0.1255
      8  O2        28.4920   55.2270   89.6550 O.3   501  XX7501     -0.2176
      9  C15       26.3690   55.4310   90.7680 C.3   501  XX7501      0.2395
     10  O1        25.5830   55.3550   89.6020 O.3   501  XX7501     -0.4727
     11  C10       24.2580   54.9880   89.6500 C.ar  501  XX7501      0.1386
     12  C5        23.4710   55.3090   88.5400 C.ar  501  XX7501      0.0340
     13  C6        24.0400   55.9610   87.4410 C.ar  501  XX7501      0.0030
     14  C1        23.2760   56.3290   86.3380 C.ar  501  XX7501      0.0001
     15  C2        21.9210   56.0190   86.3160 C.ar  501  XX7501      0.0000
     16  C3        21.3470   55.3520   87.3930 C.ar  501  XX7501      0.0001
     17  C4        22.1050   54.9850   88.5170 C.ar  501  XX7501      0.0029
     18  C7        21.5580   54.3210   89.6190 C.ar  501  XX7501      0.0002
     19  C11       20.2150   53.9320   89.6330 C.ar  501  XX7501      0.0000
     20  C12       19.6910   53.2710   90.7330 C.ar  501  XX7501      0.0000
     21  C13       20.4890   52.9640   91.8240 C.ar  501  XX7501      0.0000
     22  C14       21.8420   53.3230   91.8160 C.ar  501  XX7501      0.0001
     23  C8        22.3640   53.9950   90.7250 C.ar  501  XX7501      0.0030
     24  C9        23.7230   54.3600   90.7500 C.ar  501  XX7501      0.0369
     25  C16       27.6350   56.1450   90.3480 C.3   501  XX7501      0.2126
@<TRIPOS>BOND
     1    15    14   ar
     2    15    16   ar
     3    14    13   ar
     4     5     4    1
     5     4     3    1
     6    16    17   ar
     7    13    12   ar
     8     3     2    1
     9     3     6    1
    10    17    12   ar
    11    17    18   ar
    12    12    11   ar
    13     2     1    1
    14     6     7    1
    15     7    25    1
    16    10    11    1
    17    10     9    1
    18    18    19   ar
    19    18    23   ar
    20    19    20   ar
    21    11    24   ar
    22     8    25    1
    23    25     9    1
    24    23    24   ar
    25    23    22   ar
    26    20    21   ar
    27    22    21   ar
