@<TRIPOS>MOLECULE
2v3s_III_C_1.pdb
 49 49 0 0 0
SMALL
GASTEIGER

@<TRIPOS>ATOM
      1  N         -4.3740  -38.0390    5.1040 N.3   1003  GLY1003    -0.1210
      2  CA        -4.2260  -37.2500    3.8520 C.3   1003  GLY1003     0.1956
      3  C         -2.7750  -37.0220    3.4840 C.2   1003  GLY1003     0.2612
      4  O         -1.9450  -37.9210    3.6170 O.2   1003  GLY1003    -0.2717
      5  N         -2.4480  -35.8130    3.0280 N.am  1004  ARG1004    -0.1965
      6  CA        -1.0780  -35.5360    2.6040 C.3   1004  ARG1004     0.1729
      7  C         -0.1370  -35.1970    3.7710 C.2   1004  ARG1004     0.2616
      8  O          1.0810  -35.1660    3.5990 O.2   1004  ARG1004    -0.2715
      9  CB        -1.0360  -34.4380    1.5370 C.3   1004  ARG1004     0.0348
     10  CG        -1.0180  -33.0330    2.0930 C.3   1004  ARG1004     0.0492
     11  CD        -0.4040  -32.0470    1.1000 C.3   1004  ARG1004     0.2205
     12  NE        -1.3260  -31.7630    0.0100 N.pl3 1004  ARG1004    -0.0865
     13  CZ        -0.9640  -31.4670   -1.2340 C.cat 1004  ARG1004     0.5346
     14  NH1        0.3140  -31.4420   -1.5820 N.pl3 1004  ARG1004     0.1354
     15  NH2       -1.8940  -31.2150   -2.1360 N.pl3 1004  ARG1004     0.1354
     16  N         -0.7140  -34.9560    4.9500 N.am  1005  PHE1005    -0.1960
     17  CA         0.0530  -34.4600    6.0830 C.3   1005  PHE1005     0.1771
     18  C          0.4040  -35.5600    7.0540 C.2   1005  PHE1005     0.2619
     19  O         -0.4450  -36.3830    7.3770 O.2   1005  PHE1005    -0.2715
     20  CB        -0.7330  -33.3780    6.8140 C.3   1005  PHE1005     0.0574
     21  CG        -1.2200  -32.2930    5.9060 C.ar  1005  PHE1005    -0.0200
     22  CD1       -2.5870  -32.1740    5.6050 C.ar  1005  PHE1005    -0.0042
     23  CD2       -0.3030  -31.4020    5.3370 C.ar  1005  PHE1005    -0.0042
     24  CE1       -3.0440  -31.1650    4.7420 C.ar  1005  PHE1005    -0.0003
     25  CE2       -0.7490  -30.3960    4.4590 C.ar  1005  PHE1005    -0.0003
     26  CZ        -2.1000  -30.2830    4.1550 C.ar  1005  PHE1005    -0.0000
     27  N          1.6580  -35.5520    7.4930 N.am  1006  GLN1006    -0.1963
     28  CA         2.1460  -36.4090    8.5720 C.3   1006  GLN1006     0.1733
     29  C          2.4760  -35.5510    9.7960 C.2   1006  GLN1006     0.2616
     30  O          3.3810  -34.7070    9.7450 O.2   1006  GLN1006    -0.2715
     31  CB         3.3780  -37.1930    8.1270 C.3   1006  GLN1006     0.0408
     32  CG         3.0940  -38.3530    7.1920 C.3   1006  GLN1006     0.0908
     33  CD         1.9650  -39.2400    7.6860 C.2   1006  GLN1006     0.2608
     34  OE1        0.9690  -39.4380    6.9900 O.2   1006  GLN1006    -0.2717
     35  NE2        2.1130  -39.7710    8.8990 N.am  1006  GLN1006    -0.0878
     36  N          1.7120  -35.7700   10.8710 N.am  1007  VAL1007    -0.1963
     37  CA         1.9240  -35.1400   12.1840 C.3   1007  VAL1007     0.1727
     38  C          2.2240  -36.3520   13.1100 C.2   1007  VAL1007     0.2616
     39  O          1.4430  -37.2970   13.1040 O.2   1007  VAL1007    -0.2715
     40  CB         0.6170  -34.4510   12.6890 C.3   1007  VAL1007     0.0290
     41  CG1       -0.2150  -33.8820   11.5420 C.3   1007  VAL1007     0.0023
     42  CG2        0.9110  -33.3760   13.7290 C.3   1007  VAL1007     0.0023
     43  N          3.2970  -36.3690   13.9050 N.am  1008  THR1008    -0.1951
     44  CA         4.2730  -35.3050   14.1210 C.3   1008  THR1008     0.1897
     45  C          5.6720  -35.9160   14.0620 C.2   1008  THR1008     0.2313
     46  O          6.6280  -35.2890   13.5970 O.2   1008  THR1008    -0.2863
     47  CB         4.0900  -34.6220   15.5280 C.3   1008  THR1008     0.1794
     48  OG1        4.7750  -33.3740   15.5480 O.3   1008  THR1008    -0.2208
     49  CG2        4.6480  -35.4770   16.6670 C.3   1008  THR1008     0.0378
@<TRIPOS>BOND
     1    15    13    1
     2    14    13    1
     3    13    12    2
     4    12    11    1
     5    11    10    1
     6     9    10    1
     7     9     6    1
     8     6     5    1
     9     6     7    1
    10     5     3   am
    11     3     4    2
    12     3     2    1
    13     8     7    2
    14     7    16   am
    15     2     1    1
    16    26    25   ar
    17    26    24   ar
    18    25    23   ar
    19    24    22   ar
    20    16    17    1
    21    23    21   ar
    22    22    21   ar
    23    21    20    1
    24    17    20    1
    25    17    18    1
    26    34    33    2
    27    18    19    2
    28    18    27   am
    29    32    33    1
    30    32    31    1
    31    27    28    1
    32    33    35   am
    33    31    28    1
    34    28    29    1
    35    30    29    2
    36    29    36   am
    37    36    37    1
    38    41    40    1
    39    37    40    1
    40    37    38    1
    41    40    42    1
    42    39    38    2
    43    38    43   am
    44    46    45    2
    45    43    44    1
    46    45    44    1
    47    44    47    1
    48    47    48    1
    49    47    49    1
