@<TRIPOS>MOLECULE
2v3v_MGD_A_1.pdb
 47 52 0 0 0
SMALL
GASTEIGER

@<TRIPOS>ATOM
      1  PB        63.3810   17.7510   -2.7090 P.3   811  MGD811      0.2189
      2  O1B       63.2120   18.9400   -3.6390 O.2   811  MGD811     -0.5170
      3  O2B       63.9180   17.9560   -1.2920 O.3   811  MGD811     -0.4371
      4  O3B       64.2760   16.6490   -3.4970 O.3   811  MGD811     -0.2703
      5  O3A       65.9940   14.8750   -3.5390 O.3   811  MGD811     -0.3109
      6  PA        64.4100   15.0340   -3.3010 P.3   811  MGD811      0.2189
      7  O1A       63.7570   14.3390   -4.4310 O.2   811  MGD811     -0.5170
      8  O2A       64.0600   14.6440   -1.8850 O.3   811  MGD811     -0.4371
      9  O5'       61.9480   17.0170   -2.5470 O.3   811  MGD811     -0.3112
     10  C5'       61.0860   17.1900   -1.4070 C.3   811  MGD811      0.1813
     11  C4'       59.6740   17.2280   -2.0030 C.3   811  MGD811      0.1799
     12  O4'       58.6410   17.2700   -1.0240 O.3   811  MGD811     -0.3326
     13  C3'       59.4390   18.4380   -2.8940 C.3   811  MGD811      0.2158
     14  O3'       58.9290   17.9330   -4.1370 O.3   811  MGD811     -0.2175
     15  C2'       58.4440   19.2890   -2.1180 C.3   811  MGD811      0.2310
     16  O2'       57.5650   20.0320   -2.9420 O.3   811  MGD811     -0.2158
     17  C1'       57.6490   18.2390   -1.3740 C.3   811  MGD811      0.2293
     18  N9        57.0940   18.6860   -0.0960 N.pl3 811  MGD811     -0.2354
     19  C8        57.4190   19.7830    0.6180 C.3   811  MGD811      0.2246
     20  N7        56.7300   19.8250    1.7820 N.2   811  MGD811     -0.2322
     21  C5        55.9580   18.7170    1.8350 C.2   811  MGD811      0.2182
     22  C6        54.9840   18.1080    2.7820 C.1   811  MGD811      0.2372
     23  O6        54.6740   18.6350    3.8690 O.2   811  MGD811     -0.2069
     24  N1        54.4320   16.9400    2.4400 N.2   811  MGD811     -0.2485
     25  C2        54.7340   16.3350    1.2830 C.1   811  MGD811      0.2531
     26  N2        54.1340   15.1600    1.0130 N.pl3 811  MGD811     -0.0226
     27  N3        55.5920   16.8200    0.3680 N.2   811  MGD811     -0.3074
     28  C4        56.2230   17.9790    0.5940 C.2   811  MGD811      0.2300
     29  C10       66.9280   14.9030   -2.4340 C.3   811  MGD811      0.1837
     30  C11       68.0550   13.9320   -2.6890 C.3   811  MGD811      0.1762
     31  O11       68.5530   14.2780   -3.9800 O.3   811  MGD811     -0.3271
     32  C12       69.1810   14.0550   -1.6840 C.2   811  MGD811      0.0473
     33  S12       68.8270   14.4500   -0.0880 S.2   811  MGD811     -0.0526
     34  C13       70.4580   13.8680   -2.0440 C.2   811  MGD811      0.0449
     35  S13       71.7400   13.9740   -0.9130 S.2   811  MGD811     -0.0530
     36  C14       70.8170   13.5740   -3.4850 C.3   811  MGD811      0.1850
     37  N15       71.6800   14.6300   -3.9690 N.2   811  MGD811     -0.2411
     38  C16       71.9710   14.6670   -5.2980 C.2   811  MGD811      0.2467
     39  C17       73.2490   15.1720   -5.8300 C.1   811  MGD811      0.2441
     40  O17       74.1380   15.6020   -5.0720 O.2   811  MGD811     -0.2063
     41  N18       73.4590   15.1470   -7.1540 N.2   811  MGD811     -0.2474
     42  C19       72.5350   14.6950   -8.0210 C.1   811  MGD811      0.2608
     43  N19       72.8150   14.7060   -9.3610 N.pl3 811  MGD811     -0.0220
     44  N20       71.3430   14.1980   -7.6060 N.2   811  MGD811     -0.2682
     45  C21       71.0040   14.1490   -6.2830 C.1   811  MGD811      0.1293
     46  N22       69.8140   13.6650   -5.8480 N.2   811  MGD811     -0.1763
     47  C23       69.5890   13.4050   -4.4170 C.3   811  MGD811      0.2573
@<TRIPOS>BOND
     1    43    42    1
     2    42    44    2
     3    42    41    2
     4    44    45    2
     5    41    39    2
     6    45    46    2
     7    45    38    1
     8    46    47    1
     9    39    38    1
    10    39    40    2
    11    38    37    2
    12     7     6    2
    13    47    31    1
    14    47    36    1
    15    14    13    1
    16    31    30    1
    17    37    36    1
    18     2     1    2
    19     5     6    1
    20     5    29    1
    21     4     6    1
    22     4     1    1
    23    36    34    1
    24     6     8    1
    25    16    15    1
    26    13    15    1
    27    13    11    1
    28     1     9    1
    29     1     3    1
    30    30    29    1
    31    30    32    1
    32     9    10    1
    33    15    17    1
    34    34    32    1
    35    34    35    2
    36    11    10    1
    37    11    12    1
    38    32    33    2
    39    17    12    1
    40    17    18    1
    41    18    28    1
    42    18    19    1
    43    27    28    2
    44    27    25    2
    45    28    21    1
    46    19    20    1
    47    26    25    1
    48    25    24    2
    49    20    21    2
    50    21    22    1
    51    24    22    2
    52    22    23    2
