@<TRIPOS>MOLECULE
2v3w_TPP_A_1.pdb
 26 27 0 0 0
SMALL
GASTEIGER

@<TRIPOS>ATOM
      1  N1'       24.1400  -23.6610  -18.6650 N.2   1531  TPP1531    -0.1861
      2  C2'       25.5080  -23.7460  -18.4180 C.1   1531  TPP1531     0.0663
      3  CM2       26.2130  -25.0600  -18.4510 C.3   1531  TPP1531     0.1291
      4  N3'       26.2410  -22.6120  -18.1400 N.2   1531  TPP1531    -0.3368
      5  C4'       25.6200  -21.3810  -18.1020 C.2   1531  TPP1531     0.2292
      6  N4'       26.3600  -20.3070  -17.8360 N.pl3 1531  TPP1531    -0.0925
      7  C5'       24.2420  -21.2880  -18.3320 C.2   1531  TPP1531     0.0654
      8  C6'       23.5100  -22.4330  -18.6300 C.2   1531  TPP1531     0.1115
      9  C7'       23.5290  -19.9590  -18.3010 C.3   1531  TPP1531     0.1237
     10  N3        23.2770  -19.3580  -16.9990 N.pl3 1531  TPP1531    -0.2970
     11  C2        24.0810  -18.3850  -16.4240 C.3   1531  TPP1531     0.1543
     12  S1        23.5630  -17.8500  -14.9960 S.3   1531  TPP1531    -0.0951
     13  C5        22.2930  -18.8160  -15.0530 C.2   1531  TPP1531     0.0164
     14  C4        22.2020  -19.6000  -16.2020 C.2   1531  TPP1531     0.0279
     15  CM4       21.0930  -20.5750  -16.4840 C.3   1531  TPP1531     0.0473
     16  C6        21.3880  -18.6830  -13.8600 C.3   1531  TPP1531     0.0661
     17  C7        21.7250  -19.6510  -12.7400 C.3   1531  TPP1531     0.1544
     18  O7        20.7750  -19.4470  -11.7190 O.3   1531  TPP1531    -0.3134
     19  PA        21.0990  -19.6920  -10.1700 P.3   1531  TPP1531     0.2230
     20  O1A       22.2380  -20.6580  -10.0210 O.2   1531  TPP1531    -0.5169
     21  O2A       19.8430  -20.1390   -9.4550 O.3   1531  TPP1531    -0.4370
     22  O3A       21.6470  -18.2810   -9.6250 O.3   1531  TPP1531    -0.2261
     23  PB        20.9130  -16.8530   -9.6990 P.3   1531  TPP1531     0.5373
     24  O1B       19.4280  -16.9600   -9.4020 O.3   1531  TPP1531    -0.1143
     25  O2B       21.6180  -16.0390   -8.6350 O.3   1531  TPP1531    -0.1143
     26  O3B       21.0730  -16.2160  -11.0530 O.2   1531  TPP1531    -0.2221
@<TRIPOS>BOND
     1     1     8    1
     2     1     2    2
     3     8     7    2
     4     3     2    1
     5     2     4    2
     6     7     9    1
     7     7     5    1
     8     9    10    1
     9     4     5    2
    10     5     6    1
    11    10    11    1
    12    10    14    1
    13    15    14    1
    14    11    12    1
    15    14    13    2
    16    13    12    1
    17    13    16    1
    18    16    17    1
    19    17    18    1
    20    18    19    1
    21    26    23    2
    22    19    20    2
    23    19    22    1
    24    19    21    1
    25    23    22    1
    26    23    24    1
    27    23    25    1
