@<TRIPOS>MOLECULE
2v3x_III_B_1.pdb
 23 23 0 0 0
SMALL
GASTEIGER

@<TRIPOS>ATOM
      1  N         64.6530   50.9880   53.6060 N.3     0  VAL0       -0.1231
      2  CA        63.4280   50.5860   54.3750 C.3     0  VAL0        0.1678
      3  C         62.2380   50.2780   53.4270 C.2     0  VAL0        0.2434
      4  O         62.0000   51.0240   52.5080 O.2     0  VAL0       -0.2733
      5  CB        63.0800   51.6770   55.4000 C.3     0  VAL0        0.0265
      6  CG1       62.9320   53.0410   54.7170 C.3     0  VAL0        0.0020
      7  CG2       61.8420   51.3000   56.2100 C.3     0  VAL0        0.0020
      8  N         61.4920   49.1620   53.6490 N.am    1  PRO1       -0.2718
      9  CA        60.4190   48.7610   52.7070 C.3     1  PRO1        0.1535
     10  C         59.2360   49.7200   52.5390 C.2     1  PRO1        0.2599
     11  O         58.8870   50.4550   53.4690 O.2     1  PRO1       -0.2715
     12  CB        59.9180   47.4340   53.2800 C.3     1  PRO1        0.0310
     13  CG        61.0420   46.9440   54.1060 C.3     1  PRO1        0.0237
     14  CD        61.6460   48.1600   54.7190 C.3     1  PRO1        0.0939
     15  N         58.6330   49.6740   51.3500 N.am    2  LEU2       -0.1942
     16  CA        57.3940   50.3960   51.0440 C.3     2  LEU2        0.1978
     17  C         56.2940   49.3890   50.6850 C.2     2  LEU2        0.3842
     18  O         55.1680   49.4350   51.1910 O.co2   2  LEU2       -0.2437
     19  CB        57.6200   51.3800   49.8820 C.3     2  LEU2        0.0333
     20  CG        56.4460   52.2820   49.4920 C.3     2  LEU2        0.0023
     21  CD1       56.0810   53.2060   50.6320 C.3     2  LEU2        0.0001
     22  CD2       56.7330   53.0760   48.2390 C.3     2  LEU2        0.0001
     23  OXT       56.4800   48.4930   49.8750 O.co2   2  LEU2       -0.2437
@<TRIPOS>BOND
     1    22    20    1
     2    20    19    1
     3    20    21    1
     4    23    17   ar
     5    19    16    1
     6    17    16    1
     7    17    18   ar
     8    16    15    1
     9    15    10   am
    10     4     3    2
    11    10     9    1
    12    10    11    2
    13     9    12    1
    14     9     8    1
    15    12    13    1
    16     3     8   am
    17     3     2    1
    18     1     2    1
    19     8    14    1
    20    13    14    1
    21     2     5    1
    22     6     5    1
    23     5     7    1
