@<TRIPOS>MOLECULE
2v3y_III_B_1.pdb
 16 16 0 0 0
SMALL
GASTEIGER

@<TRIPOS>ATOM
      1  N         60.8550   48.9960   53.4290 N.3     1  PRO1       -0.2102
      2  CA        59.9960   48.4770   52.3530 C.3     1  PRO1        0.1504
      3  C         58.7220   49.3000   52.1730 C.2     1  PRO1        0.2576
      4  O         58.2210   49.8800   53.1510 O.2     1  PRO1       -0.2718
      5  CB        59.6540   47.0660   52.8300 C.3     1  PRO1        0.0282
      6  CG        60.7910   46.6680   53.7360 C.3     1  PRO1        0.0208
      7  CD        61.4340   47.9200   54.2620 C.3     1  PRO1        0.0893
      8  N         58.2080   49.3480   50.9420 N.am    2  LEU2       -0.1944
      9  CA        56.9550   50.0660   50.6610 C.3     2  LEU2        0.1978
     10  C         55.7780   49.0930   50.5560 C.2     2  LEU2        0.3842
     11  O         54.6470   49.4170   50.9300 O.co2   2  LEU2       -0.2437
     12  CB        57.0490   50.9030   49.3670 C.3     2  LEU2        0.0333
     13  CG        57.0040   52.4430   49.4130 C.3     2  LEU2        0.0023
     14  CD1       56.5770   52.9920   48.0350 C.3     2  LEU2        0.0001
     15  CD2       56.0880   52.9960   50.5040 C.3     2  LEU2        0.0001
     16  OXT       55.9090   47.9660   50.1100 O.co2   2  LEU2       -0.2437
@<TRIPOS>BOND
     1    14    13    1
     2    12    13    1
     3    12     9    1
     4    13    15    1
     5    16    10   ar
     6    10     9    1
     7    10    11   ar
     8     9     8    1
     9     8     3   am
    10     3     2    1
    11     3     4    2
    12     2     5    1
    13     2     1    1
    14     5     6    1
    15     1     7    1
    16     6     7    1
