@<TRIPOS>MOLECULE
2v3z_III_B_1.pdb
 23 23 0 0 0
SMALL
GASTEIGER

@<TRIPOS>ATOM
      1  N         64.4420   50.0410   52.3610 N.3     0  VAL0       -0.1231
      2  CA        63.4900   50.1930   53.5140 C.3     0  VAL0        0.1678
      3  C         62.1250   50.0640   52.9070 C.2     0  VAL0        0.2434
      4  O         61.7400   50.8810   52.0800 O.2     0  VAL0       -0.2733
      5  CB        63.7230   51.5050   54.3080 C.3     0  VAL0        0.0265
      6  CG1       63.7250   52.7110   53.4010 C.3     0  VAL0        0.0020
      7  CG2       62.6850   51.6870   55.4270 C.3     0  VAL0        0.0020
      8  N         61.4040   48.9930   53.2600 N.am    1  PRO1       -0.2718
      9  CA        60.1890   48.6380   52.5490 C.3     1  PRO1        0.1535
     10  C         59.1310   49.7300   52.5320 C.2     1  PRO1        0.2599
     11  O         58.9010   50.4110   53.5420 O.2     1  PRO1       -0.2715
     12  CB        59.6720   47.4210   53.3310 C.3     1  PRO1        0.0310
     13  CG        60.8900   46.8360   53.9360 C.3     1  PRO1        0.0237
     14  CD        61.7450   47.9860   54.2880 C.3     1  PRO1        0.0939
     15  N         58.5030   49.8550   51.3670 N.am    2  LEU2       -0.1942
     16  CA        57.2990   50.6270   51.1640 C.3     2  LEU2        0.1978
     17  C         56.1620   49.6190   50.8830 C.2     2  LEU2        0.3842
     18  O         55.0530   49.8120   51.3590 O.co2   2  LEU2       -0.2437
     19  CB        57.5050   51.5800   49.9820 C.3     2  LEU2        0.0333
     20  CG        56.4090   52.5730   49.6320 C.3     2  LEU2        0.0023
     21  CD1       56.1120   53.5200   50.7900 C.3     2  LEU2        0.0001
     22  CD2       56.8320   53.3420   48.3830 C.3     2  LEU2        0.0001
     23  OXT       56.3090   48.5740   50.2120 O.co2   2  LEU2       -0.2437
@<TRIPOS>BOND
     1    22    20    1
     2    20    19    1
     3    20    21    1
     4    19    16    1
     5    23    17   ar
     6    17    16    1
     7    17    18   ar
     8    16    15    1
     9    15    10   am
    10     4     3    2
    11     1     2    1
    12    10     9    1
    13    10    11    2
    14     9     8    1
    15     9    12    1
    16     3     8   am
    17     3     2    1
    18     8    14    1
    19    12    13    1
    20     6     5    1
    21     2     5    1
    22    13    14    1
    23     5     7    1
