@<TRIPOS>MOLECULE
2v40_GDP_A_1.pdb
 28 30 0 0 0
SMALL
GASTEIGER

@<TRIPOS>ATOM
      1  PB        53.8070   16.5690   14.8210 P.3   1457  GDP1457     0.5373
      2  O1B       54.3920   17.1280   13.5460 O.2   1457  GDP1457    -0.2221
      3  O2B       52.3110   16.5090   14.7430 O.3   1457  GDP1457    -0.1143
      4  O3B       54.3400   15.1850   15.0920 O.3   1457  GDP1457    -0.1143
      5  O3A       54.2850   17.4650   16.0580 O.3   1457  GDP1457    -0.2261
      6  PA        54.7330   19.0220   16.1140 P.3   1457  GDP1457     0.2231
      7  O1A       56.0910   19.4200   15.5940 O.2   1457  GDP1457    -0.5169
      8  O2A       53.6250   19.8970   15.5970 O.3   1457  GDP1457    -0.4370
      9  O5'       54.8660   19.0970   17.7190 O.3   1457  GDP1457    -0.3111
     10  C5'       53.7330   18.9410   18.5670 C.3   1457  GDP1457     0.1813
     11  C4'       53.7570   20.0300   19.6420 C.3   1457  GDP1457     0.1799
     12  O4'       54.7830   19.7410   20.5920 O.3   1457  GDP1457    -0.3326
     13  C3'       54.0560   21.4210   19.1220 C.3   1457  GDP1457     0.2158
     14  O3'       53.3090   22.3430   19.9310 O.3   1457  GDP1457    -0.2175
     15  C2'       55.5310   21.6190   19.4060 C.3   1457  GDP1457     0.2310
     16  O2'       55.9030   22.9790   19.6080 O.3   1457  GDP1457    -0.2158
     17  C1'       55.7090   20.8280   20.6730 C.3   1457  GDP1457     0.2293
     18  N9        57.0700   20.2700   20.7680 N.pl3 1457  GDP1457    -0.2354
     19  C8        57.7560   19.5820   19.8110 C.3   1457  GDP1457     0.2246
     20  N7        58.9700   19.2190   20.3170 N.2   1457  GDP1457    -0.2322
     21  C5        59.0410   19.6580   21.5910 C.2   1457  GDP1457     0.2182
     22  C6        60.0360   19.6140   22.6770 C.1   1457  GDP1457     0.2372
     23  O6        61.1070   19.0360   22.4330 O.2   1457  GDP1457    -0.2069
     24  N1        59.7330   20.1720   23.8760 N.2   1457  GDP1457    -0.2485
     25  C2        58.5480   20.7840   24.0830 C.1   1457  GDP1457     0.2531
     26  N2        58.2880   21.3450   25.3040 N.pl3 1457  GDP1457    -0.0226
     27  N3        57.5930   20.8720   23.1200 N.2   1457  GDP1457    -0.3074
     28  C4        57.7890   20.3460   21.8840 C.2   1457  GDP1457     0.2300
@<TRIPOS>BOND
     1     2     1    2
     2     3     1    1
     3     1     4    1
     4     1     5    1
     5     7     6    2
     6     8     6    1
     7     5     6    1
     8     6     9    1
     9     9    10    1
    10    10    11    1
    11    13    15    1
    12    13    11    1
    13    13    14    1
    14    15    16    1
    15    15    17    1
    16    11    12    1
    17    19    20    1
    18    19    18    1
    19    20    21    2
    20    12    17    1
    21    17    18    1
    22    18    28    1
    23    21    28    1
    24    21    22    1
    25    28    27    2
    26    23    22    2
    27    22    24    2
    28    27    25    2
    29    24    25    2
    30    25    26    1
