@<TRIPOS>MOLECULE
2v42_NDS_A_1.pdb
 12 11 0 0 0
SMALL
GASTEIGER

@<TRIPOS>ATOM
      1  O3        24.4570   96.4140    7.3460 O.3   1317  NDS1317    -0.3075
      2  S1        23.8630   96.9250    8.5960 S.3   1317  NDS1317    -0.1961
      3  O1        24.7100   96.4440    9.7030 O.3   1317  NDS1317    -0.3075
      4  O2        23.8520   98.3940    8.5280 O.3   1317  NDS1317    -0.3075
      5  C4        22.2910   96.4130    8.7740 C.3   1317  NDS1317     0.1031
      6  C3        21.9430   96.2110   10.2430 C.3   1317  NDS1317    -0.0007
      7  C2        20.5270   95.6470   10.4250 C.3   1317  NDS1317    -0.0715
      8  N1        20.4100   94.2440   10.9320 N.4   1317  NDS1317     0.3871
      9  C1        21.6710   93.4590   10.9480 C.3   1317  NDS1317    -0.0959
     10  C7        19.9330   94.3380   12.3270 C.3   1317  NDS1317    -0.0959
     11  C5        19.3760   93.5360   10.1200 C.3   1317  NDS1317    -0.0733
     12  C6        19.7440   93.2300    8.6670 C.3   1317  NDS1317    -0.0244
@<TRIPOS>BOND
     1     1     2    1
     2     4     2    1
     3     2     5    1
     4     2     3    1
     5    12    11    1
     6     5     6    1
     7    11     8    1
     8     6     7    1
     9     7     8    1
    10     8     9    1
    11     8    10    1
