@<TRIPOS>MOLECULE
2v45_MGD_A_1.pdb
 47 52 0 0 0
SMALL
GASTEIGER

@<TRIPOS>ATOM
      1  PB        62.8520   17.4460   -2.6780 P.3   811  MGD811      0.2189
      2  O1B       62.4780   18.6320   -3.5150 O.2   811  MGD811     -0.5170
      3  O2B       63.4610   17.6530   -1.2880 O.3   811  MGD811     -0.4371
      4  O3B       63.6720   16.3800   -3.5650 O.3   811  MGD811     -0.2703
      5  O3A       65.4460   14.5840   -3.4070 O.3   811  MGD811     -0.3109
      6  PA        63.8760   14.8030   -3.2220 P.3   811  MGD811      0.2189
      7  O1A       63.2070   14.0430   -4.3350 O.2   811  MGD811     -0.5170
      8  O2A       63.5460   14.4650   -1.7740 O.3   811  MGD811     -0.4371
      9  O5'       61.5760   16.5810   -2.2870 O.3   811  MGD811     -0.3112
     10  C5'       60.6020   17.1600   -1.4250 C.3   811  MGD811      0.1813
     11  C4'       59.2410   16.9630   -2.0380 C.3   811  MGD811      0.1799
     12  O4'       58.3200   17.0460   -0.9590 O.3   811  MGD811     -0.3326
     13  C3'       58.8700   18.1390   -2.9190 C.3   811  MGD811      0.2158
     14  O3'       58.1500   17.6840   -4.0750 O.3   811  MGD811     -0.2175
     15  C2'       58.0080   19.0410   -2.0240 C.3   811  MGD811      0.2310
     16  O2'       57.0810   19.8660   -2.7130 O.3   811  MGD811     -0.2158
     17  C1'       57.2890   17.9840   -1.2310 C.3   811  MGD811      0.2293
     18  N9        56.7860   18.4240    0.0700 N.pl3 811  MGD811     -0.2354
     19  C8        57.1030   19.4950    0.8050 C.3   811  MGD811      0.2246
     20  N7        56.3950   19.5270    1.9750 N.2   811  MGD811     -0.2322
     21  C5        55.5870   18.4580    1.9940 C.2   811  MGD811      0.2182
     22  C6        54.5750   17.8640    2.9150 C.1   811  MGD811      0.2372
     23  O6        54.2400   18.3510    4.0250 O.2   811  MGD811     -0.2069
     24  N1        53.9940   16.7410    2.5140 N.2   811  MGD811     -0.2485
     25  C2        54.2940   16.1670    1.3440 C.1   811  MGD811      0.2531
     26  N2        53.6720   15.0280    1.0460 N.pl3 811  MGD811     -0.0226
     27  N3        55.1820   16.6380    0.4420 N.2   811  MGD811     -0.3074
     28  C4        55.8560   17.7600    0.7230 C.2   811  MGD811      0.2300
     29  C10       66.4170   14.6260   -2.3670 C.3   811  MGD811      0.1837
     30  C11       67.5250   13.6890   -2.7990 C.3   811  MGD811      0.1762
     31  O11       67.9650   14.0600   -4.0960 O.3   811  MGD811     -0.3271
     32  C12       68.7110   13.7310   -1.8670 C.2   811  MGD811      0.0473
     33  S12       68.3860   14.0590   -0.2620 S.2   811  MGD811     -0.0526
     34  C13       69.9740   13.5300   -2.2800 C.2   811  MGD811      0.0449
     35  S13       71.2970   13.5510   -1.1940 S.2   811  MGD811     -0.0530
     36  C14       70.2620   13.2820   -3.7240 C.3   811  MGD811      0.1850
     37  N15       71.1430   14.3340   -4.2160 N.2   811  MGD811     -0.2411
     38  C16       71.3820   14.3690   -5.5550 C.2   811  MGD811      0.2467
     39  C17       72.6300   14.8070   -6.1530 C.1   811  MGD811      0.2441
     40  O17       73.5480   15.1410   -5.4180 O.2   811  MGD811     -0.2063
     41  N18       72.7840   14.7610   -7.4890 N.2   811  MGD811     -0.2474
     42  C19       71.8080   14.3770   -8.3260 C.1   811  MGD811      0.2608
     43  N19       72.0410   14.4120   -9.6550 N.pl3 811  MGD811     -0.0220
     44  N20       70.6120   13.9710   -7.8520 N.2   811  MGD811     -0.2682
     45  C21       70.3560   13.9110   -6.5080 C.1   811  MGD811      0.1293
     46  N22       69.1630   13.5030   -5.9900 N.2   811  MGD811     -0.1763
     47  C23       68.9850   13.1910   -4.5750 C.3   811  MGD811      0.2573
@<TRIPOS>BOND
     1    43    42    1
     2    42    44    2
     3    42    41    2
     4    44    45    2
     5    41    39    2
     6    45    46    2
     7    45    38    1
     8    39    38    1
     9    39    40    2
    10    46    47    1
    11    38    37    2
    12    47    31    1
    13    47    36    1
    14     7     6    2
    15    37    36    1
    16    31    30    1
    17    14    13    1
    18    36    34    1
    19     4     6    1
    20     4     1    1
    21     2     1    2
    22     5     6    1
    23     5    29    1
    24     6     8    1
    25    13    11    1
    26    13    15    1
    27    30    29    1
    28    30    32    1
    29    16    15    1
    30     1     9    1
    31     1     3    1
    32     9    10    1
    33    34    32    1
    34    34    35    2
    35    11    10    1
    36    11    12    1
    37    15    17    1
    38    32    33    2
    39    17    12    1
    40    17    18    1
    41    18    28    1
    42    18    19    1
    43    27    28    2
    44    27    25    2
    45    28    21    1
    46    19    20    1
    47    26    25    1
    48    25    24    2
    49    20    21    2
    50    21    22    1
    51    24    22    2
    52    22    23    2
