@<TRIPOS>MOLECULE
2v4c_KDN_A_1.pdb
 18 18 0 0 0
SMALL
GASTEIGER

@<TRIPOS>ATOM
      1  C1         9.1070   -8.9370  -11.8990 C.3   1310  KDN1310     0.3156
      2  C10        7.8190   -9.2120  -11.0820 C.2   1310  KDN1310     0.4179
      3  C2        10.2250   -8.4060  -10.9780 C.3   1310  KDN1310     0.1064
      4  C3        11.4100   -7.9680  -11.8580 C.3   1310  KDN1310     0.1902
      5  C4        10.9030   -6.9280  -12.8670 C.3   1310  KDN1310     0.2118
      6  C5         9.7410   -7.5290  -13.6940 C.3   1310  KDN1310     0.1838
      7  C6         9.0850   -6.5600  -14.6700 C.3   1310  KDN1310     0.2143
      8  C7         7.9350   -7.2870  -15.4000 C.3   1310  KDN1310     0.2174
      9  C9         7.2510   -6.3430  -16.4200 C.3   1310  KDN1310     0.2175
     10  O4        11.9810   -6.5060  -13.7560 O.3   1310  KDN1310    -0.2177
     11  O9         7.2320   -8.2000  -10.5610 O.co2 1310  KDN1310    -0.2401
     12  O8         7.4230  -10.4110  -11.0580 O.co2 1310  KDN1310    -0.2401
     13  O3        12.4480   -7.3900  -11.0510 O.3   1310  KDN1310    -0.2201
     14  O5         8.7080   -7.9960  -12.8110 O.3   1310  KDN1310    -0.3212
     15  O6         8.5440   -5.3930  -14.0030 O.3   1310  KDN1310    -0.2176
     16  O7         8.4160   -8.4930  -16.0420 O.3   1310  KDN1310    -0.2175
     17  O10        8.2090   -5.8410  -17.3860 O.3   1310  KDN1310    -0.2175
     18  O1         9.5490  -10.1240  -12.5470 O.3   1310  KDN1310    -0.1830
@<TRIPOS>BOND
     1    17     9    1
     2     9     8    1
     3    16     8    1
     4     8     7    1
     5     7    15    1
     6     7     6    1
     7    10     5    1
     8     6     5    1
     9     6    14    1
    10     5     4    1
    11    14     1    1
    12    18     1    1
    13     1     2    1
    14     1     3    1
    15     4    13    1
    16     4     3    1
    17     2    12   ar
    18     2    11   ar
