@<TRIPOS>MOLECULE
2v4l_ABJ_A_1.pdb
 20 22 0 0 0
SMALL
GASTEIGER

@<TRIPOS>ATOM
      1  C19       45.9420   17.1890   31.8980 C.3   2093  ABJ2093     0.0532
      2  C14       47.0070   16.1070   31.7710 C.3   2093  ABJ2093     0.1876
      3  C20       47.7740   16.0180   33.0910 C.3   2093  ABJ2093     0.0532
      4  N11       46.3810   14.7990   31.4890 N.pl3 2093  ABJ2093    -0.0839
      5  N15       45.2170   14.5430   31.8100 N.2   2093  ABJ2093    -0.0914
      6  C7        46.9740   13.7400   30.9120 C.2   2093  ABJ2093     0.3405
      7  N3        48.2030   13.5120   30.4000 N.2   2093  ABJ2093    -0.0088
      8  C6        48.5080   12.3460   29.8640 C.3   2093  ABJ2093     0.5248
      9  N5        47.6090   11.3570   29.8080 N.2   2093  ABJ2093    -0.0027
     10  C2        46.3690   11.5000   30.2970 C.2   2093  ABJ2093     0.4081
     11  N1        45.5380   10.4800   30.2180 N.pl3 2093  ABJ2093     0.2118
     12  C4        46.0110   12.7240   30.8680 C.3   2093  ABJ2093     0.2639
     13  C13       44.8850   13.2890   31.4820 C.2   2093  ABJ2093     0.1227
     14  C18       43.6320   12.7050   31.6850 C.ar  2093  ABJ2093     0.0214
     15  C28       42.9810   12.8160   32.9220 C.ar  2093  ABJ2093     0.0433
     16  C27       42.9730   12.0500   30.6500 C.ar  2093  ABJ2093     0.0015
     17  C30       41.7030   11.4930   30.8450 C.ar  2093  ABJ2093     0.0033
     18  C26       41.0650   11.5980   32.0730 C.ar  2093  ABJ2093     0.0420
     19  C29       41.7060   12.2630   33.1150 C.ar  2093  ABJ2093     0.1958
     20  O33       41.0790   12.3530   34.3160 O.3   2093  ABJ2093    -0.2866
@<TRIPOS>BOND
     1     9     8    1
     2     9    10    2
     3     8     7    1
     4    11    10    1
     5    10    12    1
     6     7     6    2
     7    16    17   ar
     8    16    14   ar
     9    17    18   ar
    10    12     6    1
    11    12    13    1
    12     6     4    1
    13    13    14    1
    14    13     5    2
    15     4     2    1
    16     4     5    1
    17    14    15   ar
    18     2     1    1
    19     2     3    1
    20    18    19   ar
    21    15    19   ar
    22    19    20    1
