@<TRIPOS>MOLECULE
2v4m_F6R_A_1.pdb
 16 15 0 0 0
SMALL
GASTEIGER

@<TRIPOS>ATOM
      1  C1       -27.3630  -43.5410    2.5710 C.3   800  F6R800      0.2486
      2  C2       -28.0480  -44.1010    3.8030 C.2   800  F6R800      0.2165
      3  C3       -28.0520  -43.2760    5.0610 C.3   800  F6R800      0.2440
      4  C4       -29.3380  -43.3820    5.8860 C.3   800  F6R800      0.2220
      5  C5       -29.3070  -42.4660    7.1240 C.3   800  F6R800      0.2151
      6  C6       -30.5650  -42.5650    7.9900 C.3   800  F6R800      0.1892
      7  O1       -27.4670  -44.4480    1.4620 O.3   800  F6R800     -0.2118
      8  O2       -28.5840  -45.1990    3.7590 O.2   800  F6R800     -0.2905
      9  O3       -27.8980  -41.9150    4.6570 O.3   800  F6R800     -0.2122
     10  O4       -30.4460  -42.9890    5.0700 O.3   800  F6R800     -0.2171
     11  O5       -28.1560  -42.7320    7.9420 O.3   800  F6R800     -0.2176
     12  O6       -30.9020  -43.9250    8.2850 O.3   800  F6R800     -0.2674
     13  P        -32.4180  -44.3130    8.6910 P.3   800  F6R800      0.5327
     14  O1P      -32.8270  -43.3480    9.7690 O.3   800  F6R800     -0.1145
     15  O2P      -32.3470  -45.7400    9.1780 O.3   800  F6R800     -0.1145
     16  O3P      -33.1490  -44.1210    7.3890 O.2   800  F6R800     -0.2224
@<TRIPOS>BOND
     1     7     1    1
     2     1     2    1
     3     8     2    2
     4     2     3    1
     5     9     3    1
     6     3     4    1
     7    10     4    1
     8     4     5    1
     9     5    11    1
    10     5     6    1
    11    16    13    2
    12     6    12    1
    13    12    13    1
    14    13    15    1
    15    13    14    1
