@<TRIPOS>MOLECULE
2v4q_DGT_A_1.pdb
 31 33 0 0 0
SMALL
GASTEIGER

@<TRIPOS>ATOM
      1  PG        23.5030   39.6300    2.9310 P.3   594  DGT594      0.5373
      2  O1G       23.5970   38.5370    1.7530 O.2   594  DGT594     -0.2221
      3  O2G       22.7690   40.9180    2.3020 O.3   594  DGT594     -0.1143
      4  O3G       22.7960   39.1040    4.1210 O.3   594  DGT594     -0.1143
      5  O3B       25.0090   40.1130    3.2520 O.3   594  DGT594     -0.2258
      6  PB        25.4200   40.3620    4.7970 P.3   594  DGT594      0.2277
      7  O1B       26.7950   40.8940    4.9440 O.2   594  DGT594     -0.5168
      8  O2B       24.3910   41.1380    5.5200 O.3   594  DGT594     -0.4368
      9  O3A       25.5790   38.9010    5.4680 O.3   594  DGT594     -0.2700
     10  PA        24.7830   38.4510    6.7990 P.3   594  DGT594      0.2189
     11  O1A       24.8820   36.8470    6.7510 O.2   594  DGT594     -0.5170
     12  O2A       23.3780   38.9070    6.9110 O.3   594  DGT594     -0.4371
     13  O5'       25.7270   38.9160    8.0150 O.3   594  DGT594     -0.3112
     14  C5'       25.5820   40.2160    8.5910 C.3   594  DGT594      0.1812
     15  C4'       26.9510   40.6190    9.1360 C.3   594  DGT594      0.1772
     16  O4'       27.5400   39.4940    9.8060 O.3   594  DGT594     -0.3347
     17  C3'       27.9370   40.8700    7.9950 C.3   594  DGT594      0.1857
     18  O3'       27.7440   42.1850    7.4660 O.3   594  DGT594     -0.2203
     19  C2'       29.2150   40.8710    8.8290 C.3   594  DGT594      0.0865
     20  C1'       28.9640   39.7080    9.7960 C.3   594  DGT594      0.1981
     21  N9        29.6060   38.4660    9.2940 N.pl3 594  DGT594     -0.2374
     22  C8        29.0220   37.5210    8.5600 C.3   594  DGT594      0.2245
     23  N7        29.8970   36.5460    8.3150 N.2   594  DGT594     -0.2322
     24  C5        31.0470   36.8660    8.9010 C.2   594  DGT594      0.2182
     25  C6        32.2910   36.2420    8.9800 C.1   594  DGT594      0.2372
     26  O6        32.4840   35.1600    8.4240 O.2   594  DGT594     -0.2069
     27  N1        33.3280   36.8840    9.6710 N.2   594  DGT594     -0.2485
     28  C2        33.0780   38.1220   10.2830 C.1   594  DGT594      0.2531
     29  N2        34.0410   38.7550   10.9470 N.pl3 594  DGT594     -0.0226
     30  N3        31.8620   38.6910   10.2010 N.2   594  DGT594     -0.3074
     31  C4        30.8680   38.0980    9.5260 C.2   594  DGT594      0.2299
@<TRIPOS>BOND
     1     2     1    2
     2     3     1    1
     3     1     5    1
     4     1     4    1
     5     5     6    1
     6     6     7    2
     7     6     9    1
     8     6     8    1
     9     9    10    1
    10    11    10    2
    11    10    12    1
    12    10    13    1
    13    18    17    1
    14    17    19    1
    15    17    15    1
    16    13    14    1
    17    23    22    1
    18    23    24    2
    19    26    25    2
    20    22    21    1
    21    14    15    1
    22    19    20    1
    23    24    25    1
    24    24    31    1
    25    25    27    2
    26    15    16    1
    27    21    31    1
    28    21    20    1
    29    31    30    2
    30    27    28    2
    31    20    16    1
    32    30    28    2
    33    28    29    1
