@<TRIPOS>MOLECULE
2v4r_DGT_A_1.pdb
 31 33 0 0 0
SMALL
GASTEIGER

@<TRIPOS>ATOM
      1  PG        23.6730   39.4340    2.7280 P.3   404  DGT404      0.5373
      2  O1G       22.9840   40.8720    2.5270 O.3   404  DGT404     -0.1143
      3  O2G       23.7410   38.7840    1.2570 O.2   404  DGT404     -0.2221
      4  O3G       22.9090   38.5790    3.6600 O.3   404  DGT404     -0.1143
      5  O3B       25.2010   39.6970    3.1750 O.3   404  DGT404     -0.2258
      6  PB        25.6130   39.8670    4.7190 P.3   404  DGT404      0.2277
      7  O1B       25.0360   41.0850    5.3260 O.3   404  DGT404     -0.4368
      8  O2B       27.0390   39.5120    4.8870 O.2   404  DGT404     -0.5168
      9  O3A       24.7030   38.6980    5.3520 O.3   404  DGT404     -0.2700
     10  PA        25.1420   37.6980    6.5300 P.3   404  DGT404      0.2189
     11  O1A       25.8300   36.4420    5.8170 O.2   404  DGT404     -0.5170
     12  O2A       24.0070   37.3040    7.3800 O.3   404  DGT404     -0.4371
     13  O5'       26.2920   38.4880    7.3380 O.3   404  DGT404     -0.3112
     14  C5'       25.8180   39.5050    8.2070 C.3   404  DGT404      0.1812
     15  C4'       26.7940   40.1710    8.9000 C.3   404  DGT404      0.1772
     16  O4'       27.5140   39.5280    9.9780 O.3   404  DGT404     -0.3347
     17  C3'       27.7380   40.8140    8.1170 C.3   404  DGT404      0.1857
     18  O3'       27.4750   40.8370    6.6000 O.3   404  DGT404     -0.2203
     19  C2'       29.0560   40.3410    8.3150 C.3   404  DGT404      0.0865
     20  C1'       28.9310   39.4460    9.5470 C.3   404  DGT404      0.1981
     21  N9        29.5420   38.1310    9.2490 N.pl3 404  DGT404     -0.2374
     22  C8        28.9590   37.1590    8.5470 C.3   404  DGT404      0.2245
     23  N7        29.8320   36.1710    8.3460 N.2   404  DGT404     -0.2322
     24  C5        30.9790   36.5190    8.9240 C.2   404  DGT404      0.2182
     25  C6        32.2160   35.8950    9.0140 C.1   404  DGT404      0.2372
     26  O6        32.4160   34.8170    8.4630 O.2   404  DGT404     -0.2069
     27  N1        33.2400   36.5480    9.7170 N.2   404  DGT404     -0.2485
     28  C2        32.9880   37.7930   10.3090 C.1   404  DGT404      0.2531
     29  N2        33.9420   38.3990   11.0120 N.pl3 404  DGT404     -0.0226
     30  N3        31.7810   38.3600   10.1860 N.2   404  DGT404     -0.3074
     31  C4        30.7890   37.7610    9.5170 C.2   404  DGT404      0.2299
@<TRIPOS>BOND
     1     3     1    2
     2     2     1    1
     3     1     5    1
     4     1     4    1
     5     5     6    1
     6     6     8    2
     7     6     7    1
     8     6     9    1
     9     9    10    1
    10    11    10    2
    11    10    13    1
    12    10    12    1
    13    18    17    1
    14    13    14    1
    15    17    19    1
    16    17    15    1
    17    14    15    1
    18    19    20    1
    19    23    22    1
    20    23    24    2
    21    26    25    2
    22    22    21    1
    23    15    16    1
    24    24    25    1
    25    24    31    1
    26    25    27    2
    27    21    31    1
    28    21    20    1
    29    31    30    2
    30    20    16    1
    31    27    28    2
    32    30    28    2
    33    28    29    1
