@<TRIPOS>MOLECULE
2v4v_XYP_A_1.pdb
 10 10 0 0 0
SMALL
GASTEIGER

@<TRIPOS>ATOM
      1  O4A       31.2910   27.4180   -1.0590 O.3   3051  XYP3051    -0.1869
      2  C1B       31.0290   28.2930    0.0270 C.3   3051  XYP3051     0.3024
      3  C2B       29.7050   27.8360    0.6210 C.3   3051  XYP3051     0.2434
      4  C3B       29.3580   28.6910    1.8270 C.3   3051  XYP3051     0.2199
      5  C4B       30.5490   28.7770    2.7780 C.3   3051  XYP3051     0.2143
      6  C5B       31.8280   29.1410    2.0110 C.3   3051  XYP3051     0.1804
      7  O2B       28.6260   28.0030   -0.2900 O.3   3051  XYP3051    -0.2148
      8  O3B       28.2240   28.1710    2.5020 O.3   3051  XYP3051    -0.2174
      9  O4B       30.3430   29.7570    3.7690 O.3   3051  XYP3051    -0.2176
     10  O5B       32.0330   28.2150    0.9670 O.3   3051  XYP3051    -0.3237
@<TRIPOS>BOND
     1     1     2    1
     2     7     3    1
     3     2     3    1
     4     2    10    1
     5     3     4    1
     6    10     6    1
     7     4     8    1
     8     4     5    1
     9     6     5    1
    10     5     9    1
