@<TRIPOS>MOLECULE
2v4y_GTP_A_1.pdb
 32 34 0 0 0
SMALL
GASTEIGER

@<TRIPOS>ATOM
      1  PG        -2.2830   -1.1190   37.2290 P.3   1242  GTP1242     0.5373
      2  O1G       -0.9220   -1.5730   36.7500 O.3   1242  GTP1242    -0.1143
      3  O2G       -3.3310   -2.0640   36.6790 O.2   1242  GTP1242    -0.2221
      4  O3G       -2.3240   -1.0900   38.7470 O.3   1242  GTP1242    -0.1143
      5  O3B       -2.5170    0.3630   36.6350 O.3   1242  GTP1242    -0.2258
      6  PB        -2.4310    0.6160   35.0410 P.3   1242  GTP1242     0.2277
      7  O1B       -1.2810    1.5560   34.7340 O.3   1242  GTP1242    -0.4368
      8  O2B       -2.3070   -0.7090   34.3010 O.2   1242  GTP1242    -0.5168
      9  O3A       -3.8260    1.3260   34.6490 O.3   1242  GTP1242    -0.2700
     10  PA        -5.2230    0.7770   35.2180 P.3   1242  GTP1242     0.2189
     11  O1A       -5.2310   -0.7300   35.1340 O.3   1242  GTP1242    -0.4371
     12  O2A       -6.3720    1.3660   34.4290 O.2   1242  GTP1242    -0.5170
     13  O5'       -5.2950    1.2750   36.7500 O.3   1242  GTP1242    -0.3112
     14  C5'       -5.0180    2.6030   37.1240 C.3   1242  GTP1242     0.1813
     15  C4'       -5.4060    2.8530   38.5790 C.3   1242  GTP1242     0.1799
     16  O4'       -6.8100    2.9480   38.6860 O.3   1242  GTP1242    -0.3326
     17  C3'       -5.0180    1.7390   39.5320 C.3   1242  GTP1242     0.2158
     18  O3'       -3.7220    1.9120   40.0530 O.3   1242  GTP1242    -0.2175
     19  C2'       -6.0760    1.8540   40.6100 C.3   1242  GTP1242     0.2310
     20  O2'       -5.7210    2.8400   41.5560 O.3   1242  GTP1242    -0.2158
     21  C1'       -7.3040    2.3160   39.8520 C.3   1242  GTP1242     0.2293
     22  N9        -8.1100    1.1310   39.4790 N.pl3 1242  GTP1242    -0.2354
     23  C8        -8.2880    0.6450   38.2100 C.3   1242  GTP1242     0.2246
     24  N7        -9.0810   -0.4420   38.2650 N.2   1242  GTP1242    -0.2322
     25  C5        -9.4430   -0.6540   39.5490 C.2   1242  GTP1242     0.2182
     26  C6       -10.2540   -1.6190   40.1620 C.1   1242  GTP1242     0.2372
     27  O6       -10.8190   -2.4990   39.5160 O.2   1242  GTP1242    -0.2069
     28  N1       -10.4290   -1.5860   41.5300 N.2   1242  GTP1242    -0.2485
     29  C2        -9.8110   -0.5990   42.2780 C.1   1242  GTP1242     0.2531
     30  N2        -9.9870   -0.5660   43.5990 N.pl3 1242  GTP1242    -0.0226
     31  N3        -9.0260    0.3550   41.6570 N.2   1242  GTP1242    -0.3074
     32  C4        -8.8390    0.3330   40.3200 C.2   1242  GTP1242     0.2300
@<TRIPOS>BOND
     1     8     6    2
     2    12    10    2
     3     9     6    1
     4     9    10    1
     5     7     6    1
     6     6     5    1
     7    11    10    1
     8    10    13    1
     9     5     1    1
    10     3     1    2
    11     2     1    1
    12    13    14    1
    13    14    15    1
    14     1     4    1
    15    23    24    1
    16    23    22    1
    17    24    25    2
    18    15    16    1
    19    15    17    1
    20    16    21    1
    21    22    21    1
    22    22    32    1
    23    27    26    2
    24    17    18    1
    25    17    19    1
    26    25    26    1
    27    25    32    1
    28    21    19    1
    29    26    28    2
    30    32    31    2
    31    19    20    1
    32    28    29    2
    33    31    29    2
    34    29    30    1
