@<TRIPOS>MOLECULE
2v4z_GDP_A_1.pdb
 28 30 0 0 0
SMALL
GASTEIGER

@<TRIPOS>ATOM
      1  PB         0.3780   41.6640   -6.4460 P.3   1348  GDP1348     0.5373
      2  O1B        1.7640   41.7040   -7.0480 O.2   1348  GDP1348    -0.2221
      3  O2B        0.4270   42.0960   -5.0000 O.3   1348  GDP1348    -0.1143
      4  O3B       -0.1620   40.2620   -6.5960 O.3   1348  GDP1348    -0.1143
      5  O3A       -0.5700   42.7200   -7.2200 O.3   1348  GDP1348    -0.2261
      6  PA        -1.9690   42.3220   -7.9180 P.3   1348  GDP1348     0.2231
      7  O1A       -3.0010   41.9810   -6.8610 O.3   1348  GDP1348    -0.4370
      8  O2A       -1.7570   41.1850   -8.8970 O.2   1348  GDP1348    -0.5169
      9  O5'       -2.3950   43.6600   -8.7020 O.3   1348  GDP1348    -0.3111
     10  C5'       -2.5700   44.8800   -7.9890 C.3   1348  GDP1348     0.1813
     11  C4'       -3.6390   45.7330   -8.6530 C.3   1348  GDP1348     0.1799
     12  O4'       -3.1670   46.2540   -9.9060 O.3   1348  GDP1348    -0.3326
     13  C3'       -4.9030   44.9420   -8.9430 C.3   1348  GDP1348     0.2158
     14  O3'       -6.0590   45.7470   -8.6620 O.3   1348  GDP1348    -0.2175
     15  C2'       -4.7970   44.6180  -10.4220 C.3   1348  GDP1348     0.2310
     16  O2'       -6.0900   44.4930  -11.0140 O.3   1348  GDP1348    -0.2158
     17  C1'       -4.0020   45.7950  -10.9750 C.3   1348  GDP1348     0.2293
     18  N9        -3.1160   45.4860  -12.1200 N.pl3 1348  GDP1348    -0.2354
     19  C8        -2.1520   44.5410  -12.1700 C.3   1348  GDP1348     0.2246
     20  N7        -1.5120   44.5550  -13.3740 N.2   1348  GDP1348    -0.2322
     21  C5        -2.0630   45.5410  -14.0980 C.2   1348  GDP1348     0.2182
     22  C6        -1.8660   46.1020  -15.4460 C.1   1348  GDP1348     0.2372
     23  O6        -0.9900   45.6300  -16.2090 O.2   1348  GDP1348    -0.2069
     24  N1        -2.6560   47.1170  -15.8250 N.2   1348  GDP1348    -0.2485
     25  C2        -3.6050   47.6380  -15.0210 C.1   1348  GDP1348     0.2531
     26  N2        -4.3670   48.6700  -15.4590 N.pl3 1348  GDP1348    -0.0226
     27  N3        -3.8370   47.1680  -13.7740 N.2   1348  GDP1348    -0.3074
     28  C4        -3.1130   46.1470  -13.2720 C.2   1348  GDP1348     0.2300
@<TRIPOS>BOND
     1    23    22    2
     2    24    22    2
     3    24    25    2
     4    26    25    1
     5    22    21    1
     6    25    27    2
     7    21    20    2
     8    21    28    1
     9    27    28    2
    10    20    19    1
    11    28    18    1
    12    19    18    1
    13    18    17    1
    14    16    15    1
    15    17    15    1
    16    17    12    1
    17    15    13    1
    18    12    11    1
    19    13    14    1
    20    13    11    1
    21     8     6    2
    22     9    10    1
    23     9     6    1
    24    11    10    1
    25     6     5    1
    26     6     7    1
    27     5     1    1
    28     2     1    2
    29     4     1    1
    30     1     3    1
