@<TRIPOS>MOLECULE
2v50_LMT_A_1.pdb
 35 36 0 0 0
SMALL
GASTEIGER

@<TRIPOS>ATOM
      1  C1B       -0.0040   47.2370  -29.5930 C.3   2026  LMT2026     0.2695
      2  C2B       -1.5230   47.0520  -29.5670 C.3   2026  LMT2026     0.2406
      3  C3B       -1.8740   45.8150  -30.3760 C.3   2026  LMT2026     0.2198
      4  C4B       -1.3630   45.9780  -31.7950 C.3   2026  LMT2026     0.2144
      5  C5B        0.1440   46.2240  -31.7460 C.3   2026  LMT2026     0.1835
      6  C6B        0.7850   46.3270  -33.1420 C.3   2026  LMT2026     0.2142
      7  O1B        0.7180   46.0620  -29.1710 O.3   2026  LMT2026    -0.3257
      8  O2B       -1.9870   46.8240  -28.2390 O.3   2026  LMT2026    -0.2149
      9  O3B       -3.2950   45.6610  -30.3890 O.3   2026  LMT2026    -0.2174
     10  O4'       -1.6060   44.7620  -32.5040 O.3   2026  LMT2026    -0.2176
     11  O5B        0.4130   47.4250  -30.9620 O.3   2026  LMT2026    -0.3256
     12  O6B        0.5390   45.1230  -33.8750 O.3   2026  LMT2026    -0.2176
     13  C1'        4.7650   45.6500  -27.9880 C.3   2026  LMT2026     0.2695
     14  C2'        4.1730   47.0710  -27.9030 C.3   2026  LMT2026     0.2404
     15  C3'        2.6560   46.9700  -27.8180 C.3   2026  LMT2026     0.2167
     16  C4'        2.1600   46.2580  -29.0860 C.3   2026  LMT2026     0.1804
     17  C5'        2.9120   44.9590  -29.3060 C.3   2026  LMT2026     0.1803
     18  C6'        2.7910   44.6720  -30.7790 C.3   2026  LMT2026     0.2141
     19  O1'        6.1880   45.6060  -28.1030 O.3   2026  LMT2026    -0.3286
     20  O2'        4.6290   47.7760  -26.7470 O.3   2026  LMT2026    -0.2149
     21  O3'        2.0850   48.2660  -27.6400 O.3   2026  LMT2026    -0.2175
     22  O5'        4.3240   45.0970  -29.2220 O.3   2026  LMT2026    -0.3257
     23  O6'        3.3520   45.7880  -31.4800 O.3   2026  LMT2026    -0.2176
     24  C1         6.8120   46.2120  -26.9910 C.3   2026  LMT2026     0.1449
     25  C2         8.2740   46.3350  -27.3830 C.3   2026  LMT2026     0.0322
     26  C3         9.0840   45.0490  -27.5260 C.3   2026  LMT2026     0.0026
     27  C4         9.2580   44.3830  -26.1600 C.3   2026  LMT2026     0.0001
     28  C5        10.2280   43.2140  -26.3150 C.3   2026  LMT2026     0.0000
     29  C6        10.6130   42.5800  -24.9770 C.3   2026  LMT2026     0.0000
     30  C7        11.6760   41.5130  -25.2550 C.3   2026  LMT2026     0.0000
     31  C8        12.2440   40.8960  -23.9780 C.3   2026  LMT2026     0.0000
     32  C9        13.3300   39.8710  -24.3250 C.3   2026  LMT2026     0.0000
     33  C10       14.0190   39.2290  -23.1060 C.3   2026  LMT2026     0.0000
     34  C11       13.1010   38.4380  -22.1570 C.3   2026  LMT2026     0.0000
     35  C12       12.0050   39.2750  -21.4870 C.3   2026  LMT2026     0.0000
@<TRIPOS>BOND
     1    12     6    1
     2     6     5    1
     3    10     4    1
     4     4     5    1
     5     4     3    1
     6     5    11    1
     7    23    18    1
     8    11     1    1
     9    18    17    1
    10     9     3    1
    11     3     2    1
    12     1     2    1
    13     1     7    1
    14     2     8    1
    15    17    22    1
    16    17    16    1
    17    22    13    1
    18     7    16    1
    19    16    15    1
    20    19    13    1
    21    19    24    1
    22    13    14    1
    23    14    15    1
    24    14    20    1
    25    15    21    1
    26    26    25    1
    27    26    27    1
    28    25    24    1
    29    28    27    1
    30    28    29    1
    31    30    29    1
    32    30    31    1
    33    32    31    1
    34    32    33    1
    35    33    34    1
    36    34    35    1
