@<TRIPOS>MOLECULE
2v51_ATP_B_1.pdb
 31 33 0 0 0
SMALL
GASTEIGER

@<TRIPOS>ATOM
      1  PG         4.8490    1.8330   12.6490 P.3   1372  ATP1372     0.5373
      2  O1G        4.5060    2.9700   13.5940 O.3   1372  ATP1372    -0.1143
      3  O2G        3.6620    1.3020   11.8510 O.2   1372  ATP1372    -0.2221
      4  O3G        5.5390    0.7060   13.4580 O.3   1372  ATP1372    -0.1143
      5  PB         6.9020    3.5160   11.2620 P.3   1372  ATP1372     0.2277
      6  O1B        7.0550    4.4910   12.3640 O.3   1372  ATP1372    -0.4368
      7  O2B        8.1760    2.8310   10.8680 O.2   1372  ATP1372    -0.5168
      8  O3B        5.7850    2.3240   11.4100 O.3   1372  ATP1372    -0.2258
      9  PA         6.3590    5.8360    9.7190 P.3   1372  ATP1372     0.2189
     10  O1A        7.8460    5.9950    9.8660 O.2   1372  ATP1372    -0.5170
     11  O2A        5.4780    6.7950   10.4580 O.3   1372  ATP1372    -0.4371
     12  O3A        6.1660    4.2770   10.0690 O.3   1372  ATP1372    -0.2700
     13  O5'        5.9160    5.8740    8.1850 O.3   1372  ATP1372    -0.3112
     14  C5'        6.4420    4.9800    7.2180 C.3   1372  ATP1372     0.1813
     15  C4'        5.2970    4.6940    6.2590 C.3   1372  ATP1372     0.1821
     16  O4'        4.7620    5.9810    5.8980 O.3   1372  ATP1372    -0.3135
     17  C3'        5.7580    4.0870    4.9730 C.3   1372  ATP1372     0.2184
     18  O3'        4.6850    3.2410    4.6260 O.3   1372  ATP1372    -0.2174
     19  C2'        5.7350    5.2370    4.0040 C.3   1372  ATP1372     0.2570
     20  O2'        5.4920    4.7470    2.7100 O.3   1372  ATP1372    -0.2130
     21  C1'        4.5620    6.0620    4.5050 C.3   1372  ATP1372     0.3186
     22  N9         4.5990    7.4450    3.9950 N.pl3 1372  ATP1372    -0.1439
     23  C8         5.6240    8.2610    4.1590 C.3   1372  ATP1372     0.3377
     24  N7         5.4090    9.4480    3.5730 N.2   1372  ATP1372    -0.2095
     25  C5         4.2090    9.3830    3.0040 C.2   1372  ATP1372     0.2526
     26  C6         3.3810   10.2860    2.2040 C.2   1372  ATP1372     0.4393
     27  N6         3.8650   11.5040    1.9070 N.pl3 1372  ATP1372     0.2180
     28  N1         2.1680    9.8550    1.7910 N.2   1372  ATP1372     0.0021
     29  C2         1.6910    8.6490    2.0670 C.3   1372  ATP1372     0.5254
     30  N3         2.4280    7.8020    2.7740 N.2   1372  ATP1372    -0.0055
     31  C4         3.6680    8.0780    3.2700 C.2   1372  ATP1372     0.3518
@<TRIPOS>BOND
     1    28    29    1
     2    28    26    2
     3    27    26    1
     4    29    30    1
     5    26    25    1
     6    20    19    1
     7    30    31    2
     8    25    31    1
     9    25    24    2
    10    31    22    1
    11    24    23    1
    12    22    23    1
    13    22    21    1
    14    19    21    1
    15    19    17    1
    16    21    16    1
    17    18    17    1
    18    17    15    1
    19    16    15    1
    20    15    14    1
    21    14    13    1
    22    13     9    1
    23     9    10    2
    24     9    12    1
    25     9    11    1
    26    12     5    1
    27     7     5    2
    28     5     8    1
    29     5     6    1
    30     8     1    1
    31     3     1    2
    32     1     4    1
    33     1     2    1
