@<TRIPOS>MOLECULE
2v51_LAB_B_1.pdb
 27 29 0 0 0
SMALL
GASTEIGER

@<TRIPOS>ATOM
      1  O5         5.4710    0.8410    2.0350 O.2   1374  LAB1374    -0.2155
      2  C18        6.3210   -0.0490    2.2180 C.1   1374  LAB1374     0.1790
      3  N1         6.9180   -0.3990    3.3900 N.2   1374  LAB1374    -0.1932
      4  C16        8.2060   -1.0360    3.2910 C.3   1374  LAB1374     0.1810
      5  C17        8.1660   -1.7910    1.9390 C.3   1374  LAB1374     0.1042
      6  S1         6.9380   -0.9670    0.9720 S.3   1374  LAB1374    -0.0192
      7  C15        9.4010   -0.0670    3.4470 C.3   1374  LAB1374     0.2448
      8  O4         9.7870    0.6540    2.2550 O.3   1374  LAB1374    -0.1930
      9  C14        9.2430    0.8610    4.6860 C.3   1374  LAB1374     0.1048
     10  C13       10.5630    1.4950    5.1330 C.3   1374  LAB1374     0.1766
     11  O2        11.1600    2.2650    4.0900 O.3   1374  LAB1374    -0.4490
     12  C12       11.5820    0.3850    5.3110 C.3   1374  LAB1374     0.0734
     13  C11       11.7690   -0.3540    3.9870 C.3   1374  LAB1374     0.1214
     14  O3        10.5090   -0.9320    3.6210 O.3   1374  LAB1374    -0.3329
     15  C10       12.8010   -1.4940    4.0140 C.3   1374  LAB1374     0.0301
     16  C9        13.0740   -2.0440    2.5910 C.3   1374  LAB1374     0.0068
     17  C8        13.5630   -0.9580    1.6270 C.3   1374  LAB1374     0.0218
     18  C20       14.0690   -1.5910    0.3210 C.3   1374  LAB1374     0.0047
     19  C7        14.6850   -0.0790    2.2000 C.2   1374  LAB1374    -0.0310
     20  C6        14.7450    1.2580    2.3350 C.2   1374  LAB1374    -0.0304
     21  C5        13.6910    2.3130    1.9720 C.3   1374  LAB1374     0.0300
     22  C4        13.5750    3.3930    3.0650 C.3   1374  LAB1374     0.0269
     23  C3        12.6220    4.5080    2.6140 C.2   1374  LAB1374    -0.0372
     24  C19       13.0950    5.6040    1.6720 C.3   1374  LAB1374     0.0266
     25  C2        11.3380    4.5950    3.0140 C.2   1374  LAB1374     0.0734
     26  C1        10.6910    3.6210    3.8950 C.2   1374  LAB1374     0.3407
     27  O1         9.6770    3.9290    4.4200 O.2   1374  LAB1374    -0.2449
@<TRIPOS>BOND
     1    18    17    1
     2     6     5    1
     3     6     2    1
     4    17    19    1
     5    17    16    1
     6    24    23    1
     7     5     4    1
     8    21    20    1
     9    21    22    1
    10     1     2    2
    11    19    20    2
    12     2     3    2
    13     8     7    1
    14    16    15    1
    15    23    25    2
    16    23    22    1
    17    25    26    1
    18     4     3    1
    19     4     7    1
    20     7    14    1
    21     7     9    1
    22    14    13    1
    23    26    11    1
    24    26    27    2
    25    13    15    1
    26    13    12    1
    27    11    10    1
    28     9    10    1
    29    10    12    1
