@<TRIPOS>MOLECULE
2v52_ATP_B_1.pdb
 31 33 0 0 0
SMALL
GASTEIGER

@<TRIPOS>ATOM
      1  PG        -7.3650  -13.1150   17.8110 P.3   1377  ATP1377     0.5373
      2  O1G       -8.7450  -13.4570   18.3440 O.3   1377  ATP1377    -0.1143
      3  O2G       -6.6270  -14.2560   17.2370 O.2   1377  ATP1377    -0.2221
      4  O3G       -6.6100  -12.2920   18.7860 O.3   1377  ATP1377    -0.1143
      5  PB        -8.7430  -11.2630   16.0370 P.3   1377  ATP1377     0.2277
      6  O1B       -9.9090  -11.2750   16.9560 O.3   1377  ATP1377    -0.4368
      7  O2B       -8.1900   -9.9280   15.6860 O.2   1377  ATP1377    -0.5168
      8  O3B       -7.5840  -12.1920   16.5550 O.3   1377  ATP1377    -0.2258
      9  PA       -10.5620  -11.9000   13.8930 P.3   1377  ATP1377     0.2189
     10  O1A      -10.9490  -10.4870   13.8530 O.2   1377  ATP1377    -0.5170
     11  O2A      -11.4850  -12.9440   14.4270 O.3   1377  ATP1377    -0.4371
     12  O3A       -9.1700  -12.0050   14.6640 O.3   1377  ATP1377    -0.2700
     13  O5'      -10.1250  -12.4670   12.4570 O.3   1377  ATP1377    -0.3112
     14  C5'       -9.0960  -11.7920   11.6840 C.3   1377  ATP1377     0.1813
     15  C4'       -8.4020  -12.9330   10.9610 C.3   1377  ATP1377     0.1821
     16  O4'       -9.4020  -13.7040   10.3020 O.3   1377  ATP1377    -0.3135
     17  C3'       -7.3940  -12.5260    9.8770 C.3   1377  ATP1377     0.2184
     18  O3'       -6.3250  -13.4820    9.8520 O.3   1377  ATP1377    -0.2174
     19  C2'       -8.1940  -12.5880    8.6170 C.3   1377  ATP1377     0.2570
     20  O2'       -7.3640  -12.7940    7.4620 O.3   1377  ATP1377    -0.2130
     21  C1'       -9.0330  -13.8270    8.9250 C.3   1377  ATP1377     0.3186
     22  N9       -10.1940  -13.8640    8.0440 N.pl3 1377  ATP1377    -0.1439
     23  C8       -11.1170  -12.8520    7.9430 C.3   1377  ATP1377     0.3377
     24  N7       -12.0690  -13.1650    7.0360 N.2   1377  ATP1377    -0.2095
     25  C5       -11.7510  -14.3820    6.5590 C.2   1377  ATP1377     0.2526
     26  C6       -12.3360  -15.2540    5.5630 C.2   1377  ATP1377     0.4393
     27  N6       -13.4550  -14.8720    4.8510 N.pl3 1377  ATP1377     0.2180
     28  N1       -11.6840  -16.4460    5.3440 N.2   1377  ATP1377     0.0021
     29  C2       -10.5900  -16.8030    6.0360 C.3   1377  ATP1377     0.5254
     30  N3       -10.0050  -16.0290    6.9420 N.2   1377  ATP1377    -0.0055
     31  C4       -10.5460  -14.8270    7.2320 C.2   1377  ATP1377     0.3518
@<TRIPOS>BOND
     1    27    26    1
     2    28    26    2
     3    28    29    1
     4    26    25    1
     5    29    30    1
     6    25    24    2
     7    25    31    1
     8    30    31    2
     9    24    23    1
    10    31    22    1
    11    20    19    1
    12    23    22    1
    13    22    21    1
    14    19    21    1
    15    19    17    1
    16    21    16    1
    17    18    17    1
    18    17    15    1
    19    16    15    1
    20    15    14    1
    21    14    13    1
    22    13     9    1
    23    10     9    2
    24     9    11    1
    25     9    12    1
    26    12     5    1
    27     7     5    2
    28     5     8    1
    29     5     6    1
    30     8     1    1
    31     3     1    2
    32     1     2    1
    33     1     4    1
