@<TRIPOS>MOLECULE
2v52_LAB_B_1.pdb
 27 29 0 0 0
SMALL
GASTEIGER

@<TRIPOS>ATOM
      1  O5        -3.3130  -12.4280    7.7880 O.2   1376  LAB1376    -0.2155
      2  C18       -2.7020  -11.4380    8.1920 C.1   1376  LAB1376     0.1790
      3  N1        -2.8830  -10.8820    9.3750 N.2   1376  LAB1376    -0.1932
      4  C16       -2.2720   -9.6030    9.6040 C.3   1376  LAB1376     0.1810
      5  C17       -1.0830   -9.4760    8.5910 C.3   1376  LAB1376     0.1042
      6  S1        -1.5410  -10.5590    7.2660 S.3   1376  LAB1376    -0.0192
      7  C15       -3.2790   -8.4620    9.4440 C.3   1376  LAB1376     0.2448
      8  O4        -3.7170   -8.2730    8.0900 O.3   1376  LAB1376    -0.1930
      9  C14       -4.5790   -8.7950   10.2170 C.3   1376  LAB1376     0.1048
     10  C13       -5.4290   -7.5590   10.5440 C.3   1376  LAB1376     0.1766
     11  O2        -6.1000   -7.0530    9.3920 O.3   1376  LAB1376    -0.4490
     12  C12       -4.5710   -6.4130   11.0940 C.3   1376  LAB1376     0.0734
     13  C11       -3.4960   -6.1410   10.0390 C.3   1376  LAB1376     0.1214
     14  O3        -2.6310   -7.2980    9.9670 O.3   1376  LAB1376    -0.3329
     15  C10       -2.7280   -4.8640   10.3580 C.3   1376  LAB1376     0.0301
     16  C9        -1.8750   -4.4430    9.1410 C.3   1376  LAB1376     0.0068
     17  C8        -2.6820   -4.0200    7.9080 C.3   1376  LAB1376     0.0218
     18  C20       -1.6710   -3.3650    6.9230 C.3   1376  LAB1376     0.0047
     19  C7        -3.7940   -3.0650    8.2100 C.2   1376  LAB1376    -0.0310
     20  C6        -5.0880   -3.2050    7.9250 C.2   1376  LAB1376    -0.0304
     21  C5        -5.7560   -4.3750    7.2230 C.3   1376  LAB1376     0.0300
     22  C4        -6.9890   -4.7020    8.0960 C.3   1376  LAB1376     0.0269
     23  C3        -7.8390   -5.7410    7.3970 C.2   1376  LAB1376    -0.0372
     24  C19       -8.6410   -5.3740    6.1760 C.3   1376  LAB1376     0.0266
     25  C2        -7.9570   -7.0460    7.7570 C.2   1376  LAB1376     0.0734
     26  C1        -7.2700   -7.6840    8.8770 C.2   1376  LAB1376     0.3407
     27  O1        -7.6440   -8.7440    9.3350 O.2   1376  LAB1376    -0.2449
@<TRIPOS>BOND
     1    24    23    1
     2    18    17    1
     3    21    20    1
     4    21    22    1
     5     6     2    1
     6     6     5    1
     7    23    25    2
     8    23    22    1
     9    25    26    1
    10     1     2    2
    11    17    19    1
    12    17    16    1
    13    20    19    2
    14     8     7    1
    15     2     3    2
    16     5     4    1
    17    26    27    2
    18    26    11    1
    19    16    15    1
    20     3     4    1
    21    11    10    1
    22     7     4    1
    23     7    14    1
    24     7     9    1
    25    14    13    1
    26    13    15    1
    27    13    12    1
    28     9    10    1
    29    10    12    1
