@<TRIPOS>MOLECULE
2v54_TYD_A_1.pdb
 25 26 0 0 0
SMALL
GASTEIGER

@<TRIPOS>ATOM
      1  PA        11.3860   20.2800    2.1180 P.3   1205  TYD1205     0.2231
      2  O1A       12.3330   19.7820    1.0960 O.2   1205  TYD1205    -0.5169
      3  O2A       10.4090   19.3290    2.6920 O.3   1205  TYD1205    -0.4370
      4  O3A       12.2660   20.9180    3.3050 O.3   1205  TYD1205    -0.2261
      5  PB        11.6600   21.1970    4.7690 P.3   1205  TYD1205     0.5373
      6  O1B       12.3100   20.3710    5.8120 O.3   1205  TYD1205    -0.1143
      7  O2B       11.8430   22.7770    5.0190 O.3   1205  TYD1205    -0.1143
      8  O3B       10.0720   20.9550    4.6820 O.2   1205  TYD1205    -0.2221
      9  O5'       10.6080   21.5710    1.5520 O.3   1205  TYD1205    -0.3111
     10  C5'       11.3400   22.7740    1.3050 C.3   1205  TYD1205     0.1812
     11  C4'       10.4120   23.9680    1.0730 C.3   1205  TYD1205     0.1773
     12  O4'        9.6410   23.7320   -0.1190 O.3   1205  TYD1205    -0.3339
     13  C3'        9.4100   24.1100    2.2240 C.3   1205  TYD1205     0.1857
     14  O3'        9.1850   25.4960    2.4980 O.3   1205  TYD1205    -0.2203
     15  C2'        8.1580   23.4730    1.6240 C.3   1205  TYD1205     0.0874
     16  C1'        8.2710   24.0230    0.2020 C.3   1205  TYD1205     0.2090
     17  N1         7.3970   23.3190   -0.7650 N.am  1205  TYD1205    -0.1794
     18  C2         6.4700   24.0160   -1.5490 C.1   1205  TYD1205     0.2844
     19  O2         6.3500   25.2340   -1.4380 O.2   1205  TYD1205    -0.1918
     20  N3         5.7050   23.3260   -2.5000 N.2   1205  TYD1205    -0.2455
     21  C4         5.8750   21.9500   -2.6710 C.1   1205  TYD1205     0.2134
     22  O4         5.2340   21.3530   -3.5390 O.2   1205  TYD1205    -0.2088
     23  C5         6.7960   21.2580   -1.8900 C.2   1205  TYD1205     0.0891
     24  C5M        6.9790   19.7480   -2.0650 C.3   1205  TYD1205     0.0462
     25  C6         7.5500   21.9360   -0.9440 C.2   1205  TYD1205     0.0877
@<TRIPOS>BOND
     1    22    21    2
     2    21    20    2
     3    21    23    1
     4    20    18    2
     5    24    23    1
     6    23    25    2
     7    18    19    2
     8    18    17   am
     9    25    17    1
    10    17    16    1
    11    12    16    1
    12    12    11    1
    13    16    15    1
    14    11    10    1
    15    11    13    1
    16     2     1    2
    17    10     9    1
    18     9     1    1
    19    15    13    1
    20     1     3    1
    21     1     4    1
    22    13    14    1
    23     4     5    1
    24     8     5    2
    25     5     7    1
    26     5     6    1
