@<TRIPOS>MOLECULE
2v55_GTP_B_1.pdb
 32 34 0 0 0
SMALL
GASTEIGER

@<TRIPOS>ATOM
      1  PG       -44.1660   76.9730    5.5480 P.3   1201  GTP1201     0.5373
      2  O1G      -43.9230   78.0350    6.5950 O.3   1201  GTP1201    -0.1143
      3  O2G      -44.9460   75.8320    6.1650 O.3   1201  GTP1201    -0.1143
      4  O3G      -44.9100   77.6010    4.4020 O.2   1201  GTP1201    -0.2221
      5  O3B      -42.7470   76.4760    4.9890 O.3   1201  GTP1201    -0.2258
      6  PB       -42.4080   74.9160    5.0630 P.3   1201  GTP1201     0.2277
      7  O1B      -41.0920   74.7730    5.7660 O.2   1201  GTP1201    -0.5168
      8  O2B      -43.4930   74.1720    5.8040 O.3   1201  GTP1201    -0.4368
      9  O3A      -42.2070   74.4460    3.5320 O.3   1201  GTP1201    -0.2700
     10  PA       -41.8230   72.9090    3.2400 P.3   1201  GTP1201     0.2189
     11  O1A      -43.0190   72.1800    2.6340 O.2   1201  GTP1201    -0.5170
     12  O2A      -41.3960   72.2920    4.5440 O.3   1201  GTP1201    -0.4371
     13  O5'      -40.5480   72.8510    2.2470 O.3   1201  GTP1201    -0.3112
     14  C5'      -40.0030   73.9490    1.5540 C.3   1201  GTP1201     0.1813
     15  C4'      -39.4830   73.4490    0.2020 C.3   1201  GTP1201     0.1799
     16  O4'      -38.1110   73.1720    0.3600 O.3   1201  GTP1201    -0.3326
     17  C3'      -40.1420   72.1550   -0.2850 C.3   1201  GTP1201     0.2158
     18  O3'      -40.8280   72.3300   -1.5050 O.3   1201  GTP1201    -0.2175
     19  C2'      -39.0190   71.2070   -0.6090 C.3   1201  GTP1201     0.2310
     20  O2'      -38.9810   71.0740   -2.0120 O.3   1201  GTP1201    -0.2158
     21  C1'      -37.7570   71.8740   -0.0890 C.3   1201  GTP1201     0.2293
     22  N9       -37.2620   71.1180    1.0760 N.pl3 1201  GTP1201    -0.2354
     23  C8       -37.9160   70.9980    2.2730 C.3   1201  GTP1201     0.2246
     24  N7       -37.1540   70.2580    3.1110 N.2   1201  GTP1201    -0.2322
     25  C5       -36.0100   69.9310    2.4730 C.2   1201  GTP1201     0.2182
     26  C6       -34.9020   69.2060    2.8770 C.1   1201  GTP1201     0.2372
     27  O6       -34.8710   68.7380    4.0180 O.2   1201  GTP1201    -0.2069
     28  N1       -33.8490   69.0200    2.0030 N.2   1201  GTP1201    -0.2485
     29  C2       -33.9090   69.5580    0.7400 C.1   1201  GTP1201     0.2531
     30  N2       -32.9070   69.3780   -0.1110 N.pl3 1201  GTP1201    -0.0226
     31  N3       -35.0120   70.2790    0.3530 N.2   1201  GTP1201    -0.3074
     32  C4       -36.0540   70.4670    1.1990 C.2   1201  GTP1201     0.2300
@<TRIPOS>BOND
     1    20    19    1
     2    18    17    1
     3    19    17    1
     4    19    21    1
     5    17    15    1
     6    30    29    1
     7    21    16    1
     8    21    22    1
     9    15    16    1
    10    15    14    1
    11    31    29    2
    12    31    32    2
    13    29    28    2
    14    22    32    1
    15    22    23    1
    16    32    25    1
    17    14    13    1
    18    28    26    2
    19    13    10    1
    20    23    24    1
    21    25    26    1
    22    25    24    2
    23    11    10    2
    24    26    27    2
    25    10     9    1
    26    10    12    1
    27     9     6    1
    28     4     1    2
    29     5     6    1
    30     5     1    1
    31     6     7    2
    32     6     8    1
    33     1     3    1
    34     1     2    1
