@<TRIPOS>MOLECULE
2v55_ANP_A_1.pdb
 31 33 0 0 0
SMALL
GASTEIGER

@<TRIPOS>ATOM
      1  PG       -24.1810   50.5080   36.4960 P.3   1480  ANP1480     0.4884
      2  O1G      -25.0800   51.6620   36.6120 O.3   1480  ANP1480    -0.1240
      3  O2G      -25.0670   49.1560   36.1700 O.3   1480  ANP1480    -0.1240
      4  O3G      -23.1320   50.7660   35.2430 O.2   1480  ANP1480    -0.2331
      5  PB       -23.2930   48.6260   38.4420 P.3   1480  ANP1480     0.4669
      6  O1B      -24.7110   48.2360   39.1920 O.3   1480  ANP1480    -0.1253
      7  O2B      -23.1000   47.7830   37.2650 O.2   1480  ANP1480    -0.2351
      8  N3B      -23.3040   50.2730   37.9530 N.3   1480  ANP1480    -0.0163
      9  PA       -20.8910   47.2200   39.2330 P.3   1480  ANP1480     0.2220
     10  O1A      -20.7700   46.9420   37.8040 O.2   1480  ANP1480    -0.5170
     11  O2A      -21.2410   45.8180   40.0320 O.3   1480  ANP1480    -0.4370
     12  O3A      -22.0540   48.3650   39.5080 O.3   1480  ANP1480    -0.2360
     13  O5'      -19.4660   47.8570   39.7870 O.3   1480  ANP1480    -0.3111
     14  C5'      -19.3140   49.2590   39.8050 C.3   1480  ANP1480     0.1813
     15  C4'      -18.0910   49.6350   40.6590 C.3   1480  ANP1480     0.1821
     16  O4'      -17.9000   48.6220   41.6950 O.3   1480  ANP1480    -0.3135
     17  C3'      -16.8090   49.7000   39.8220 C.3   1480  ANP1480     0.2184
     18  O3'      -16.5660   51.0100   39.3570 O.3   1480  ANP1480    -0.2174
     19  C2'      -15.7430   49.2650   40.7960 C.3   1480  ANP1480     0.2570
     20  O2'      -15.1970   50.3940   41.4410 O.3   1480  ANP1480    -0.2130
     21  C1'      -16.4690   48.3380   41.7950 C.3   1480  ANP1480     0.3186
     22  N9       -16.1810   46.9010   41.5910 N.pl3 1480  ANP1480    -0.1439
     23  C8       -17.1030   45.9290   40.9130 C.3   1480  ANP1480     0.3377
     24  N7       -16.4650   44.6110   40.8770 N.2   1480  ANP1480    -0.2095
     25  C5       -15.1470   44.7260   41.5300 C.2   1480  ANP1480     0.2526
     26  C6       -14.0610   43.7040   41.7820 C.2   1480  ANP1480     0.4393
     27  N6       -14.2280   42.3290   41.3350 N.pl3 1480  ANP1480     0.2180
     28  N1       -12.8370   44.0920   42.4600 N.2   1480  ANP1480     0.0021
     29  C2       -12.6570   45.5200   42.9100 C.3   1480  ANP1480     0.5254
     30  N3       -13.7220   46.5320   42.6640 N.2   1480  ANP1480    -0.0055
     31  C4       -14.9720   46.1430   41.9680 C.2   1480  ANP1480     0.3518
@<TRIPOS>BOND
     1     4     1    2
     2     3     1    1
     3     1     2    1
     4     1     8    1
     5     7     5    2
     6    10     9    2
     7     8     5    1
     8     5     6    1
     9     5    12    1
    10     9    12    1
    11     9    13    1
    12     9    11    1
    13    18    17    1
    14    13    14    1
    15    14    15    1
    16    17    15    1
    17    17    19    1
    18    15    16    1
    19    19    20    1
    20    19    21    1
    21    24    23    1
    22    24    25    2
    23    23    22    1
    24    27    26    1
    25    25    26    1
    26    25    31    1
    27    22    21    1
    28    22    31    1
    29    16    21    1
    30    26    28    2
    31    31    30    2
    32    28    29    1
    33    30    29    1
