@<TRIPOS>MOLECULE
2v57_PRL_A_1.pdb
 16 18 0 0 0
SMALL
GASTEIGER

@<TRIPOS>ATOM
      1  C1         5.7110   -3.8290    4.7020 C.ar  1188  PRL1188     0.0039
      2  C2         6.4370   -3.0180    3.8200 C.ar  1188  PRL1188     0.0182
      3  C3         7.8300   -2.9470    3.9400 C.ar  1188  PRL1188     0.0916
      4  C4         8.4930   -3.6860    4.9140 C.ar  1188  PRL1188     0.0501
      5  C5         8.5040   -6.6940    8.5770 C.3   1188  PRL1188     0.1035
      6  C6         7.8300   -7.5120    9.4890 C.2   1188  PRL1188     0.0738
      7  C7         6.4510   -7.6270    9.4210 C.2   1188  PRL1188     0.0142
      8  C8         5.7400   -6.9250    8.4610 C.2   1188  PRL1188     0.0033
      9  C9         5.6840   -5.3820    6.5860 C.2   1188  PRL1188     0.0048
     10  N10        8.4280   -5.1940    6.7350 N.2   1188  PRL1188    -0.4058
     11  C11        7.7690   -4.4840    5.7940 C.ar  1188  PRL1188     0.1323
     12  C12        6.4010   -6.0980    7.5560 C.2   1188  PRL1188     0.0259
     13  C13        6.3790   -4.5650    5.6890 C.ar  1188  PRL1188     0.0297
     14  C14        7.7810   -5.9940    7.6090 C.2   1188  PRL1188     0.1147
     15  N15        8.5350   -2.1670    3.0930 N.pl3 1188  PRL1188    -0.1280
     16  N16        8.5080   -8.2100   10.4340 N.pl3 1188  PRL1188    -0.1323
@<TRIPOS>BOND
     1    15     3    1
     2     2     3   ar
     3     2     1   ar
     4     3     4   ar
     5     1    13   ar
     6     4    11   ar
     7    13    11   ar
     8    13     9    2
     9    11    10    2
    10     9    12    1
    11    10    14    2
    12    12    14    1
    13    12     8    2
    14    14     5    1
    15     8     7    1
    16     5     6    1
    17     7     6    2
    18     6    16    1
