@<TRIPOS>MOLECULE
2v58_LZJ_A_1.pdb
 20 22 0 0 0
SMALL
GASTEIGER

@<TRIPOS>ATOM
      1 BR2         7.1360  -21.7170   26.4580 Br    1448  LZJ1448    -0.0490
      2  C18        6.1620  -20.3930   25.5290 C.ar  1448  LZJ1448     0.0352
      3  C17        6.6160  -19.0780   25.6060 C.ar  1448  LZJ1448     0.0067
      4  C16        5.9360  -18.0620   24.9470 C.ar  1448  LZJ1448     0.0010
      5  C15        4.7990  -18.3670   24.2080 C.ar  1448  LZJ1448     0.0067
      6  C14        4.3460  -19.6830   24.1290 C.ar  1448  LZJ1448     0.0352
      7 BR1         2.7930  -20.0270   23.1150 Br    1448  LZJ1448    -0.0490
      8  C12        5.0180  -20.7080   24.7930 C.ar  1448  LZJ1448     0.0163
      9  C9         4.5310  -22.1190   24.6870 C.2   1448  LZJ1448     0.0497
     10  C10        3.3650  -22.5480   25.3290 C.2   1448  LZJ1448     0.0177
     11  C5         2.9590  -23.8780   25.1790 C.2   1448  LZJ1448     0.1065
     12  C6         1.8060  -24.3650   25.7950 C.2   1448  LZJ1448     0.1238
     13  N1         1.4530  -25.6530   25.6290 N.2   1448  LZJ1448    -0.1660
     14  C8         5.2520  -23.0320   23.9090 C.2   1448  LZJ1448     0.2315
     15  N13        6.3830  -22.6610   23.2620 N.pl3 1448  LZJ1448    -0.0922
     16  N7         4.8380  -24.3160   23.7820 N.2   1448  LZJ1448    -0.3207
     17  C4         3.7150  -24.7510   24.3980 C.1   1448  LZJ1448     0.1526
     18  N3         3.3240  -26.0390   24.2550 N.2   1448  LZJ1448    -0.2689
     19  C2         2.2000  -26.4890   24.8620 C.1   1448  LZJ1448     0.1968
     20  N11        1.8360  -27.7850   24.7050 N.pl3 1448  LZJ1448    -0.0339
@<TRIPOS>BOND
     1     7     6    1
     2    15    14    1
     3    16    14    2
     4    16    17    2
     5    14     9    1
     6     6     5   ar
     7     6     8   ar
     8     5     4   ar
     9    18    17    2
    10    18    19    2
    11    17    11    1
    12     9     8    1
    13     9    10    2
    14    20    19    1
    15     8     2   ar
    16    19    13    2
    17     4     3   ar
    18    11    10    1
    19    11    12    2
    20     2     3   ar
    21     2     1    1
    22    13    12    1
