@<TRIPOS>MOLECULE
2v59_LZK_A_1.pdb
 22 24 0 0 0
SMALL
GASTEIGER

@<TRIPOS>ATOM
      1  N20        1.7550  -27.6250   24.7720 N.pl3 1446  LZK1446    -0.0339
      2  C19        2.0570  -26.3060   24.8230 C.1   1446  LZK1446     0.1968
      3  N17        3.1760  -25.8710   24.2040 N.2   1446  LZK1446    -0.2689
      4  N18        1.2530  -25.4350   25.4900 N.2   1446  LZK1446    -0.1660
      5  C16        1.5510  -24.1250   25.5510 C.2   1446  LZK1446     0.1238
      6  C11        2.7020  -23.6590   24.9180 C.2   1446  LZK1446     0.1065
      7  C15        3.5160  -24.5660   24.2400 C.1   1446  LZK1446     0.1526
      8  N12        4.6420  -24.1490   23.6170 N.2   1446  LZK1446    -0.3207
      9  C6         5.0080  -22.8470   23.6290 C.2   1446  LZK1446     0.2317
     10  N13        6.1470  -22.4920   22.9830 N.pl3 1446  LZK1446    -0.0922
     11  C5         3.0590  -22.3150   24.9540 C.2   1446  LZK1446     0.0179
     12  C2         4.2270  -21.9060   24.3030 C.2   1446  LZK1446     0.0546
     13  C1         4.6160  -20.4660   24.3160 C.ar  1446  LZK1446     0.0718
     14  C4         5.8060  -20.0590   24.9190 C.ar  1446  LZK1446     0.1417
     15  O1         6.6120  -20.9990   25.5160 O.3   1446  LZK1446    -0.4713
     16  C45        8.0100  -20.7950   25.6930 C.3   1446  LZK1446     0.2525
     17  C3         3.7760  -19.5320   23.7100 C.ar  1446  LZK1446     0.1417
     18  O7         2.6070  -19.9620   23.1190 O.3   1446  LZK1446    -0.4713
     19  C43        1.5660  -19.0770   22.6980 C.3   1446  LZK1446     0.2525
     20  C7         4.1330  -18.1790   23.7180 C.ar  1446  LZK1446     0.0371
     21  C14        5.3220  -17.7690   24.3230 C.ar  1446  LZK1446     0.0062
     22  C9         6.1600  -18.7060   24.9250 C.ar  1446  LZK1446     0.0371
@<TRIPOS>BOND
     1    19    18    1
     2    10     9    1
     3    18    17    1
     4     8     9    2
     5     8     7    2
     6     9    12    1
     7    17    20   ar
     8    17    13   ar
     9    20    21   ar
    10     3     7    2
    11     3     2    2
    12     7     6    1
    13    12    13    1
    14    12    11    2
    15    13    14   ar
    16    21    22   ar
    17     1     2    1
    18     2     4    2
    19     6    11    1
    20     6     5    2
    21    14    22   ar
    22    14    15    1
    23     4     5    1
    24    15    16    1
