@<TRIPOS>MOLECULE
2v5a_LZL_A_1.pdb
 22 25 0 0 0
SMALL
GASTEIGER

@<TRIPOS>ATOM
      1  N22        1.7200  -27.6580   24.5340 N.pl3 1447  LZL1447    -0.0339
      2  C21        2.1640  -26.3900   24.6940 C.1   1447  LZL1447     0.1968
      3  N20        1.4840  -25.5340   25.5070 N.2   1447  LZL1447    -0.1660
      4  C15        1.8740  -24.2630   25.7090 C.2   1447  LZL1447     0.1238
      5  C9         3.0170  -23.8050   25.0650 C.2   1447  LZL1447     0.1065
      6  C4         3.4930  -22.5100   25.2230 C.2   1447  LZL1447     0.0176
      7  N18        3.2820  -26.0060   24.0340 N.2   1447  LZL1447    -0.2689
      8  C12        3.7490  -24.7490   24.1780 C.1   1447  LZL1447     0.1525
      9  N6         4.8620  -24.3520   23.5300 N.2   1447  LZL1447    -0.3238
     10  C2         5.3590  -23.0970   23.6510 C.2   1447  LZL1447     0.1958
     11  N5         6.5270  -22.8100   22.9040 N.pl3 1447  LZL1447    -0.2829
     12  C11        6.8340  -21.7940   21.9600 C.3   1447  LZL1447     0.0932
     13  C17        8.1530  -22.0120   21.6090 C.3   1447  LZL1447     0.0233
     14  C16        8.2920  -23.3580   21.7350 C.3   1447  LZL1447     0.0233
     15  C10        7.6640  -23.6770   22.9380 C.3   1447  LZL1447     0.0932
     16  C1         4.6420  -22.1170   24.5370 C.2   1447  LZL1447     0.0457
     17  C3         5.1360  -20.7340   24.7420 C.ar  1447  LZL1447     0.0038
     18  C8         4.4470  -19.6250   24.2530 C.ar  1447  LZL1447     0.0001
     19  C14        4.9560  -18.3460   24.4780 C.ar  1447  LZL1447     0.0000
     20  C19        6.1410  -18.1860   25.1960 C.ar  1447  LZL1447     0.0000
     21  C13        6.8260  -19.2920   25.6930 C.ar  1447  LZL1447     0.0000
     22  C7         6.3180  -20.5700   25.4700 C.ar  1447  LZL1447     0.0001
@<TRIPOS>BOND
     1    13    14    1
     2    13    12    1
     3    14    15    1
     4    12    11    1
     5    11    15    1
     6    11    10    1
     7     9    10    2
     8     9     8    2
     9    10    16    1
    10     7     8    2
    11     7     2    2
    12     8     5    1
    13    18    19   ar
    14    18    17   ar
    15    19    20   ar
    16     1     2    1
    17    16    17    1
    18    16     6    2
    19     2     3    2
    20    17    22   ar
    21     5     6    1
    22     5     4    2
    23    20    21   ar
    24    22    21   ar
    25     3     4    1
