@<TRIPOS>MOLECULE
2v5h_NLG_A_1.pdb
 13 12 0 0 0
SMALL
GASTEIGER

@<TRIPOS>ATOM
      1  CA        40.8880   26.4650   50.0890 C.3   1292  NLG1292     0.1983
      2  C         41.5380   26.6850   51.4860 C.2   1292  NLG1292     0.3842
      3  OXT       41.0980   27.6510   52.1620 O.co2 1292  NLG1292    -0.2437
      4  O         42.4430   25.8900   51.8640 O.co2 1292  NLG1292    -0.2437
      5  CB        39.8660   25.3190   50.1870 C.3   1292  NLG1292     0.0451
      6  CG        38.7500   25.4380   49.1630 C.3   1292  NLG1292     0.1164
      7  CD        38.1100   26.8300   49.1830 C.2   1292  NLG1292     0.3649
      8  OE1       38.2860   27.5690   48.1780 O.co2 1292  NLG1292    -0.2457
      9  OE2       37.4610   27.1260   50.2120 O.co2 1292  NLG1292    -0.2457
     10  C7        42.9030   26.8910   48.6290 C.2   1292  NLG1292     0.2423
     11  C8        43.7030   26.3900   47.6070 C.3   1292  NLG1292     0.0964
     12  O7        43.1990   27.9900   49.0960 O.2   1292  NLG1292    -0.2733
     13  N2        41.8670   26.1340   49.0280 N.am  1292  NLG1292    -0.1956
@<TRIPOS>BOND
     1    11    10    1
     2     8     7   ar
     3    10    13   am
     4    10    12    2
     5    13     1    1
     6     6     7    1
     7     6     5    1
     8     7     9   ar
     9     1     5    1
    10     1     2    1
    11     2     4   ar
    12     2     3   ar
