@<TRIPOS>MOLECULE
2v5u_FMN_A_1.pdb
 31 33 0 0 0
SMALL
GASTEIGER

@<TRIPOS>ATOM
      1  N1       -21.9380    6.7510  -19.6190 N.2   1170  FMN1170    -0.2887
      2  C2       -20.7490    7.3870  -19.6040 C.1   1170  FMN1170     0.3669
      3  O2       -19.7460    6.7370  -19.8380 O.2   1170  FMN1170    -0.1744
      4  N3       -20.6830    8.7460  -19.3500 N.2   1170  FMN1170    -0.2300
      5  C4       -21.8370    9.4410  -19.1130 C.1   1170  FMN1170     0.2513
      6  O4       -21.8280   10.6540  -18.8970 O.2   1170  FMN1170    -0.2057
      7  C4A      -23.0260    8.8050  -19.1270 C.2   1170  FMN1170     0.2703
      8  N5       -24.1550    9.5290  -18.9050 N.2   1170  FMN1170    -0.3882
      9  C5A      -25.4050    8.9000  -18.9250 C.2   1170  FMN1170     0.1277
     10  C6       -26.5970    9.6220  -18.7090 C.3   1170  FMN1170     0.0820
     11  C7       -27.8410    8.9340  -18.7530 C.2   1170  FMN1170    -0.0408
     12  C7M      -29.1440    9.6780  -18.8120 C.3   1170  FMN1170     0.0265
     13  C8       -27.8910    7.5800  -19.0060 C.2   1170  FMN1170    -0.0280
     14  C8M      -29.2400    6.8660  -19.1740 C.3   1170  FMN1170     0.0304
     15  C9       -26.6850    6.8760  -19.2080 C.2   1170  FMN1170     0.0123
     16  C9A      -25.4670    7.5270  -19.1390 C.2   1170  FMN1170     0.0793
     17  N10      -24.2930    6.8020  -19.3490 N.pl3 1170  FMN1170    -0.2545
     18  C10      -23.0850    7.4570  -19.3860 C.2   1170  FMN1170     0.2449
     19  C1'      -24.3790    5.3200  -19.6480 C.3   1170  FMN1170     0.1336
     20  C2'      -24.3690    4.4950  -18.3880 C.3   1170  FMN1170     0.2048
     21  O2'      -23.2230    4.7380  -17.6310 O.3   1170  FMN1170    -0.2185
     22  C3'      -24.3880    3.0430  -18.7920 C.3   1170  FMN1170     0.2165
     23  O3'      -25.7040    2.7580  -19.2880 O.3   1170  FMN1170    -0.2175
     24  C4'      -24.0490    2.1130  -17.6100 C.3   1170  FMN1170     0.2147
     25  O4'      -23.8780    0.7940  -18.1380 O.3   1170  FMN1170    -0.2176
     26  C5'      -25.0740    2.1070  -16.4890 C.3   1170  FMN1170     0.1892
     27  O5'      -24.6250    1.3230  -15.4040 O.3   1170  FMN1170    -0.2674
     28  P        -25.6430    0.7740  -14.2950 P.3   1170  FMN1170     0.5327
     29  O1P      -26.2930    1.9000  -13.5940 O.3   1170  FMN1170    -0.1145
     30  O2P      -26.5300   -0.1420  -15.0400 O.2   1170  FMN1170    -0.2224
     31  O3P      -24.9080   -0.1620  -13.3380 O.3   1170  FMN1170    -0.1145
@<TRIPOS>BOND
     1     3     2    2
     2    19    17    1
     3    19    20    1
     4     1     2    2
     5     1    18    2
     6     2     4    2
     7    18    17    1
     8    18     7    1
     9     4     5    2
    10    17    16    1
    11    23    22    1
    12    15    16    2
    13    15    13    1
    14    14    13    1
    15    16     9    1
    16     7     5    1
    17     7     8    2
    18     5     6    2
    19    13    11    2
    20     9     8    2
    21     9    10    1
    22    12    11    1
    23    22    20    1
    24    22    24    1
    25    11    10    1
    26    20    21    1
    27    25    24    1
    28    24    26    1
    29    26    27    1
    30    27    28    1
    31    30    28    2
    32    28    29    1
    33    28    31    1
