@<TRIPOS>MOLECULE
2v5v_FMN_A_1.pdb
 31 33 0 0 0
SMALL
GASTEIGER

@<TRIPOS>ATOM
      1  N1        19.4990    9.8350   27.3480 N.2   170  FMN170     -0.2890
      2  C2        20.1870    8.7070   27.7640 C.1   170  FMN170      0.3669
      3  O2        20.0730    7.6710   27.0970 O.2   170  FMN170     -0.1744
      4  N3        20.9680    8.7420   28.9190 N.2   170  FMN170     -0.2300
      5  C4        21.0850    9.8400   29.6790 C.1   170  FMN170      0.2513
      6  O4        21.6710    9.7820   30.7790 O.2   170  FMN170     -0.2057
      7  C4A       20.3640   10.9980   29.2900 C.2   170  FMN170      0.2700
      8  N5        20.4550   12.1450   30.0320 N.2   170  FMN170     -0.3878
      9  C5A       19.7750   13.2890   29.6480 C.2   170  FMN170      0.1320
     10  C6        19.9250   14.4850   30.3740 C.2   170  FMN170      0.0250
     11  C7        19.2210   15.6390   29.9810 C.2   170  FMN170     -0.0238
     12  C7M       19.5650   16.9520   30.6410 C.3   170  FMN170      0.0308
     13  C8        18.4290   15.6150   28.8100 C.2   170  FMN170     -0.0280
     14  C8M       17.8160   16.8720   28.2580 C.3   170  FMN170      0.0304
     15  C9        18.3100   14.4430   28.0900 C.2   170  FMN170     -0.0041
     16  C9A       19.0080   13.2860   28.4790 C.3   170  FMN170      0.1497
     17  N10       18.8970   12.1190   27.7320 N.pl3 170  FMN170     -0.2691
     18  C10       19.5860   10.9920   28.1190 C.2   170  FMN170      0.2416
     19  C1'       18.1060   12.0900   26.4680 C.3   170  FMN170      0.1294
     20  C2'       16.6370   11.7460   26.7300 C.3   170  FMN170      0.2044
     21  O2'       16.4770   10.5530   27.5110 O.3   170  FMN170     -0.2185
     22  C3'       15.9200   11.6010   25.3870 C.3   170  FMN170      0.2164
     23  O3'       15.8270   12.8860   24.7670 O.3   170  FMN170     -0.2175
     24  C4'       14.4850   11.0660   25.5850 C.3   170  FMN170      0.2147
     25  O4'       13.8640   10.8530   24.3290 O.3   170  FMN170     -0.2176
     26  C5'       13.5710   12.0990   26.2650 C.3   170  FMN170      0.1892
     27  O5'       12.3050   11.4750   26.4470 O.3   170  FMN170     -0.2674
     28  P         10.9160   12.2670   26.5320 P.3   170  FMN170      0.5327
     29  O1P       10.9760   13.0690   27.8180 O.3   170  FMN170     -0.1145
     30  O2P       10.8160   13.1630   25.3230 O.2   170  FMN170     -0.2224
     31  O3P        9.8350   11.1970   26.5740 O.3   170  FMN170     -0.1145
@<TRIPOS>BOND
     1    25    24    1
     2    23    22    1
     3    30    28    2
     4    22    24    1
     5    22    20    1
     6    24    26    1
     7    26    27    1
     8    27    28    1
     9    19    20    1
    10    19    17    1
    11    28    31    1
    12    28    29    1
    13    20    21    1
    14     3     2    2
    15     1     2    2
    16     1    18    2
    17    17    18    1
    18    17    16    1
    19     2     4    2
    20    15    16    1
    21    15    13    2
    22    18     7    1
    23    14    13    1
    24    16     9    1
    25    13    11    1
    26     4     5    2
    27     7     5    1
    28     7     8    2
    29     9     8    2
    30     9    10    1
    31     5     6    2
    32    11    10    2
    33    11    12    1
