@<TRIPOS>MOLECULE
2v5w_III_G_1.pdb
 12 11 0 0 0
SMALL
GASTEIGER

@<TRIPOS>ATOM
      1  N         22.1720  -15.4180   16.9250 N.3     1  GLY1       -0.1210
      2  CA        22.7520  -16.5010   16.0990 C.3     1  GLY1        0.1956
      3  C         24.2540  -16.4630   16.2230 C.2     1  GLY1        0.2612
      4  O         24.9490  -16.0920   15.2740 O.2     1  GLY1       -0.2717
      5  N         24.7440  -16.8390   17.4060 N.am    2  GLY2       -0.1942
      6  CA        26.1300  -16.6150   17.7760 C.3     2  GLY2        0.2014
      7  C         26.8220  -17.8400   18.3110 C.2     2  GLY2        0.2639
      8  O         26.2680  -18.9360   18.2550 O.2     2  GLY2       -0.2714
      9  N         28.0470  -17.6510   18.8010 N.am    3  GLY3       -0.1954
     10  CA        28.8220  -18.7250   19.4130 C.3     3  GLY3        0.1869
     11  C         30.2020  -18.3130   19.8970 C.2     3  GLY3        0.2309
     12  O         30.3830  -17.9680   21.0610 O.2     3  GLY3       -0.2863
@<TRIPOS>BOND
     1     4     3    2
     2     2     3    1
     3     2     1    1
     4     3     5   am
     5     5     6    1
     6     6     7    1
     7     8     7    2
     8     7     9   am
     9     9    10    1
    10    10    11    1
    11    11    12    2
