@<TRIPOS>MOLECULE
2v5x_V5X_A_1.pdb
 46 50 0 0 0
SMALL
GASTEIGER

@<TRIPOS>ATOM
      1  CBI       12.8710   10.8500   52.5410 C.3   1380  V5X1380     0.0661
      2  CBJ       13.3400   11.1680   51.0980 C.2   1380  V5X1380     0.1059
      3  NBQ       13.7750   12.3620   50.6780 N.2   1380  V5X1380    -0.4065
      4  CBR       14.1020   12.2680   49.3900 C.ar  1380  V5X1380     0.1309
      5  CBS       14.6020   13.2090   48.4780 C.ar  1380  V5X1380     0.0351
      6  CBT       14.8600   12.8110   47.1600 C.ar  1380  V5X1380     0.0395
      7  CBN       14.6240   11.4860   46.7570 C.ar  1380  V5X1380     0.1389
      8  OBO       14.8820   11.0600   45.4830 O.3   1380  V5X1380    -0.4714
      9  CBP       14.0240   11.6760   44.5110 C.3   1380  V5X1380     0.2525
     10  CBM       14.1310   10.5550   47.6720 C.ar  1380  V5X1380     0.0392
     11  CBL       13.8690   10.9480   48.9830 C.ar  1380  V5X1380     0.0312
     12  CBK       13.3930   10.2400   50.0720 C.2   1380  V5X1380     0.0150
     13  CBH       13.0080    8.7490   50.1170 C.3   1380  V5X1380     0.1154
     14  CBF       14.2620    7.8750   49.9790 C.2   1380  V5X1380     0.2463
     15  OBG       14.6390    7.4580   48.8820 O.2   1380  V5X1380    -0.2730
     16  N         14.8500    7.6470   51.1510 N.am  1380  V5X1380    -0.1975
     17  CA        16.0760    6.8570   51.4960 C.3   1380  V5X1380     0.1727
     18  CB        17.3990    7.5650   51.1300 C.3   1380  V5X1380     0.0311
     19  CAV       18.6020    6.6210   51.3370 C.3   1380  V5X1380     0.0023
     20  CAW       19.7730    7.2020   52.1240 C.3   1380  V5X1380     0.0005
     21  CAX       21.0910    6.4620   51.8400 C.3   1380  V5X1380     0.0067
     22  CAY       22.2620    7.0480   52.6290 C.3   1380  V5X1380     0.0512
     23  CAZ       23.6310    6.8460   51.9410 C.2   1380  V5X1380     0.0868
     24  OBE       24.1670    5.7340   51.8260 O.2   1380  V5X1380    -0.5396
     25  NBA       24.1910    7.9640   51.5220 N.am  1380  V5X1380    -0.2030
     26  OBB       25.4090    7.9740   50.9050 O.3   1380  V5X1380    -0.4026
     27  C         16.1010    5.3230   51.1720 C.2   1380  V5X1380     0.2612
     28  O         16.6290    4.8140   50.1810 O.2   1380  V5X1380    -0.2715
     29  NAR       15.5710    4.5850   52.1180 N.am  1380  V5X1380    -0.2036
     30  CAQ       15.5330    3.1120   52.0510 C.3   1380  V5X1380     0.1200
     31  CAP       15.0790    2.4370   50.7300 C.3   1380  V5X1380     0.0524
     32  CAL       15.1580    0.9330   51.0480 C.2   1380  V5X1380     0.0116
     33  CAM       14.5320    0.4030   52.1720 C.ar  1380  V5X1380     0.0281
     34  CAN       13.7410    1.0020   53.1640 C.ar  1380  V5X1380     0.0023
     35  CAO       13.2170    0.2430   54.1990 C.ar  1380  V5X1380     0.0002
     36  CAK       13.5100   -1.1140   54.2040 C.ar  1380  V5X1380     0.0026
     37  CAJ       14.2970   -1.7110   53.2160 C.ar  1380  V5X1380     0.0320
     38  CAI       14.8160   -0.9550   52.1810 C.ar  1380  V5X1380     0.1311
     39  NAH       15.5920   -1.2490   51.1220 N.2   1380  V5X1380    -0.4022
     40  CAG       15.8540   -0.1240   50.4250 C.2   1380  V5X1380     0.1275
     41  CAF       16.5460    0.0000   49.2030 C.ar  1380  V5X1380     0.0293
     42  CAE       16.6150   -1.1090   48.3580 C.ar  1380  V5X1380     0.0025
     43  CAD       17.2180   -1.0330   47.1050 C.ar  1380  V5X1380     0.0001
     44  CAA       17.7480    0.1730   46.6570 C.ar  1380  V5X1380     0.0000
     45  CAB       17.6610    1.2980   47.4770 C.ar  1380  V5X1380     0.0001
     46  CAC       17.0480    1.2130   48.7320 C.ar  1380  V5X1380     0.0025
@<TRIPOS>BOND
     1     9     8    1
     2     8     7    1
     3    44    43   ar
     4    44    45   ar
     5     7     6   ar
     6     7    10   ar
     7    43    42   ar
     8     6     5   ar
     9    45    46   ar
    10    10    11   ar
    11    42    41   ar
    12     5     4   ar
    13    46    41   ar
    14    15    14    2
    15    11     4   ar
    16    11    12    2
    17    41    40    1
    18     4     3    2
    19    14    13    1
    20    14    16   am
    21    12    13    1
    22    12     2    1
    23    28    27    2
    24    40    32    1
    25    40    39    2
    26     3     2    2
    27    31    32    1
    28    31    30    1
    29    26    25    1
    30    32    33    2
    31     2     1    1
    32    39    38    2
    33    18    19    1
    34    18    17    1
    35    16    17    1
    36    27    17    1
    37    27    29   am
    38    19    20    1
    39    25    23   am
    40    24    23    2
    41    21    20    1
    42    21    22    1
    43    23    22    1
    44    30    29    1
    45    33    38   ar
    46    33    34   ar
    47    38    37   ar
    48    34    35   ar
    49    37    36   ar
    50    35    36   ar
