@<TRIPOS>MOLECULE
2v5z_SAG_A_1.pdb
 22 23 0 0 0
SMALL
GASTEIGER

@<TRIPOS>ATOM
      1  F3        47.1730  160.0360   32.0130 F     1503  SAG1503    -0.2042
      2  C3        48.4510  160.3040   31.8110 C.ar  1503  SAG1503     0.1399
      3  C2        49.1780  159.5640   30.9480 C.ar  1503  SAG1503     0.0289
      4  C4        49.0320  161.3200   32.4750 C.ar  1503  SAG1503     0.0296
      5  C5        50.3260  161.5980   32.2790 C.ar  1503  SAG1503     0.0021
      6  C6        51.0510  160.8720   31.4200 C.ar  1503  SAG1503    -0.0005
      7  C1        50.4820  159.8480   30.7510 C.ar  1503  SAG1503     0.0234
      8  C7        51.3260  159.0300   29.7870 C.3   1503  SAG1503     0.2321
      9  O8        51.0800  157.6280   29.9730 O.3   1503  SAG1503    -0.4706
     10  C9        51.5670  156.6400   29.1290 C.ar  1503  SAG1503     0.1391
     11  C10       52.5190  156.8860   28.1280 C.ar  1503  SAG1503     0.0370
     12  C11       52.9680  155.8440   27.2980 C.ar  1503  SAG1503     0.0046
     13  C14       51.0820  155.3440   29.2870 C.ar  1503  SAG1503     0.0370
     14  C13       51.5350  154.3090   28.4660 C.ar  1503  SAG1503     0.0046
     15  C12       52.4800  154.5360   27.4630 C.ar  1503  SAG1503     0.0189
     16  C15       52.8510  153.5100   26.7390 C.2   1503  SAG1503     0.0936
     17  N16       53.7270  153.6890   25.9780 N.2   1503  SAG1503    -0.2615
     18  C17       53.9980  152.7180   24.9280 C.3   1503  SAG1503     0.1824
     19  C18       54.1690  153.4200   23.5830 C.3   1503  SAG1503     0.0363
     20  C19       55.2460  151.9280   25.2050 C.2   1503  SAG1503     0.2830
     21  O20       55.3210  150.7680   24.8150 O.2   1503  SAG1503    -0.2696
     22  N21       56.2530  152.5120   25.8610 N.am  1503  SAG1503    -0.0861
@<TRIPOS>BOND
     1    19    18    1
     2    21    20    2
     3    18    20    1
     4    18    17    1
     5    20    22   am
     6    17    16    2
     7    16    15    1
     8    12    15   ar
     9    12    11   ar
    10    15    14   ar
    11    11    10   ar
    12    14    13   ar
    13    10    13   ar
    14    10     9    1
    15     8     9    1
    16     8     7    1
    17     7     3   ar
    18     7     6   ar
    19     3     2   ar
    20     6     5   ar
    21     2     1    1
    22     2     4   ar
    23     5     4   ar
