@<TRIPOS>MOLECULE
2v60_C17_A_1.pdb
 22 24 0 0 0
SMALL
GASTEIGER

@<TRIPOS>ATOM
      1  O2C       54.1420  156.4920   24.0510 O.2   1503  C171503    -0.2445
      2  C2        53.4450  156.1350   25.0310 C.ar  1503  C171503     0.3460
      3  O1        53.0110  157.0910   25.8990 O.2   1503  C171503    -0.4209
      4  C9        52.2490  156.7630   26.9900 C.ar  1503  C171503     0.1518
      5  C10       51.8800  155.4550   27.2520 C.ar  1503  C171503     0.0383
      6  C4        52.3060  154.4680   26.3710 C.ar  1503  C171503     0.0516
      7  C4C       51.9570  153.0430   26.5980 C.2   1503  C171503     0.2345
      8  O4C       51.2720  152.7160   27.5850 O.2   1503  C171503    -0.2831
      9  C3        53.0880  154.8060   25.2550 C.ar  1503  C171503     0.0857
     10  C8        51.8020  157.8210   27.9100 C.ar  1503  C171503     0.0745
     11  C7        51.0380  157.5260   28.9800 C.ar  1503  C171503     0.1421
     12  C6        50.6760  156.2440   29.2400 C.ar  1503  C171503     0.0371
     13  C5        51.0450  155.2110   28.4600 C.ar  1503  C171503     0.0063
     14  O7C       50.6170  158.6320   29.8570 O.3   1503  C171503    -0.4705
     15  C7B       50.8090  160.0270   29.5370 C.3   1503  C171503     0.2320
     16  C1B       49.9370  160.7740   30.5050 C.ar  1503  C171503     0.0220
     17  C6B       50.4360  161.7700   31.3590 C.ar  1503  C171503    -0.0006
     18  C5B       49.5550  162.3850   32.2490 C.ar  1503  C171503     0.0007
     19  C4B       48.1930  162.0180   32.2850 C.ar  1503  C171503     0.0114
     20  C3B       47.7120  161.0370   31.4150 C.ar  1503  C171503     0.0575
     21 CL3        46.2790  160.6010   31.3990 Cl    1503  C171503    -0.0823
     22  C2B       48.5930  160.4160   30.5380 C.ar  1503  C171503     0.0107
@<TRIPOS>BOND
     1     1     2    2
     2     2     9   ar
     3     2     3   ar
     4     9     6   ar
     5     3     4   ar
     6     6     7    1
     7     6     5   ar
     8     7     8    2
     9     4     5   ar
    10     4    10   ar
    11     5    13   ar
    12    10    11   ar
    13    13    12   ar
    14    11    12   ar
    15    11    14    1
    16    15    14    1
    17    15    16    1
    18    16    22   ar
    19    16    17   ar
    20    22    20   ar
    21    17    18   ar
    22    21    20    1
    23    20    19   ar
    24    18    19   ar
