@<TRIPOS>MOLECULE
2v61_C18_A_1.pdb
 23 25 0 0 0
SMALL
GASTEIGER

@<TRIPOS>ATOM
      1  O2C       54.5720  155.1180   24.1150 O.2   1503  C181503    -0.2445
      2  C2        53.8490  154.7880   25.0770 C.ar  1503  C181503     0.3456
      3  O1        53.4030  155.7460   25.9750 O.2   1503  C181503    -0.4209
      4  C9        52.5920  155.3810   27.0530 C.ar  1503  C181503     0.1514
      5  C10       52.2240  154.0440   27.2500 C.ar  1503  C181503     0.0325
      6  C4        52.6860  153.0810   26.3350 C.ar  1503  C181503     0.0046
      7  N4C       51.4200  151.2570   27.4250 N.3   1503  C181503    -0.2118
      8  C4C       52.3880  151.6050   26.4190 C.3   1503  C181503     0.1153
      9  C4N       51.8430  150.8190   28.7400 C.3   1503  C181503     0.1079
     10  C3        53.4910  153.4550   25.2630 C.ar  1503  C181503     0.0795
     11  C8        52.1650  156.3700   27.9360 C.ar  1503  C181503     0.0745
     12  C7        51.3490  156.0580   29.0210 C.ar  1503  C181503     0.1421
     13  C6        50.9730  154.7290   29.2250 C.ar  1503  C181503     0.0371
     14  C5        51.4170  153.7350   28.3470 C.ar  1503  C181503     0.0059
     15  O7C       50.9130  157.0500   29.8840 O.3   1503  C181503    -0.4705
     16  C7B       51.0980  158.3960   29.6420 C.3   1503  C181503     0.2320
     17  C1B       50.1580  159.1500   30.5550 C.ar  1503  C181503     0.0220
     18  C6B       50.6400  160.1360   31.4170 C.ar  1503  C181503    -0.0006
     19  C5B       49.7470  160.7950   32.2630 C.ar  1503  C181503     0.0007
     20  C4B       48.3830  160.4780   32.2370 C.ar  1503  C181503     0.0114
     21  C3B       47.9010  159.4930   31.3710 C.ar  1503  C181503     0.0575
     22 CL3        46.5960  159.1790   31.3410 Cl    1503  C181503    -0.0823
     23  C2B       48.8000  158.8310   30.5410 C.ar  1503  C181503     0.0107
@<TRIPOS>BOND
     1     1     2    2
     2     2    10   ar
     3     2     3   ar
     4    10     6   ar
     5     3     4   ar
     6     6     8    1
     7     6     5   ar
     8     8     7    1
     9     4     5   ar
    10     4    11   ar
    11     5    14   ar
    12     7     9    1
    13    11    12   ar
    14    14    13   ar
    15    12    13   ar
    16    12    15    1
    17    16    15    1
    18    16    17    1
    19    23    17   ar
    20    23    21   ar
    21    17    18   ar
    22    22    21    1
    23    21    20   ar
    24    18    19   ar
    25    20    19   ar
