@<TRIPOS>MOLECULE
2v63_CAP_A_1.pdb
 21 20 0 0 0
SMALL
GASTEIGER

@<TRIPOS>ATOM
      1  C1        21.1840   83.3490   97.0550 C.3   476  CAP476      0.1978
      2  C2        20.1740   83.8810   96.0410 C.3   476  CAP476      0.2763
      3  C3        19.3480   85.0310   96.6390 C.3   476  CAP476      0.2253
      4  C4        20.1480   86.2970   96.9390 C.3   476  CAP476      0.2152
      5  C5        19.2660   87.5330   96.9770 C.3   476  CAP476      0.1892
      6  C         20.8170   84.3320   94.7310 C.2   476  CAP476      0.3967
      7  O1        21.7880   82.1620   96.5970 O.3   476  CAP476     -0.2669
      8  O2        19.2300   82.8200   95.7080 O.3   476  CAP476     -0.2086
      9  O3        18.2900   85.3300   95.7320 O.3   476  CAP476     -0.2170
     10  O4        20.7550   86.1730   98.2000 O.3   476  CAP476     -0.2176
     11  O5        20.0110   88.5770   97.5500 O.3   476  CAP476     -0.2674
     12  O6        22.0140   84.6990   94.6660 O.co2 476  CAP476     -0.2428
     13  O7        20.1100   84.3620   93.6840 O.co2 476  CAP476     -0.2428
     14  P1        22.9230   81.4760   97.5150 P.3   476  CAP476      0.5327
     15  P2        19.3930   89.4720   98.7370 P.3   476  CAP476      0.5327
     16  O1P       23.4460   80.2970   96.7320 O.2   476  CAP476     -0.2224
     17  O2P       23.9890   82.4970   97.7680 O.3   476  CAP476     -0.1145
     18  O3P       22.2580   81.0340   98.7910 O.3   476  CAP476     -0.1145
     19  O4P       20.4690   90.4230   99.2250 O.3   476  CAP476     -0.1145
     20  O5P       18.9150   88.5460   99.8320 O.3   476  CAP476     -0.1145
     21  O6P       18.2370   90.2740   98.1860 O.2   476  CAP476     -0.2224
@<TRIPOS>BOND
     1    13     6   ar
     2    12     6   ar
     3     6     2    1
     4     8     2    1
     5     9     3    1
     6     2     3    1
     7     2     1    1
     8     7     1    1
     9     7    14    1
    10     3     4    1
    11    16    14    2
    12     4     5    1
    13     4    10    1
    14     5    11    1
    15    14    17    1
    16    14    18    1
    17    11    15    1
    18    21    15    2
    19    15    19    1
    20    15    20    1
