@<TRIPOS>MOLECULE
2v67_CAP_A_1.pdb
 21 20 0 0 0
SMALL
GASTEIGER

@<TRIPOS>ATOM
      1  C1        20.4120   83.2970   97.1760 C.3   477  CAP477      0.1978
      2  C2        19.4590   83.8790   96.1380 C.3   477  CAP477      0.2763
      3  C3        18.6500   85.0340   96.7290 C.3   477  CAP477      0.2253
      4  C4        19.4860   86.2710   97.0600 C.3   477  CAP477      0.2152
      5  C5        18.6470   87.5330   97.0850 C.3   477  CAP477      0.1892
      6  C         20.1670   84.3060   94.8590 C.2   477  CAP477      0.3967
      7  O1        21.1180   82.1920   96.6790 O.3   477  CAP477     -0.2669
      8  O2        18.5170   82.8610   95.7240 O.3   477  CAP477     -0.2086
      9  O3        17.6080   85.3490   95.8320 O.3   477  CAP477     -0.2170
     10  O4        20.0460   86.0930   98.3420 O.3   477  CAP477     -0.2176
     11  O5        19.4220   88.5620   97.6570 O.3   477  CAP477     -0.2674
     12  O6        21.3820   84.6060   94.8390 O.co2 477  CAP477     -0.2428
     13  O7        19.4950   84.3510   93.8030 O.co2 477  CAP477     -0.2428
     14  P1        22.2050   81.5040   97.6350 P.3   477  CAP477      0.5327
     15  P2        18.7630   89.4760   98.7930 P.3   477  CAP477      0.5327
     16  O1P       22.7980   80.3330   96.8890 O.2   477  CAP477     -0.2224
     17  O2P       23.2710   82.5100   97.9390 O.3   477  CAP477     -0.1145
     18  O3P       21.5210   81.0520   98.8890 O.3   477  CAP477     -0.1145
     19  O4P       19.8140   90.4480   99.2870 O.3   477  CAP477     -0.1145
     20  O5P       18.2970   88.5920   99.9330 O.3   477  CAP477     -0.1145
     21  O6P       17.5860   90.2320   98.2300 O.2   477  CAP477     -0.2224
@<TRIPOS>BOND
     1    13     6   ar
     2    12     6   ar
     3     6     2    1
     4     8     2    1
     5     9     3    1
     6     2     3    1
     7     2     1    1
     8     7     1    1
     9     7    14    1
    10     3     4    1
    11    16    14    2
    12     4     5    1
    13     4    10    1
    14     5    11    1
    15    14    17    1
    16    14    18    1
    17    11    15    1
    18    21    15    2
    19    15    19    1
    20    15    20    1
