@<TRIPOS>MOLECULE
2v68_CAP_A_1.pdb
 21 20 0 0 0
SMALL
GASTEIGER

@<TRIPOS>ATOM
      1  C1        20.3860   83.1890   97.4670 C.3   477  CAP477      0.1978
      2  C2        19.4810   83.7920   96.4040 C.3   477  CAP477      0.2763
      3  C3        18.6550   84.9380   96.9940 C.3   477  CAP477      0.2253
      4  C4        19.4790   86.1400   97.4130 C.3   477  CAP477      0.2152
      5  C5        18.7130   87.4430   97.2680 C.3   477  CAP477      0.1892
      6  C         20.2470   84.2370   95.1610 C.2   477  CAP477      0.3967
      7  O1        21.0920   82.0880   96.9420 O.3   477  CAP477     -0.2669
      8  O2        18.5630   82.7530   95.9550 O.3   477  CAP477     -0.2086
      9  O3        17.6690   85.3230   96.0620 O.3   477  CAP477     -0.2170
     10  O4        19.8320   85.9600   98.7710 O.3   477  CAP477     -0.2176
     11  O5        19.4770   88.4520   97.8790 O.3   477  CAP477     -0.2674
     12  O6        21.4700   84.5090   95.2020 O.co2 477  CAP477     -0.2428
     13  O7        19.6240   84.3150   94.0660 O.co2 477  CAP477     -0.2428
     14  P1        22.1980   81.3950   97.8650 P.3   477  CAP477      0.5327
     15  P2        18.8610   89.4020   99.0180 P.3   477  CAP477      0.5327
     16  O1P       22.7180   80.2040   97.1220 O.2   477  CAP477     -0.2224
     17  O2P       23.2850   82.3870   98.1810 O.3   477  CAP477     -0.1145
     18  O3P       21.5150   80.9480   99.1310 O.3   477  CAP477     -0.1145
     19  O4P       19.9780   90.3190   99.5050 O.3   477  CAP477     -0.1145
     20  O5P       18.3430   88.5520  100.1420 O.3   477  CAP477     -0.1145
     21  O6P       17.7300   90.2290   98.4450 O.2   477  CAP477     -0.2224
@<TRIPOS>BOND
     1    13     6   ar
     2     6    12   ar
     3     6     2    1
     4     8     2    1
     5     9     3    1
     6     2     3    1
     7     2     1    1
     8     7     1    1
     9     7    14    1
    10     3     4    1
    11    16    14    2
    12     5     4    1
    13     5    11    1
    14     4    10    1
    15    14    17    1
    16    14    18    1
    17    11    15    1
    18    21    15    2
    19    15    19    1
    20    15    20    1
