@<TRIPOS>MOLECULE
2v69_CAP_A_1.pdb
 21 20 0 0 0
SMALL
GASTEIGER

@<TRIPOS>ATOM
      1  C1        38.5130  -19.8600   28.8280 C.3   1471  CAP1471     0.1978
      2  C2        37.8090  -18.6680   28.1550 C.3   1471  CAP1471     0.2763
      3  C3        38.5050  -17.3400   28.4500 C.3   1471  CAP1471     0.2253
      4  C4        39.9660  -17.2880   27.9830 C.3   1471  CAP1471     0.2152
      5  C5        40.3970  -15.9530   27.3720 C.3   1471  CAP1471     0.1892
      6  C         37.7010  -18.8440   26.6510 C.2   1471  CAP1471     0.3967
      7  O1        37.7740  -21.0600   28.6950 O.3   1471  CAP1471    -0.2669
      8  O2        36.4340  -18.5640   28.6270 O.3   1471  CAP1471    -0.2086
      9  O3        37.7180  -16.2980   27.9110 O.3   1471  CAP1471    -0.2170
     10  O4        40.8040  -17.5110   29.1020 O.3   1471  CAP1471    -0.2176
     11  O5        41.8060  -15.9400   27.2510 O.3   1471  CAP1471    -0.2674
     12  O6        38.4940  -19.5720   26.0100 O.co2 1471  CAP1471    -0.2428
     13  O7        36.7870  -18.2410   26.0400 O.co2 1471  CAP1471    -0.2428
     14  P1        38.4070  -22.4630   29.1770 P.3   1471  CAP1471     0.5327
     15  P2        42.7210  -14.8630   28.0270 P.3   1471  CAP1471     0.5327
     16  O1P       37.3490  -23.5390   28.9740 O.3   1471  CAP1471    -0.1145
     17  O2P       39.6280  -22.7110   28.3300 O.2   1471  CAP1471    -0.2224
     18  O3P       38.8340  -22.4000   30.6230 O.3   1471  CAP1471    -0.1145
     19  O4P       44.1440  -14.9600   27.5190 O.2   1471  CAP1471    -0.2224
     20  O5P       42.5780  -15.1070   29.5160 O.3   1471  CAP1471    -0.1145
     21  O6P       42.3180  -13.4700   27.6570 O.3   1471  CAP1471    -0.1145
@<TRIPOS>BOND
     1    12     6   ar
     2    13     6   ar
     3     6     2    1
     4    11     5    1
     5    11    15    1
     6     5     4    1
     7    19    15    2
     8    21    15    1
     9     9     3    1
    10     4     3    1
    11     4    10    1
    12    15    20    1
    13     2     3    1
    14     2     8    1
    15     2     1    1
    16    17    14    2
    17     7     1    1
    18     7    14    1
    19    16    14    1
    20    14    18    1
