@<TRIPOS>MOLECULE
2v6a_CAP_A_1.pdb
 21 20 0 0 0
SMALL
GASTEIGER

@<TRIPOS>ATOM
      1  C1        19.8060   90.5760   99.5330 C.3   1477  CAP1477     0.1978
      2  C2        21.1820   89.9180   99.4360 C.3   1477  CAP1477     0.2763
      3  C3        22.0020   90.1750  100.7050 C.3   1477  CAP1477     0.2253
      4  C4        21.4920   89.4480  101.9390 C.3   1477  CAP1477     0.2152
      5  C5        22.5690   89.3190  103.0140 C.3   1477  CAP1477     0.1892
      6  C         21.0990   88.4240   99.1610 C.2   1477  CAP1477     0.3967
      7  O1        19.0970   90.4400   98.3260 O.3   1477  CAP1477    -0.2669
      8  O2        21.8890   90.5350   98.3170 O.3   1477  CAP1477    -0.2086
      9  O3        23.3380   89.7620  100.4770 O.3   1477  CAP1477    -0.2170
     10  O4        20.4510   90.2440  102.4500 O.3   1477  CAP1477    -0.2176
     11  O5        21.9360   88.9670  104.2250 O.3   1477  CAP1477    -0.2674
     12  O6        20.1050   87.7420   99.5140 O.co2 1477  CAP1477    -0.2428
     13  O7        22.0640   87.8570   98.6020 O.co2 1477  CAP1477    -0.2428
     14  P1        17.6060   91.0530   98.2770 P.3   1477  CAP1477     0.5327
     15  P2        22.3270   89.7000  105.5940 P.3   1477  CAP1477     0.5327
     16  O1P       17.0990   90.7810   96.8930 O.2   1477  CAP1477    -0.2224
     17  O2P       16.7990   90.3750   99.3470 O.3   1477  CAP1477    -0.1145
     18  O3P       17.7160   92.5380   98.5600 O.3   1477  CAP1477    -0.1145
     19  O4P       21.4250   89.1180  106.6800 O.3   1477  CAP1477    -0.1145
     20  O5P       22.1670   91.1730  105.3800 O.2   1477  CAP1477    -0.2224
     21  O6P       23.7940   89.3750  105.8990 O.3   1477  CAP1477    -0.1145
@<TRIPOS>BOND
     1    16    14    2
     2    14     7    1
     3    14    18    1
     4    14    17    1
     5     8     2    1
     6     7     1    1
     7    13     6   ar
     8     6     2    1
     9     6    12   ar
    10     2     1    1
    11     2     3    1
    12     9     3    1
    13     3     4    1
    14     4    10    1
    15     4     5    1
    16     5    11    1
    17    11    15    1
    18    20    15    2
    19    15    21    1
    20    15    19    1
