@<TRIPOS>MOLECULE
2v6g_NAP_A_1.pdb
 48 52 0 0 0
SMALL
GASTEIGER

@<TRIPOS>ATOM
      1  PA        -5.5630  -26.5400   31.7300 P.3   1390  NAP1390     0.2189
      2  O1A       -6.9230  -26.0370   31.4730 O.3   1390  NAP1390    -0.4371
      3  O2A       -4.4820  -25.7480   31.1170 O.2   1390  NAP1390    -0.5170
      4  O5B       -5.3920  -28.0770   31.3710 O.3   1390  NAP1390    -0.3112
      5  C5B       -6.3270  -29.0210   31.8280 C.3   1390  NAP1390     0.1813
      6  C4B       -5.8230  -30.3820   31.3810 C.3   1390  NAP1390     0.1820
      7  O4B       -6.5640  -31.4260   31.9830 O.3   1390  NAP1390    -0.3136
      8  C3B       -5.9460  -30.5760   29.8620 C.3   1390  NAP1390     0.2157
      9  O3B       -4.8910  -31.3980   29.4070 O.3   1390  NAP1390    -0.2175
     10  C2B       -7.2320  -31.3390   29.6900 C.3   1390  NAP1390     0.2314
     11  O2B       -7.2370  -32.0760   28.4700 O.3   1390  NAP1390    -0.2630
     12  C1B       -7.1910  -32.1990   30.9610 C.3   1390  NAP1390     0.3158
     13  N9A       -8.5180  -32.6080   31.4470 N.pl3 1390  NAP1390    -0.1439
     14  C8A       -9.6170  -31.8150   31.7360 C.3   1390  NAP1390     0.3377
     15  N7A      -10.5990  -32.6280   32.2040 N.2   1390  NAP1390    -0.2095
     16  C5A      -10.1270  -33.9040   32.2070 C.2   1390  NAP1390     0.2526
     17  C6A      -10.6990  -35.1200   32.5610 C.2   1390  NAP1390     0.4393
     18  N6A      -11.9540  -35.1540   32.9810 N.pl3 1390  NAP1390     0.2180
     19  N1A       -9.9570  -36.2800   32.4580 N.2   1390  NAP1390     0.0021
     20  C2A       -8.6460  -36.2470   31.9990 C.3   1390  NAP1390     0.5254
     21  N3A       -8.0820  -35.0250   31.6480 N.2   1390  NAP1390    -0.0055
     22  C4A       -8.8160  -33.8950   31.7500 C.2   1390  NAP1390     0.3518
     23  O3        -5.3960  -26.5380   33.3840 O.3   1390  NAP1390    -0.2703
     24  PN        -4.4820  -25.6210   34.4020 P.3   1390  NAP1390     0.2189
     25  O1N       -3.0350  -25.9830   34.2100 O.2   1390  NAP1390    -0.5170
     26  O2N       -4.9530  -24.2340   34.2680 O.3   1390  NAP1390    -0.4371
     27  O5D       -4.6950  -26.3720   35.8030 O.3   1390  NAP1390    -0.3112
     28  C5D       -5.8200  -26.2670   36.5680 C.3   1390  NAP1390     0.1813
     29  C4D       -5.4310  -25.7860   37.9580 C.3   1390  NAP1390     0.1799
     30  O4D       -4.4670  -24.7230   37.9380 O.3   1390  NAP1390    -0.3327
     31  C3D       -6.7410  -25.2390   38.4890 C.3   1390  NAP1390     0.2158
     32  O3D       -6.8860  -25.5160   39.8490 O.3   1390  NAP1390    -0.2175
     33  C2D       -6.5910  -23.7820   38.1430 C.3   1390  NAP1390     0.2309
     34  O2D       -7.5170  -23.0150   38.8670 O.3   1390  NAP1390    -0.2158
     35  C1D       -5.1040  -23.5680   38.4500 C.3   1390  NAP1390     0.2263
     36  N1N       -4.6050  -22.2610   37.9520 N.pl3 1390  NAP1390    -0.2787
     37  C2N       -4.6210  -21.9350   36.6140 C.3   1390  NAP1390     0.1244
     38  C3N       -4.1870  -20.6670   36.2000 C.2   1390  NAP1390     0.0544
     39  C7N       -3.9970  -20.3690   34.7350 C.2   1390  NAP1390     0.2818
     40  O7N       -3.6390  -19.0610   34.3510 O.2   1390  NAP1390    -0.2670
     41  N7N       -4.1700  -21.3650   33.8500 N.am  1390  NAP1390    -0.0839
     42  C4N       -3.7390  -19.7500   37.1470 C.2   1390  NAP1390     0.0033
     43  C5N       -3.7430  -20.0960   38.4960 C.2   1390  NAP1390     0.0157
     44  C6N       -4.1860  -21.3470   38.8830 C.2   1390  NAP1390     0.0633
     45  P2B       -8.6280  -32.6150   27.8250 P.3   1390  NAP1390     0.5328
     46  O1X       -9.6080  -31.4800   27.7900 O.3   1390  NAP1390    -0.1145
     47  O2X       -9.1220  -33.7770   28.6490 O.3   1390  NAP1390    -0.1145
     48  O3X       -8.3370  -33.1460   26.4400 O.2   1390  NAP1390    -0.2224
@<TRIPOS>BOND
     1    48    45    2
     2    46    45    1
     3    45    11    1
     4    45    47    1
     5    11    10    1
     6     9     8    1
     7    10     8    1
     8    10    12    1
     9     8     6    1
    10    12    13    1
    11    12     7    1
    12     3     1    2
    13     4     1    1
    14     4     5    1
    15     6     5    1
    16     6     7    1
    17    13    14    1
    18    13    22    1
    19     2     1    1
    20    21    22    2
    21    21    20    1
    22     1    23    1
    23    14    15    1
    24    22    16    1
    25    20    19    1
    26    15    16    2
    27    16    17    1
    28    19    17    2
    29    17    18    1
    30    23    24    1
    31    41    39   am
    32    25    24    2
    33    26    24    1
    34    40    39    2
    35    24    27    1
    36    39    38    1
    37    27    28    1
    38    38    37    1
    39    38    42    2
    40    28    29    1
    41    37    36    1
    42    42    43    1
    43    30    29    1
    44    30    35    1
    45    36    35    1
    46    36    44    1
    47    29    31    1
    48    33    35    1
    49    33    31    1
    50    33    34    1
    51    31    32    1
    52    43    44    2
