@<TRIPOS>MOLECULE
2v6k_TGG_A_1.pdb
 28 27 0 0 0
SMALL
GASTEIGER

@<TRIPOS>ATOM
      1  OC1       -4.2920   22.2420   61.3040 O.co2 1213  TGG1213    -0.2441
      2  CO1       -5.4030   21.8150   60.9300 C.2   1213  TGG1213     0.3819
      3  OT1       -5.9540   20.8020   61.4080 O.co2 1213  TGG1213    -0.2441
      4  CA1       -6.1140   22.5860   59.8550 C.3   1213  TGG1213     0.1945
      5  NN1       -5.8790   24.0160   60.0190 N.3   1213  TGG1213    -0.1208
      6  CB1       -5.6080   22.1840   58.4740 C.3   1213  TGG1213     0.0347
      7  CG1       -5.9290   20.7300   58.1690 C.3   1213  TGG1213     0.0534
      8  CD1       -5.7260   20.3250   56.7150 C.3   1213  TGG1213     0.2257
      9  OE1       -5.0300   21.2540   55.9190 O.3   1213  TGG1213    -0.2037
     10  NN2       -5.1350   19.0250   56.6410 N.3   1213  TGG1213    -0.1857
     11  CA2       -4.4990   18.5190   55.4550 C.3   1213  TGG1213     0.1333
     12  CO2       -5.6650   17.9950   54.6280 C.3   1213  TGG1213     0.2430
     13  OC2       -6.3050   16.8720   55.1830 O.3   1213  TGG1213    -0.2021
     14  NN3       -5.4190   17.8970   53.2210 N.3   1213  TGG1213    -0.1761
     15  CA3       -6.3660   17.2030   52.3720 C.3   1213  TGG1213     0.2050
     16  CO3       -6.6370   18.0240   51.1440 C.2   1213  TGG1213     0.3823
     17  OC3       -6.0640   19.1230   51.0060 O.co2 1213  TGG1213    -0.2440
     18  OT3       -7.4320   17.5370   50.3070 O.co2 1213  TGG1213    -0.2440
     19  CB2       -3.5000   17.5200   56.0040 C.3   1213  TGG1213     0.0796
     20  SG2       -2.7350   16.4690   54.8320 S.3   1213  TGG1213    -0.1277
     21  CD2       -1.6480   17.3900   53.7980 C.3   1213  TGG1213     0.1620
     22  CE2       -0.4180   17.7930   54.5770 C.2   1213  TGG1213     0.3748
     23  OE2        0.6830   17.2410   54.3490 O.co2 1213  TGG1213    -0.2447
     24  OF2       -0.5280   18.6820   55.4520 O.co2 1213  TGG1213    -0.2447
     25  CF2       -1.3400   16.4470   52.6350 C.3   1213  TGG1213     0.1362
     26  CH2       -0.5670   17.0850   51.5080 C.2   1213  TGG1213     0.3663
     27  OI2       -0.4930   18.3250   51.4440 O.co2 1213  TGG1213    -0.2456
     28  OJ2       -0.0160   16.3240   50.6780 O.co2 1213  TGG1213    -0.2456
@<TRIPOS>BOND
     1    18    16   ar
     2    28    26   ar
     3    17    16   ar
     4    16    15    1
     5    27    26   ar
     6    26    25    1
     7    15    14    1
     8    25    21    1
     9    14    12    1
    10    21    22    1
    11    21    20    1
    12    23    22   ar
    13    22    24   ar
    14    12    13    1
    15    12    11    1
    16    20    19    1
    17    11    19    1
    18    11    10    1
    19     9     8    1
    20    10     8    1
    21     8     7    1
    22     7     6    1
    23     6     4    1
    24     4     5    1
    25     4     2    1
    26     2     1   ar
    27     2     3   ar
