@<TRIPOS>MOLECULE
2v6t_H2B_A_1.pdb
 17 18 0 0 0
SMALL
GASTEIGER

@<TRIPOS>ATOM
      1  N1        16.5680   39.5810   10.2150 N.2   1104  H2B1104    -0.2672
      2  C2        16.0570   40.8310   10.2790 C.1   1104  H2B1104     0.2609
      3  N2        16.5750   41.8030    9.5550 N.pl3 1104  H2B1104    -0.0220
      4  N3        14.9770   41.1210   11.1190 N.2   1104  H2B1104    -0.2466
      5  C4        14.4370   40.0810   11.9040 C.1   1104  H2B1104     0.2569
      6  O4        13.4910   40.3270   12.6470 O.2   1104  H2B1104    -0.2052
      7  C4A       15.0110   38.7970   11.8600 C.2   1104  H2B1104     0.2989
      8  C8A       16.0600   38.5780   10.9780 C.1   1104  H2B1104     0.1401
      9  N5        14.4440   37.7070   12.5570 N.2   1104  H2B1104    -0.3830
     10  N8        16.5300   37.2810   10.9350 N.2   1104  H2B1104    -0.1992
     11  C6        14.5980   36.4120   11.9860 C.2   1104  H2B1104     0.1466
     12  C7        15.4610   36.2790   10.7500 C.3   1104  H2B1104     0.1940
     13  C9        13.9270   35.1660   12.5600 C.3   1104  H2B1104     0.2313
     14  O9        14.4490   34.8650   13.8580 O.3   1104  H2B1104    -0.2130
     15  C10       12.3820   35.4630   12.5140 C.3   1104  H2B1104     0.1888
     16  C11       11.7700   36.1260   13.7920 C.3   1104  H2B1104     0.0387
     17  O10       11.6700   34.2890   12.1610 O.3   1104  H2B1104    -0.2200
@<TRIPOS>BOND
     1     3     2    1
     2     1     2    2
     3     1     8    2
     4     2     4    2
     5    12    10    1
     6    12    11    1
     7    10     8    2
     8     8     7    1
     9     4     5    2
    10     7     5    1
    11     7     9    2
    12     5     6    2
    13    11     9    2
    14    11    13    1
    15    17    15    1
    16    15    13    1
    17    15    16    1
    18    13    14    1
