@<TRIPOS>MOLECULE
2v72_GAL_A_1.pdb
 12 12 0 0 0
SMALL
GASTEIGER

@<TRIPOS>ATOM
      1  C1        10.7430    7.8980   26.9820 C.3   1140  GAL1140     0.3024
      2  C2        11.7350    6.9840   26.2670 C.3   1140  GAL1140     0.2434
      3  C3        12.3960    7.7060   25.0880 C.3   1140  GAL1140     0.2199
      4  C4        11.3770    8.4310   24.2060 C.3   1140  GAL1140     0.2144
      5  C5        10.4050    9.2560   25.0380 C.3   1140  GAL1140     0.1836
      6  C6         9.3150    9.8520   24.1510 C.3   1140  GAL1140     0.2142
      7  O1        10.0260    7.1320   27.9150 O.3   1140  GAL1140    -0.1869
      8  O2        12.7030    6.5090   27.1800 O.3   1140  GAL1140    -0.2148
      9  O3        13.0830    6.7660   24.2950 O.3   1140  GAL1140    -0.2174
     10  O4        10.6430    7.4940   23.4480 O.3   1140  GAL1140    -0.2176
     11  O5         9.8210    8.4510   26.0560 O.3   1140  GAL1140    -0.3236
     12  O6         8.6460   10.8820   24.8470 O.3   1140  GAL1140    -0.2176
@<TRIPOS>BOND
     1    10     4    1
     2     6    12    1
     3     6     5    1
     4     4     5    1
     5     4     3    1
     6     9     3    1
     7     5    11    1
     8     3     2    1
     9    11     1    1
    10     2     1    1
    11     2     8    1
    12     1     7    1
