@<TRIPOS>MOLECULE
2v73_SIA_A_1.pdb
 21 21 0 0 0
SMALL
GASTEIGER

@<TRIPOS>ATOM
      1  C1        20.7940    3.3950   54.8630 C.2   1190  SIA1190     0.4179
      2  C2        20.7680    4.9130   55.1780 C.3   1190  SIA1190     0.3155
      3  C3        22.1520    5.5820   54.9170 C.3   1190  SIA1190     0.1056
      4  C4        22.4530    5.6430   53.3960 C.3   1190  SIA1190     0.1798
      5  C5        21.3260    6.3380   52.6370 C.3   1190  SIA1190     0.1554
      6  C6        19.9990    5.6180   52.9470 C.3   1190  SIA1190     0.1734
      7  C7        18.7430    6.2480   52.3570 C.3   1190  SIA1190     0.2135
      8  C8        17.4940    5.5640   52.9110 C.3   1190  SIA1190     0.2173
      9  C9        16.2510    5.9980   52.1430 C.3   1190  SIA1190     0.2175
     10  C10       21.5190    7.3340   50.3800 C.2   1190  SIA1190     0.2420
     11  C11       21.8260    7.0350   48.9160 C.3   1190  SIA1190     0.0964
     12  N5        21.5910    6.2740   51.1880 N.am  1190  SIA1190    -0.2020
     13  O1A       21.8770    2.7980   55.0360 O.co2 1190  SIA1190    -0.2401
     14  O1B       19.7260    2.8630   54.4660 O.co2 1190  SIA1190    -0.2401
     15  O2        20.3710    5.0900   56.5500 O.3   1190  SIA1190    -0.1830
     16  O4        23.6900    6.2960   53.1310 O.3   1190  SIA1190    -0.2210
     17  O6        19.7670    5.5790   54.3830 O.3   1190  SIA1190    -0.3220
     18  O7        18.7150    7.6340   52.7000 O.3   1190  SIA1190    -0.2176
     19  O8        17.6360    4.1400   52.8220 O.3   1190  SIA1190    -0.2175
     20  O9        15.1050    5.3930   52.7260 O.3   1190  SIA1190    -0.2175
     21  O10       21.2460    8.4790   50.7450 O.2   1190  SIA1190    -0.2733
@<TRIPOS>BOND
     1    11    10    1
     2    10    21    2
     3    10    12   am
     4    12     5    1
     5     9    20    1
     6     9     8    1
     7     7    18    1
     8     7     8    1
     9     7     6    1
    10     5     6    1
    11     5     4    1
    12    19     8    1
    13     6    17    1
    14    16     4    1
    15     4     3    1
    16    17     2    1
    17    14     1   ar
    18     1    13   ar
    19     1     2    1
    20     3     2    1
    21     2    15    1
