@<TRIPOS>MOLECULE
2v74_SAH_B_1.pdb
 26 28 0 0 0
SMALL
GASTEIGER

@<TRIPOS>ATOM
      1  N        -15.8040   16.9140  -90.6740 N.3   1478  SAH1478    -0.1208
      2  CA       -14.4500   16.3890  -90.3380 C.3   1478  SAH1478     0.1952
      3  CB       -13.5270   17.4790  -89.7950 C.3   1478  SAH1478     0.0422
      4  CG       -14.0350   18.2450  -88.5810 C.3   1478  SAH1478     0.0597
      5  SD       -12.7750   19.3270  -87.8510 S.3   1478  SAH1478    -0.1375
      6  C        -14.5600   15.2110  -89.3730 C.2   1478  SAH1478     0.3819
      7  O        -13.5740   14.5480  -89.0270 O.co2 1478  SAH1478    -0.2441
      8  OXT      -15.6530   14.8860  -88.9210 O.co2 1478  SAH1478    -0.2441
      9  C5'      -13.4200   20.8190  -88.6600 C.3   1478  SAH1478     0.0899
     10  C4'      -12.9000   21.0910  -90.0760 C.3   1478  SAH1478     0.1630
     11  O4'      -13.6450   22.1410  -90.6610 O.3   1478  SAH1478    -0.3153
     12  C3'      -11.4400   21.5190  -90.1260 C.3   1478  SAH1478     0.2168
     13  O3'      -10.8290   20.8540  -91.2060 O.3   1478  SAH1478    -0.2175
     14  C2'      -11.4700   23.0100  -90.3800 C.3   1478  SAH1478     0.2569
     15  O2'      -10.4250   23.4440  -91.2070 O.3   1478  SAH1478    -0.2130
     16  C1'      -12.7930   23.1850  -91.0960 C.3   1478  SAH1478     0.3185
     17  N9       -13.3870   24.5050  -90.8300 N.pl3 1478  SAH1478    -0.1439
     18  C8       -13.4090   25.1960  -89.6450 C.3   1478  SAH1478     0.3377
     19  N7       -14.0490   26.3680  -89.8440 N.2   1478  SAH1478    -0.2095
     20  C5       -14.4330   26.4300  -91.1370 C.2   1478  SAH1478     0.2526
     21  C6       -15.1150   27.3920  -91.8740 C.2   1478  SAH1478     0.4393
     22  N6       -15.5160   28.5140  -91.2940 N.pl3 1478  SAH1478     0.2180
     23  N1       -15.3810   27.1840  -93.2110 N.2   1478  SAH1478     0.0021
     24  C2       -14.9610   26.0190  -93.8250 C.3   1478  SAH1478     0.5254
     25  N3       -14.2790   25.0650  -93.0830 N.2   1478  SAH1478    -0.0055
     26  C4       -14.0230   25.2670  -91.7660 C.2   1478  SAH1478     0.3518
@<TRIPOS>BOND
     1    24    23    1
     2    24    25    1
     3    23    21    2
     4    25    26    2
     5    21    22    1
     6    21    20    1
     7    26    20    1
     8    26    17    1
     9    15    14    1
    10    13    12    1
    11    20    19    2
    12    16    17    1
    13    16    11    1
    14    16    14    1
    15    17    18    1
    16     1     2    1
    17    11    10    1
    18    14    12    1
    19     2     3    1
    20     2     6    1
    21    12    10    1
    22    10     9    1
    23    19    18    1
    24     3     4    1
    25     6     7   ar
    26     6     8   ar
    27     9     5    1
    28     4     5    1
