@<TRIPOS>MOLECULE
2v77_PAY_A_1.pdb
 20 19 0 0 0
SMALL
GASTEIGER

@<TRIPOS>ATOM
      1  O42      115.0920   41.3610   43.7370 O.co2 400  PAY400     -0.2457
      2  O41      114.1920   43.3080   44.2840 O.co2 400  PAY400     -0.2457
      3  C4       115.1260   42.4690   44.3390 C.2   400  PAY400      0.3649
      4  C41      116.3410   42.8290   45.1670 C.3   400  PAY400      0.1146
      5  C32      116.7840   41.6810   46.1300 C.3   400  PAY400      0.0231
      6  C31      115.8290   41.4420   47.3460 C.3   400  PAY400      0.1045
      7  C3       116.1300   40.1030   48.0050 C.2   400  PAY400      0.3643
      8  O31      116.8650   40.0480   49.0260 O.co2 400  PAY400     -0.2457
      9  O32      115.6020   39.0830   47.4850 O.co2 400  PAY400     -0.2457
     10  C22      115.8490   42.6700   48.3550 C.3   400  PAY400      0.0225
     11  C21      114.9670   42.5080   49.6410 C.3   400  PAY400      0.1045
     12  C2       113.5710   42.0430   49.3000 C.2   400  PAY400      0.3643
     13  O21      112.7300   42.8520   48.8230 O.co2 400  PAY400     -0.2457
     14  O22      113.3210   40.8160   49.5010 O.co2 400  PAY400     -0.2457
     15  C12      115.0040   43.8260   50.5140 C.3   400  PAY400      0.0225
     16  C11      114.0620   43.8150   51.7720 C.3   400  PAY400      0.1040
     17  C10      114.0210   45.2180   52.4390 C.3   400  PAY400      0.0118
     18  C1       114.5170   42.8040   52.8150 C.2   400  PAY400      0.3643
     19  O12      115.4500   43.1130   53.6070 O.co2 400  PAY400     -0.2457
     20  O11      113.9350   41.6880   52.8510 O.co2 400  PAY400     -0.2457
@<TRIPOS>BOND
     1     1     3   ar
     2     2     3   ar
     3     3     4    1
     4     4     5    1
     5     5     6    1
     6     6     7    1
     7     6    10    1
     8     9     7   ar
     9     7     8   ar
    10    10    11    1
    11    13    12   ar
    12    12    14   ar
    13    12    11    1
    14    11    15    1
    15    15    16    1
    16    16    17    1
    17    16    18    1
    18    18    20   ar
    19    18    19   ar
