@<TRIPOS>MOLECULE
2v7a_627_A_1.pdb
 35 39 0 0 0
SMALL
GASTEIGER

@<TRIPOS>ATOM
      1  N1       -41.5340  -46.3820  -10.4830 N.am  1504  6271504    -0.2489
      2  N2       -38.9440  -47.7120  -12.6370 N.2   1504  6271504    -0.0365
      3  C3       -40.4680  -49.3270  -12.4040 C.2   1504  6271504     0.3979
      4  N4       -39.2690  -49.0590  -12.9530 N.2   1504  6271504     0.0844
      5  N5       -41.0120  -50.5850  -12.5470 N.am  1504  6271504     0.0385
      6  C6       -42.2820  -50.9100  -12.3700 C.2   1504  6271504     0.3756
      7  C7       -42.6550  -52.3300  -12.5570 C.ar  1504  6271504     0.0821
      8  O8       -43.1600  -50.1190  -12.0800 O.2   1504  6271504    -0.2377
      9  C9       -43.8250  -52.7650  -11.9540 C.ar  1504  6271504     0.0082
     10  C10      -44.2500  -54.0700  -12.0910 C.ar  1504  6271504     0.0147
     11  C11      -42.2860  -54.4960  -13.4390 C.ar  1504  6271504     0.0147
     12  C12      -41.8650  -53.1850  -13.3110 C.ar  1504  6271504     0.0082
     13  C13      -39.9680  -47.2170  -11.9130 C.2   1504  6271504     0.1343
     14  C14      -40.9620  -48.2280  -11.7300 C.2   1504  6271504     0.1225
     15  C15      -42.0890  -47.7140  -10.8900 C.2   1504  6271504     0.0769
     16  C16      -40.3240  -45.9500  -11.2150 C.3   1504  6271504     0.1482
     17  N17      -43.9090  -56.2660  -12.9770 N.pl3 1504  6271504    -0.3046
     18  C18      -44.8070  -56.7740  -12.2280 C.3   1504  6271504     0.1081
     19  C19      -44.5700  -57.9900  -11.7140 C.3   1504  6271504     0.0938
     20  N20      -43.6110  -58.8840  -12.3120 N.3   1504  6271504    -0.2686
     21  C21      -42.6240  -58.1950  -13.1890 C.3   1504  6271504     0.0938
     22  C22      -43.2910  -57.0970  -14.0150 C.3   1504  6271504     0.1081
     23  C23      -42.8610  -59.6260  -11.2800 C.3   1504  6271504     0.0897
     24  C24      -43.4780  -54.9360  -12.8330 C.ar  1504  6271504     0.0479
     25  C25      -42.0550  -45.5900   -9.5330 C.2   1504  6271504     0.2612
     26  O26      -41.5580  -44.5040   -9.2400 O.2   1504  6271504    -0.2715
     27  C27      -42.8400  -47.0760   -7.7950 C.ar  1504  6271504     0.0134
     28  C28      -43.5290  -48.3090   -7.7100 C.ar  1504  6271504    -0.0015
     29  C29      -41.7460  -46.8220   -6.9410 C.ar  1504  6271504    -0.0015
     30  C31      -43.1140  -49.2810   -6.8010 C.ar  1504  6271504    -0.0002
     31  C33      -41.3300  -47.7880   -6.0390 C.ar  1504  6271504    -0.0002
     32  C20      -43.2740  -46.0540   -8.7970 C.3   1504  6271504     0.2137
     33  C35      -42.0120  -49.0070   -5.9660 C.ar  1504  6271504    -0.0000
     34  C36      -45.1420  -45.2110   -7.5230 C.3   1504  6271504     0.1751
     35  O34      -43.9080  -44.9170   -8.2070 O.3   1504  6271504    -0.3400
@<TRIPOS>BOND
     1    22    21    1
     2    22    17    1
     3    11    12   ar
     4    11    24   ar
     5    12     7   ar
     6    21    20    1
     7    17    24    1
     8    17    18    1
     9     4     2    1
    10     4     3    2
    11    24    10   ar
    12     2    13    2
    13     7     6    1
    14     7     9   ar
    15     5     3    1
    16     5     6   am
    17     3    14    1
    18     6     8    2
    19    20    19    1
    20    20    23    1
    21    18    19    1
    22    10     9   ar
    23    13    14    1
    24    13    16    1
    25    14    15    2
    26    16     1    1
    27    15     1    1
    28     1    25   am
    29    25    26    2
    30    25    32    1
    31    32    35    1
    32    32    27    1
    33    35    34    1
    34    27    28   ar
    35    27    29   ar
    36    28    30   ar
    37    29    31   ar
    38    30    33   ar
    39    31    33   ar
