@<TRIPOS>MOLECULE
2v7g_NAD_A_1.pdb
 44 48 0 0 0
SMALL
GASTEIGER

@<TRIPOS>ATOM
      1  PA       -32.2950   29.6590  -56.9160 P.3   3001  NAD3001     0.2189
      2  O1A      -32.6250   30.0090  -55.5160 O.3   3001  NAD3001    -0.4371
      3  O2A      -32.8960   28.4620  -57.5400 O.2   3001  NAD3001    -0.5170
      4  O5B      -32.7440   30.8980  -57.7890 O.3   3001  NAD3001    -0.3112
      5  C5B      -32.7790   30.8980  -59.2260 C.3   3001  NAD3001     0.1813
      6  C4B      -33.4910   32.1840  -59.6660 C.3   3001  NAD3001     0.1821
      7  O4B      -33.4530   32.2940  -61.1060 O.3   3001  NAD3001    -0.3135
      8  C3B      -34.9680   32.0360  -59.2670 C.3   3001  NAD3001     0.2184
      9  O3B      -35.3250   33.0920  -58.3650 O.3   3001  NAD3001    -0.2174
     10  C2B      -35.7090   32.1380  -60.6020 C.3   3001  NAD3001     0.2570
     11  O2B      -36.9310   32.8880  -60.5010 O.3   3001  NAD3001    -0.2130
     12  C1B      -34.7000   32.9030  -61.4420 C.3   3001  NAD3001     0.3186
     13  N9A      -34.8780   32.6530  -62.8670 N.pl3 3001  NAD3001    -0.1439
     14  C8A      -34.9740   31.4530  -63.4570 C.3   3001  NAD3001     0.3377
     15  N7A      -35.1220   31.6180  -64.7740 N.2   3001  NAD3001    -0.2095
     16  C5A      -35.1090   32.9240  -65.0160 C.2   3001  NAD3001     0.2526
     17  C6A      -35.2200   33.6780  -66.1770 C.2   3001  NAD3001     0.4393
     18  N6A      -35.3710   33.0640  -67.3540 N.pl3 3001  NAD3001     0.2180
     19  N1A      -35.1690   35.0220  -66.0830 N.2   3001  NAD3001     0.0021
     20  C2A      -35.0120   35.6320  -64.9070 C.3   3001  NAD3001     0.5254
     21  N3A      -34.9070   34.9400  -63.7800 N.2   3001  NAD3001    -0.0055
     22  C4A      -34.9520   33.5890  -63.8080 C.2   3001  NAD3001     0.3518
     23  O3       -30.7310   29.5140  -57.1540 O.3   3001  NAD3001    -0.2703
     24  PN       -29.5820   30.3940  -56.4580 P.3   3001  NAD3001     0.2189
     25  O1N      -29.8860   31.8210  -56.6700 O.2   3001  NAD3001    -0.5170
     26  O2N      -29.3290   29.8930  -55.0840 O.3   3001  NAD3001    -0.4371
     27  O5D      -28.3780   30.0170  -57.4050 O.3   3001  NAD3001    -0.3112
     28  C5D      -28.3930   30.4050  -58.7930 C.3   3001  NAD3001     0.1813
     29  C4D      -27.2810   29.7030  -59.5880 C.3   3001  NAD3001     0.1799
     30  O4D      -25.9750   30.0330  -59.0320 O.3   3001  NAD3001    -0.3327
     31  C3D      -27.4040   28.1690  -59.5280 C.3   3001  NAD3001     0.2158
     32  O3D      -27.0590   27.6400  -60.8190 O.3   3001  NAD3001    -0.2175
     33  C2D      -26.3330   27.7840  -58.5270 C.3   3001  NAD3001     0.2309
     34  O2D      -25.8810   26.4550  -58.7480 O.3   3001  NAD3001    -0.2158
     35  C1D      -25.2340   28.7850  -58.9090 C.3   3001  NAD3001     0.2263
     36  N1N      -24.2530   29.1260  -57.8650 N.pl3 3001  NAD3001    -0.2787
     37  C2N      -23.0440   29.7620  -58.2330 C.3   3001  NAD3001     0.1244
     38  C3N      -22.1290   30.1010  -57.2390 C.2   3001  NAD3001     0.0544
     39  C7N      -20.8090   30.8010  -57.5820 C.2   3001  NAD3001     0.2818
     40  O7N      -19.9260   30.9030  -56.7310 O.2   3001  NAD3001    -0.2670
     41  N7N      -20.7240   31.3160  -58.8200 N.am  3001  NAD3001    -0.0839
     42  C4N      -22.4120   29.8230  -55.8970 C.2   3001  NAD3001     0.0033
     43  C5N      -23.6180   29.2250  -55.5310 C.2   3001  NAD3001     0.0157
     44  C6N      -24.5390   28.8730  -56.5120 C.2   3001  NAD3001     0.0633
@<TRIPOS>BOND
     1    18    17    1
     2    17    19    2
     3    17    16    1
     4    19    20    1
     5    16    15    2
     6    16    22    1
     7    20    21    1
     8    15    14    1
     9    22    21    2
    10    22    13    1
    11    14    13    1
    12    13    12    1
    13    12     7    1
    14    12    10    1
    15     7     6    1
    16    32    31    1
    17    10    11    1
    18    10     8    1
    19     6     8    1
    20     6     5    1
    21    29    31    1
    22    29    30    1
    23    29    28    1
    24    31    33    1
    25     8     9    1
    26     5     4    1
    27    30    35    1
    28    35    33    1
    29    35    36    1
    30    41    39   am
    31    28    27    1
    32    34    33    1
    33    37    36    1
    34    37    38    1
    35    36    44    1
    36     4     1    1
    37    39    38    1
    38    39    40    2
    39     3     1    2
    40    27    24    1
    41    38    42    2
    42    23     1    1
    43    23    24    1
    44     1     2    1
    45    25    24    2
    46    44    43    2
    47    24    26    1
    48    42    43    1
