@<TRIPOS>MOLECULE
2v7i_HEM_A_1.pdb
 43 50 0 0 0
SMALL
GASTEIGER

@<TRIPOS>ATOM
      1 FE        -12.3360    4.3570   13.1330 Fe    1362  HEM1362     0.0000
      2  CHA      -15.5240    4.1920   11.9880 C.2   1362  HEM1362     0.0000
      3  CHB      -12.0590    0.9330   12.9670 C.2   1362  HEM1362     0.0000
      4  CHC       -9.1610    4.4810   14.5010 C.2   1362  HEM1362     0.0000
      5  CHD      -12.5850    7.7780   13.5450 C.2   1362  HEM1362     0.0000
      6  NA       -13.5480    2.8540   12.6110 N.ar  1362  HEM1362     0.0000
      7  C1A      -14.8330    3.0050   12.1300 C.ar  1362  HEM1362     0.0000
      8  C2A      -15.3250    1.6860   11.7910 C.ar  1362  HEM1362     0.0000
      9  C3A      -14.3770    0.7840   12.0620 C.ar  1362  HEM1362     0.0000
     10  C4A      -13.2390    1.5040   12.5760 C.ar  1362  HEM1362     0.0000
     11  CMA      -14.4400   -0.7470   11.8640 C.3   1362  HEM1362     0.0000
     12  CAA      -16.7270    1.3870   11.2360 C.3   1362  HEM1362     0.0000
     13  CBA      -17.7050    1.4320   12.4310 C.3   1362  HEM1362     0.0000
     14  CGA      -17.5400    0.3550   13.4930 C.2   1362  HEM1362     0.0000
     15  O1A      -17.3180    0.6950   14.6920 O.co2 1362  HEM1362     0.0000
     16  O2A      -17.6580   -0.8620   13.1780 O.co2 1362  HEM1362     0.0000
     17  NB       -10.8930    2.9860   13.6440 N.2   1362  HEM1362     0.0000
     18  C1B      -10.9820    1.6180   13.4580 C.2   1362  HEM1362     0.0000
     19  C2B       -9.7340    1.0090   13.8780 C.2   1362  HEM1362     0.0000
     20  C3B       -8.9250    1.9850   14.3090 C.2   1362  HEM1362     0.0000
     21  C4B       -9.6460    3.2410   14.1710 C.2   1362  HEM1362     0.0000
     22  CMB       -9.4380   -0.5090   13.8230 C.3   1362  HEM1362     0.0000
     23  CAB       -7.4830    1.8540   14.8640 C.2   1362  HEM1362     0.0000
     24  CBB       -6.6550    0.8520   14.5410 C.2   1362  HEM1362     0.0000
     25  NC       -11.1150    5.8410   13.8930 N.ar  1362  HEM1362     0.0000
     26  C1C       -9.8320    5.6740   14.3800 C.ar  1362  HEM1362     0.0000
     27  C2C       -9.3020    6.9750   14.7390 C.ar  1362  HEM1362     0.0000
     28  C3C      -10.2570    7.8880   14.4780 C.ar  1362  HEM1362     0.0000
     29  C4C      -11.4060    7.1890   13.9360 C.ar  1362  HEM1362     0.0000
     30  CMC       -7.8800    7.1960   15.3130 C.3   1362  HEM1362     0.0000
     31  CAC      -10.2090    9.4140   14.6730 C.2   1362  HEM1362     0.0000
     32  CBC       -9.4970    9.9160   15.6940 C.2   1362  HEM1362     0.0000
     33  ND       -13.8400    5.7710   12.8420 N.2   1362  HEM1362     0.0000
     34  C1D      -13.6960    7.1340   13.0410 C.2   1362  HEM1362     0.0000
     35  C2D      -14.9060    7.7990   12.6140 C.2   1362  HEM1362     0.0000
     36  C3D      -15.8280    6.6920   12.1260 C.2   1362  HEM1362     0.0000
     37  C4D      -15.0820    5.4620   12.3020 C.2   1362  HEM1362     0.0000
     38  CMD      -15.1840    9.3170   12.6640 C.3   1362  HEM1362     0.0000
     39  CAD      -17.2440    6.8740   11.5420 C.3   1362  HEM1362     0.0000
     40  CBD      -17.0150    6.7040    9.9920 C.3   1362  HEM1362     0.0000
     41  CGD      -16.3460    7.8000    9.1370 C.2   1362  HEM1362     0.0000
     42  O1D      -16.4250    9.0150    9.4600 O.co2 1362  HEM1362     0.0000
     43  O2D      -15.7420    7.4980    8.0530 O.co2 1362  HEM1362     0.0000
@<TRIPOS>BOND
     1    43    41   ar
     2    41    42   ar
     3    41    40    1
     4    40    39    1
     5    12     8    1
     6    12    13    1
     7    39    36    1
     8     8     9   ar
     9     8     7   ar
    10    11     9    1
    11     2     7    2
    12     2    37    1
    13     9    10   ar
    14    36    37    1
    15    36    35    2
    16     7     6   ar
    17    37    33    2
    18    13    14    1
    19    10     6   ar
    20    10     3    2
    21     6     1    1
    22    35    38    1
    23    35    34    1
    24    33    34    1
    25    33     1    1
    26     3    18    1
    27    34     5    2
    28     1    17    1
    29     1    25    1
    30    16    14   ar
    31    18    17    2
    32    18    19    1
    33    14    15   ar
    34     5    29    1
    35    17    21    1
    36    22    19    1
    37    19    20    2
    38    25    29   ar
    39    25    26   ar
    40    29    28   ar
    41    21    20    1
    42    21     4    2
    43    20    23    1
    44    26     4    1
    45    26    27   ar
    46    28    31    1
    47    28    27   ar
    48    24    23    2
    49    31    32    2
    50    27    30    1
