@<TRIPOS>MOLECULE
2v7j_TRP_A_1.pdb
 15 16 0 0 0
SMALL
GASTEIGER

@<TRIPOS>ATOM
      1  N         12.7320   16.2910   17.5070 N.3   1360  TRP1360    -0.1205
      2  CA        12.7500   14.9430   16.8630 C.3   1360  TRP1360     0.1987
      3  C         14.0240   14.7110   16.1110 C.2   1360  TRP1360     0.3822
      4  O         14.8520   15.6220   15.9770 O.co2 1360  TRP1360    -0.2440
      5  CB        11.4930   14.6930   16.0210 C.3   1360  TRP1360     0.0585
      6  CG        11.2020   15.7180   14.9430 C.2   1360  TRP1360     0.0001
      7  CD1       10.4410   16.8780   15.0400 C.2   1360  TRP1360     0.0946
      8  CD2       11.6330   15.6680   13.5370 C.2   1360  TRP1360     0.0113
      9  NE1       10.3810   17.5400   13.8450 N.2   1360  TRP1360    -0.2442
     10  CE2       11.0740   16.8810   12.9010 C.2   1360  TRP1360     0.0804
     11  CE3       12.4040   14.7510   12.8350 C.2   1360  TRP1360    -0.0202
     12  CZ2       11.3350   17.1020   11.5540 C.2   1360  TRP1360     0.0148
     13  CZ3       12.6320   15.0220   11.4830 C.3   1360  TRP1360     0.0521
     14  CH2       12.1120   16.1660   10.8600 C.2   1360  TRP1360    -0.0199
     15  OXT       14.2730   13.5990   15.6400 O.co2 1360  TRP1360    -0.2440
@<TRIPOS>BOND
     1    14    13    1
     2    14    12    2
     3    13    11    1
     4    12    10    1
     5    11     8    2
     6    10     8    1
     7    10     9    2
     8     8     6    1
     9     9     7    1
    10     6     7    2
    11     6     5    1
    12    15     3   ar
    13     4     3   ar
    14     5     2    1
    15     3     2    1
    16     2     1    1
