@<TRIPOS>MOLECULE
2v7j_HEM_A_1.pdb
 43 50 0 0 0
SMALL
GASTEIGER

@<TRIPOS>ATOM
      1 FE         12.1970   16.5960   19.4200 Fe    1359  HEM1359     0.0000
      2  CHA       15.4430   16.4600   20.5560 C.2   1359  HEM1359     0.0000
      3  CHB       11.9430   13.1910   19.8190 C.2   1359  HEM1359     0.0000
      4  CHC        8.9670   16.6600   18.2460 C.2   1359  HEM1359     0.0000
      5  CHD       12.4350   19.9570   18.9650 C.2   1359  HEM1359     0.0000
      6  NA        13.4600   15.1140   20.0610 N.2   1359  HEM1359     0.0000
      7  C1A       14.7590   15.2660   20.4890 C.2   1359  HEM1359     0.0000
      8  C2A       15.2620   13.9580   20.8620 C.2   1359  HEM1359     0.0000
      9  C3A       14.2960   13.0640   20.6550 C.2   1359  HEM1359     0.0000
     10  C4A       13.1430   13.7720   20.1490 C.2   1359  HEM1359     0.0000
     11  CMA       14.3550   11.5400   20.9030 C.3   1359  HEM1359     0.0000
     12  CAA       16.6730   13.6500   21.3860 C.3   1359  HEM1359     0.0000
     13  CBA       17.5900   13.6570   20.1480 C.3   1359  HEM1359     0.0000
     14  CGA       17.6240   12.3480   19.3740 C.2   1359  HEM1359     0.0000
     15  O1A       17.1050   12.2830   18.2210 O.co2 1359  HEM1359     0.0000
     16  O2A       18.1930   11.3470   19.8880 O.co2 1359  HEM1359     0.0000
     17  NB        10.7290   15.1880   19.1000 N.ar  1359  HEM1359     0.0000
     18  C1B       10.8330   13.8350   19.3390 C.ar  1359  HEM1359     0.0000
     19  C2B        9.5810   13.2110   18.9810 C.ar  1359  HEM1359     0.0000
     20  C3B        8.7490   14.1700   18.5430 C.ar  1359  HEM1359     0.0000
     21  C4B        9.4640   15.4300   18.6060 C.ar  1359  HEM1359     0.0000
     22  CMB        9.3130   11.6970   19.1130 C.3   1359  HEM1359     0.0000
     23  CAB        7.2890   14.0400   18.0360 C.2   1359  HEM1359     0.0000
     24  CBB        6.4990   13.0060   18.3400 C.2   1359  HEM1359     0.0000
     25  NC        10.9480   18.0280   18.7260 N.2   1359  HEM1359     0.0000
     26  C1C        9.6510   17.8550   18.3030 C.2   1359  HEM1359     0.0000
     27  C2C        9.1340   19.1560   17.9220 C.2   1359  HEM1359     0.0000
     28  C3C       10.0990   20.0630   18.1230 C.2   1359  HEM1359     0.0000
     29  C4C       11.2510   19.3670   18.6310 C.2   1359  HEM1359     0.0000
     30  CMC        7.7080   19.4020   17.3850 C.3   1359  HEM1359     0.0000
     31  CAC       10.0480   21.5860   17.8700 C.2   1359  HEM1359     0.0000
     32  CBC        9.5770   22.0540   16.7080 C.2   1359  HEM1359     0.0000
     33  ND        13.7030   17.9830   19.7040 N.ar  1359  HEM1359     0.0000
     34  C1D       13.5500   19.3390   19.4570 C.ar  1359  HEM1359     0.0000
     35  C2D       14.7700   20.0330   19.8000 C.ar  1359  HEM1359     0.0000
     36  C3D       15.7130   18.9530   20.2960 C.ar  1359  HEM1359     0.0000
     37  C4D       14.9690   17.7060   20.2070 C.ar  1359  HEM1359     0.0000
     38  CMD       15.0600   21.5420   19.6810 C.3   1359  HEM1359     0.0000
     39  CAD       17.1420   19.1850   20.8040 C.3   1359  HEM1359     0.0000
     40  CBD       17.0650   19.0460   22.3600 C.3   1359  HEM1359     0.0000
     41  CGD       16.3100   20.0880   23.2020 C.2   1359  HEM1359     0.0000
     42  O1D       15.7150   19.7310   24.2710 O.co2 1359  HEM1359     0.0000
     43  O2D       16.2990   21.3040   22.8790 O.co2 1359  HEM1359     0.0000
@<TRIPOS>BOND
     1    32    31    2
     2    30    27    1
     3    31    28    1
     4    27    28    2
     5    27    26    1
     6    23    24    2
     7    23    20    1
     8    28    29    1
     9    15    14   ar
    10     4    26    2
    11     4    21    1
    12    26    25    1
    13    20    21   ar
    14    20    19   ar
    15    21    17   ar
    16    29    25    2
    17    29     5    1
    18    25     1    1
    19     5    34    2
    20    19    22    1
    21    19    18   ar
    22    17    18   ar
    23    17     1    1
    24    18     3    1
    25    14    16   ar
    26    14    13    1
    27     1    33    1
    28     1     6    1
    29    34    33   ar
    30    34    35   ar
    31    38    35    1
    32    33    37   ar
    33    35    36   ar
    34     3    10    2
    35     6    10    1
    36     6     7    2
    37    13    12    1
    38    10     9    1
    39    37    36   ar
    40    37     2    2
    41    36    39    1
    42     7     2    1
    43     7     8    1
    44     9     8    2
    45     9    11    1
    46    39    40    1
    47     8    12    1
    48    40    41    1
    49    43    41   ar
    50    41    42   ar
