@<TRIPOS>MOLECULE
2v7k_DTR_A_1.pdb
 15 16 0 0 0
SMALL
GASTEIGER

@<TRIPOS>ATOM
      1  N         14.9130   13.1790   16.0380 N.3   1361  DTR1361    -0.1205
      2  CA        13.7860   13.9940   16.5960 C.3   1361  DTR1361     0.1987
      3  CB        12.4680   13.7010   15.8810 C.3   1361  DTR1361     0.0585
      4  CG        12.4880   14.0320   14.4040 C.2   1361  DTR1361     0.0001
      5  CD1       12.9900   13.2520   13.3700 C.2   1361  DTR1361     0.0946
      6  NE1       12.8280   13.8550   12.1560 N.2   1361  DTR1361    -0.2442
      7  CE2       12.2170   15.0430   12.3000 C.2   1361  DTR1361     0.0804
      8  CZ2       11.8210   16.0440   11.4120 C.2   1361  DTR1361     0.0148
      9  CH2       11.1850   17.1750   11.9320 C.2   1361  DTR1361    -0.0199
     10  CZ3       10.9460   17.3410   13.3000 C.3   1361  DTR1361     0.0521
     11  CE3       11.3290   16.3700   14.2340 C.2   1361  DTR1361    -0.0202
     12  CD2       11.9630   15.2350   13.7430 C.2   1361  DTR1361     0.0113
     13  C         14.1070   15.4590   16.5640 C.2   1361  DTR1361     0.3822
     14  O         13.3670   16.3000   17.1050 O.co2 1361  DTR1361    -0.2440
     15  OXT       15.1410   15.8310   16.0070 O.co2 1361  DTR1361    -0.2440
@<TRIPOS>BOND
     1     8     9    2
     2     8     7    1
     3     9    10    1
     4     6     7    2
     5     6     5    1
     6     7    12    1
     7    10    11    1
     8     5     4    2
     9    12    11    2
    10    12     4    1
    11     4     3    1
    12     3     2    1
    13    15    13   ar
    14     1     2    1
    15    13     2    1
    16    13    14   ar
