@<TRIPOS>MOLECULE
2v7k_HEM_A_1.pdb
 43 50 0 0 0
SMALL
GASTEIGER

@<TRIPOS>ATOM
      1 FE         12.4450   16.6100   19.1930 Fe    1360  HEM1360     0.0000
      2  CHA       15.5860   16.4510   20.5290 C.2   1360  HEM1360     0.0000
      3  CHB       12.1520   13.1850   19.4490 C.2   1360  HEM1360     0.0000
      4  CHC        9.3560   16.7420   17.7620 C.2   1360  HEM1360     0.0000
      5  CHD       12.7260   20.0310   18.8500 C.2   1360  HEM1360     0.0000
      6  NA        13.6490   15.1010   19.8560 N.2   1360  HEM1360     0.0000
      7  C1A       14.9140   15.2540   20.3800 C.2   1360  HEM1360     0.0000
      8  C2A       15.3910   13.9370   20.7530 C.2   1360  HEM1360     0.0000
      9  C3A       14.4460   13.0420   20.4510 C.2   1360  HEM1360     0.0000
     10  C4A       13.3270   13.7560   19.8870 C.2   1360  HEM1360     0.0000
     11  CMA       14.4990   11.5140   20.6600 C.3   1360  HEM1360     0.0000
     12  CAA       16.7660   13.6140   21.3570 C.3   1360  HEM1360     0.0000
     13  CBA       17.7470   13.6630   20.1590 C.3   1360  HEM1360     0.0000
     14  CGA       17.5690   12.6000   19.0720 C.2   1360  HEM1360     0.0000
     15  O1A       17.6710   11.3820   19.3790 O.co2 1360  HEM1360     0.0000
     16  O2A       17.3320   12.9390   17.8690 O.co2 1360  HEM1360     0.0000
     17  NB        11.0200   15.2160   18.6960 N.ar  1360  HEM1360     0.0000
     18  C1B       11.0800   13.8540   18.9000 C.ar  1360  HEM1360     0.0000
     19  C2B        9.8450   13.2670   18.4230 C.ar  1360  HEM1360     0.0000
     20  C3B        9.0700   14.2530   17.9520 C.ar  1360  HEM1360     0.0000
     21  C4B        9.8050   15.4970   18.1160 C.ar  1360  HEM1360     0.0000
     22  CMB        9.5270   11.7620   18.4680 C.3   1360  HEM1360     0.0000
     23  CAB        7.6520   14.1710   17.3290 C.2   1360  HEM1360     0.0000
     24  CBB        6.8190   13.1450   17.5290 C.2   1360  HEM1360     0.0000
     25  NC        11.2790   18.1030   18.4410 N.2   1360  HEM1360     0.0000
     26  C1C       10.0240   17.9390   17.9050 C.2   1360  HEM1360     0.0000
     27  C2C        9.5160   19.2510   17.5240 C.2   1360  HEM1360     0.0000
     28  C3C       10.4500   20.1700   17.8230 C.2   1360  HEM1360     0.0000
     29  C4C       11.5670   19.4550   18.4100 C.2   1360  HEM1360     0.0000
     30  CMC        8.1350   19.4930   16.8850 C.3   1360  HEM1360     0.0000
     31  CAC       10.4000   21.7040   17.6240 C.2   1360  HEM1360     0.0000
     32  CBC        9.7380   22.2710   16.6100 C.2   1360  HEM1360     0.0000
     33  ND        13.9200   18.0150   19.6060 N.ar  1360  HEM1360     0.0000
     34  C1D       13.8020   19.3830   19.4000 C.ar  1360  HEM1360     0.0000
     35  C2D       15.0010   20.0460   19.8550 C.ar  1360  HEM1360     0.0000
     36  C3D       15.8970   18.9340   20.3770 C.ar  1360  HEM1360     0.0000
     37  C4D       15.1490   17.7080   20.1860 C.ar  1360  HEM1360     0.0000
     38  CMD       15.3090   21.5540   19.8050 C.3   1360  HEM1360     0.0000
     39  CAD       17.3000   19.1170   20.9990 C.3   1360  HEM1360     0.0000
     40  CBD       17.1260   18.9150   22.5280 C.3   1360  HEM1360     0.0000
     41  CGD       16.5000   20.0430   23.3440 C.2   1360  HEM1360     0.0000
     42  O1D       15.9120   19.7430   24.4260 O.co2 1360  HEM1360     0.0000
     43  O2D       16.6080   21.2460   22.9840 O.co2 1360  HEM1360     0.0000
@<TRIPOS>BOND
     1    32    31    2
     2    30    27    1
     3    23    24    2
     4    23    20    1
     5    27    28    2
     6    27    26    1
     7    31    28    1
     8     4    26    2
     9     4    21    1
    10    28    29    1
    11    16    14   ar
    12    26    25    1
    13    20    21   ar
    14    20    19   ar
    15    21    17   ar
    16    29    25    2
    17    29     5    1
    18    19    22    1
    19    19    18   ar
    20    25     1    1
    21    17    18   ar
    22    17     1    1
    23     5    34    2
    24    18     3    1
    25    14    15   ar
    26    14    13    1
    27     1    33    1
    28     1     6    1
    29    34    33   ar
    30    34    35   ar
    31     3    10    2
    32    33    37   ar
    33    38    35    1
    34    35    36   ar
    35     6    10    1
    36     6     7    2
    37    10     9    1
    38    13    12    1
    39    37    36   ar
    40    37     2    2
    41    36    39    1
    42     7     2    1
    43     7     8    1
    44     9    11    1
    45     9     8    2
    46     8    12    1
    47    39    40    1
    48    40    41    1
    49    43    41   ar
    50    41    42   ar
