@<TRIPOS>MOLECULE
2v7l_CTE_A_1.pdb
 16 17 0 0 0
SMALL
GASTEIGER

@<TRIPOS>ATOM
      1  O         15.2020   -7.1410   16.1710 O.co2 1361  CTE1361    -0.2440
      2  C         14.5500   -8.1690   16.3550 C.2   1361  CTE1361     0.3822
      3  OXT       15.0020   -9.2740   16.0530 O.co2 1361  CTE1361    -0.2440
      4  CA        13.1730   -8.0730   16.9800 C.3   1361  CTE1361     0.1987
      5  N         12.8670   -6.6660   17.3020 N.3   1361  CTE1361    -0.1205
      6  CB        12.0910   -8.7030   16.0860 C.3   1361  CTE1361     0.0585
      7  CG        12.2150   -8.3750   14.5890 C.2   1361  CTE1361     0.0001
      8  CD1       12.8620   -9.1000   13.6680 C.2   1361  CTE1361     0.0946
      9  NE1       12.7490   -8.5240   12.4720 N.2   1361  CTE1361    -0.2433
     10  CE2       12.0240   -7.4210   12.6020 C.2   1361  CTE1361     0.0909
     11  CD2       11.6570   -7.2880   13.9380 C.2   1361  CTE1361     0.0121
     12  CE3       10.8810   -6.2110   14.3630 C.2   1361  CTE1361    -0.0201
     13  CZ3       10.4820   -5.2680   13.4150 C.3   1361  CTE1361     0.0530
     14  CH2       10.8530   -5.3950   12.0630 C.2   1361  CTE1361    -0.0085
     15  CZ2       11.6300   -6.4810   11.6660 C.2   1361  CTE1361     0.0713
     16 CL         12.1330   -6.7160   10.0240 Cl    1361  CTE1361    -0.0810
@<TRIPOS>BOND
     1    16    15    1
     2    15    14    2
     3    15    10    1
     4    14    13    1
     5     9    10    2
     6     9     8    1
     7    10    11    1
     8    13    12    1
     9     8     7    2
    10    11    12    2
    11    11     7    1
    12     7     6    1
    13     3     2   ar
    14     6     4    1
    15     1     2   ar
    16     2     4    1
    17     4     5    1
