@<TRIPOS>MOLECULE
2v7l_HEM_A_1.pdb
 43 50 0 0 0
SMALL
GASTEIGER

@<TRIPOS>ATOM
      1 FE         12.3300   -6.3200   19.3910 Fe    1360  HEM1360     0.0000
      2  CHA       15.5960   -6.3750   20.6350 C.2   1360  HEM1360     0.0000
      3  CHB       12.1020   -9.6780   19.9930 C.2   1360  HEM1360     0.0000
      4  CHC        9.1050   -6.3590   18.0990 C.2   1360  HEM1360     0.0000
      5  CHD       12.5000   -2.9630   18.8780 C.2   1360  HEM1360     0.0000
      6  NA        13.6180   -7.7600   20.2320 N.2   1360  HEM1360     0.0000
      7  C1A       14.9510   -7.5980   20.5670 C.2   1360  HEM1360     0.0000
      8  C2A       15.5100   -8.9190   20.8210 C.2   1360  HEM1360     0.0000
      9  C3A       14.5280   -9.8130   20.6480 C.2   1360  HEM1360     0.0000
     10  C4A       13.3250   -9.1050   20.2710 C.2   1360  HEM1360     0.0000
     11  CMA       14.6270  -11.3510   20.7950 C.3   1360  HEM1360     0.0000
     12  CAA       16.9670   -9.2560   21.2340 C.3   1360  HEM1360     0.0000
     13  CBA       17.9640   -8.9990   20.1080 C.3   1360  HEM1360     0.0000
     14  CGA       18.0750  -10.1930   19.1960 C.2   1360  HEM1360     0.0000
     15  O1A       17.2570  -10.2970   18.2420 O.co2 1360  HEM1360     0.0000
     16  O2A       18.9840  -11.0400   19.4110 O.co2 1360  HEM1360     0.0000
     17  NB        10.8520   -7.7520   19.1210 N.ar  1360  HEM1360     0.0000
     18  C1B       11.0000   -9.0890   19.4110 C.ar  1360  HEM1360     0.0000
     19  C2B        9.7990   -9.7700   18.9820 C.ar  1360  HEM1360     0.0000
     20  C3B        8.9590   -8.8610   18.4530 C.ar  1360  HEM1360     0.0000
     21  C4B        9.6130   -7.5710   18.5310 C.ar  1360  HEM1360     0.0000
     22  CMB        9.5790  -11.2920   19.1330 C.3   1360  HEM1360     0.0000
     23  CAB        7.5430   -9.0810   17.8540 C.2   1360  HEM1360     0.0000
     24  CBB        6.8130  -10.1850   18.0740 C.2   1360  HEM1360     0.0000
     25  NC        11.0410   -4.9330   18.6100 N.2   1360  HEM1360     0.0000
     26  C1C        9.7500   -5.1410   18.1620 C.2   1360  HEM1360     0.0000
     27  C2C        9.2010   -3.8530   17.7960 C.2   1360  HEM1360     0.0000
     28  C3C       10.1420   -2.9150   18.0070 C.2   1360  HEM1360     0.0000
     29  C4C       11.3180   -3.5780   18.5320 C.2   1360  HEM1360     0.0000
     30  CMC        7.7750   -3.6290   17.2510 C.3   1360  HEM1360     0.0000
     31  CAC       10.0300   -1.3900   17.7670 C.2   1360  HEM1360     0.0000
     32  CBC        9.4840   -0.9070   16.6520 C.2   1360  HEM1360     0.0000
     33  ND        13.8440   -4.8900   19.6740 N.ar  1360  HEM1360     0.0000
     34  C1D       13.6200   -3.5320   19.4610 C.ar  1360  HEM1360     0.0000
     35  C2D       14.7670   -2.7980   19.9450 C.ar  1360  HEM1360     0.0000
     36  C3D       15.7260   -3.8570   20.4980 C.ar  1360  HEM1360     0.0000
     37  C4D       15.0780   -5.1320   20.2860 C.ar  1360  HEM1360     0.0000
     38  CMD       14.9750   -1.2680   19.9140 C.3   1360  HEM1360     0.0000
     39  CAD       17.0970   -3.6020   21.1490 C.3   1360  HEM1360     0.0000
     40  CBD       16.9890   -3.8450   22.6580 C.3   1360  HEM1360     0.0000
     41  CGD       16.2400   -2.7640   23.3990 C.2   1360  HEM1360     0.0000
     42  O1D       16.2520   -1.5760   22.9760 O.co2 1360  HEM1360     0.0000
     43  O2D       15.6340   -3.1010   24.4460 O.co2 1360  HEM1360     0.0000
@<TRIPOS>BOND
     1    32    31    2
     2    30    27    1
     3    31    28    1
     4    27    28    2
     5    27    26    1
     6    23    24    2
     7    23    20    1
     8    28    29    1
     9     4    26    2
    10     4    21    1
    11    26    25    1
    12    15    14   ar
    13    20    21   ar
    14    20    19   ar
    15    21    17   ar
    16    29    25    2
    17    29     5    1
    18    25     1    1
    19     5    34    2
    20    19    22    1
    21    19    18   ar
    22    17     1    1
    23    17    18   ar
    24    14    16   ar
    25    14    13    1
    26     1    33    1
    27     1     6    1
    28    18     3    1
    29    34    33   ar
    30    34    35   ar
    31    33    37   ar
    32    38    35    1
    33    35    36   ar
    34     3    10    2
    35    13    12    1
    36     6    10    1
    37     6     7    2
    38    10     9    1
    39    37    36   ar
    40    37     2    2
    41    36    39    1
    42     7     2    1
    43     7     8    1
    44     9    11    1
    45     9     8    2
    46     8    12    1
    47    39    40    1
    48    40    41    1
    49    42    41   ar
    50    41    43   ar
