@<TRIPOS>MOLECULE
2v7m_DTE_A_1.pdb
 16 17 0 0 0
SMALL
GASTEIGER

@<TRIPOS>ATOM
      1  N          8.4560   -9.7160   29.2380 N.3   1360  DTE1360    -0.1205
      2  CA         9.5430   -8.9070   28.6590 C.3   1360  DTE1360     0.1987
      3  C          9.1480   -7.4310   28.5880 C.2   1360  DTE1360     0.3822
      4  OXT        9.9140   -6.5970   28.0970 O.co2 1360  DTE1360    -0.2440
      5  CB        10.8610   -9.0740   29.4390 C.3   1360  DTE1360     0.0585
      6  CG        10.8060   -8.6400   30.9130 C.2   1360  DTE1360     0.0001
      7  CD2       11.3640   -7.4980   31.4670 C.2   1360  DTE1360     0.0121
      8  CD1       10.2320   -9.3170   31.9040 C.2   1360  DTE1360     0.0946
      9  NE1       10.3870   -8.6680   33.0580 N.2   1360  DTE1360    -0.2433
     10  CE2       11.0700   -7.5520   32.8250 C.2   1360  DTE1360     0.0909
     11  CZ2       11.4910   -6.5370   33.6750 C.2   1360  DTE1360     0.0713
     12  CH2       12.2150   -5.4540   33.1670 C.2   1360  DTE1360    -0.0085
     13  CZ3       12.5120   -5.4000   31.8020 C.3   1360  DTE1360     0.0530
     14  CE3       12.0900   -6.4230   30.9470 C.2   1360  DTE1360    -0.0201
     15  O          8.0580   -7.0680   29.0080 O.co2 1360  DTE1360    -0.2440
     16 CL         11.0930   -6.6690   35.3550 Cl    1360  DTE1360    -0.0810
@<TRIPOS>BOND
     1     4     3   ar
     2     3     2    1
     3     3    15   ar
     4     2     1    1
     5     2     5    1
     6     5     6    1
     7     6     7    1
     8     6     8    2
     9    14     7    2
    10    14    13    1
    11     7    10    1
    12    13    12    1
    13     8     9    1
    14    10     9    2
    15    10    11    1
    16    12    11    2
    17    11    16    1
