@<TRIPOS>MOLECULE
2v7m_HEM_A_1.pdb
 43 50 0 0 0
SMALL
GASTEIGER

@<TRIPOS>ATOM
      1 FE         10.9130   -6.0980   26.0050 Fe    404  HEM404      0.0000
      2  CHA        7.7270   -6.2820   24.6790 C.2   404  HEM404      0.0000
      3  CHB       11.1880   -9.5090   25.7870 C.2   404  HEM404      0.0000
      4  CHC       14.0150   -5.9390   27.3960 C.2   404  HEM404      0.0000
      5  CHD       10.6150   -2.6860   26.2910 C.2   404  HEM404      0.0000
      6  NA         9.6840   -7.6110   25.3610 N.ar  404  HEM404      0.0000
      7  C1A        8.4120   -7.4690   24.8420 C.ar  404  HEM404      0.0000
      8  C2A        7.9320   -8.7900   24.4910 C.ar  404  HEM404      0.0000
      9  C3A        8.8800   -9.6800   24.7980 C.ar  404  HEM404      0.0000
     10  C4A       10.0060   -8.9550   25.3480 C.ar  404  HEM404      0.0000
     11  CMA        8.8110  -11.2110   24.6020 C.3   404  HEM404      0.0000
     12  CAA        6.5470   -9.1040   23.8890 C.3   404  HEM404      0.0000
     13  CBA        5.5360   -9.0010   25.0450 C.3   404  HEM404      0.0000
     14  CGA        5.6130  -10.1360   26.0530 C.2   404  HEM404      0.0000
     15  O1A        5.9830   -9.8810   27.2340 O.co2 404  HEM404      0.0000
     16  O2A        5.3000  -11.3100   25.7030 O.co2 404  HEM404      0.0000
     17  NB        12.3350   -7.4680   26.5040 N.2   404  HEM404      0.0000
     18  C1B       12.2620   -8.8330   26.3170 C.2   404  HEM404      0.0000
     19  C2B       13.4970   -9.4240   26.7850 C.2   404  HEM404      0.0000
     20  C3B       14.2840   -8.4330   27.2330 C.2   404  HEM404      0.0000
     21  C4B       13.5600   -7.1920   27.0650 C.2   404  HEM404      0.0000
     22  CMB       13.8030  -10.9370   26.7460 C.3   404  HEM404      0.0000
     23  CAB       15.7110   -8.5160   27.8370 C.2   404  HEM404      0.0000
     24  CBB       16.4610   -9.6200   27.7820 C.2   404  HEM404      0.0000
     25  NC        12.0740   -4.6060   26.7110 N.ar  404  HEM404      0.0000
     26  C1C       13.3370   -4.7560   27.2370 C.ar  404  HEM404      0.0000
     27  C2C       13.8350   -3.4450   27.5910 C.ar  404  HEM404      0.0000
     28  C3C       12.8970   -2.5380   27.2870 C.ar  404  HEM404      0.0000
     29  C4C       11.7790   -3.2590   26.7240 C.ar  404  HEM404      0.0000
     30  CMC       15.2210   -3.1860   28.2150 C.3   404  HEM404      0.0000
     31  CAC       12.9480   -1.0030   27.4710 C.2   404  HEM404      0.0000
     32  CBC       13.6010   -0.4260   28.4830 C.2   404  HEM404      0.0000
     33  ND         9.3950   -4.7020   25.5660 N.2   404  HEM404      0.0000
     34  C1D        9.5270   -3.3320   25.7610 C.2   404  HEM404      0.0000
     35  C2D        8.3280   -2.6660   25.3110 C.2   404  HEM404      0.0000
     36  C3D        7.4180   -3.7830   24.8070 C.2   404  HEM404      0.0000
     37  C4D        8.1610   -5.0130   24.9990 C.2   404  HEM404      0.0000
     38  CMD        8.0290   -1.1530   25.3440 C.3   404  HEM404      0.0000
     39  CAD        6.0130   -3.5930   24.2060 C.3   404  HEM404      0.0000
     40  CBD        6.1640   -3.8060   22.6820 C.3   404  HEM404      0.0000
     41  CGD        6.8420   -2.7130   21.8630 C.2   404  HEM404      0.0000
     42  O1D        6.7200   -1.4930   22.1580 O.co2 404  HEM404      0.0000
     43  O2D        7.5140   -3.0570   20.8460 O.co2 404  HEM404      0.0000
@<TRIPOS>BOND
     1    43    41   ar
     2    41    42   ar
     3    41    40    1
     4    40    39    1
     5    12     8    1
     6    12    13    1
     7    39    36    1
     8     8     9   ar
     9     8     7   ar
    10    11     9    1
    11     2     7    2
    12     2    37    1
    13     9    10   ar
    14    36    37    1
    15    36    35    2
    16     7     6   ar
    17    37    33    2
    18    13    14    1
    19    35    38    1
    20    35    34    1
    21    10     6   ar
    22    10     3    2
    23     6     1    1
    24    33    34    1
    25    33     1    1
    26    16    14   ar
    27    34     5    2
    28     3    18    1
    29     1    17    1
    30     1    25    1
    31    14    15   ar
    32     5    29    1
    33    18    17    2
    34    18    19    1
    35    17    21    1
    36    25    29   ar
    37    25    26   ar
    38    29    28   ar
    39    22    19    1
    40    19    20    2
    41    21    20    1
    42    21     4    2
    43    20    23    1
    44    26     4    1
    45    26    27   ar
    46    28    31    1
    47    28    27   ar
    48    31    32    2
    49    27    30    1
    50    24    23    2
