@<TRIPOS>MOLECULE
2v7o_DRN_A_1.pdb
 33 37 0 0 0
SMALL
GASTEIGER

@<TRIPOS>ATOM
      1  CBD      -22.1340  -29.9670  -13.2250 C.2   1303  DRN1303     0.2304
      2  NBC      -22.7730  -30.5400  -14.2510 N.pl3 1303  DRN1303    -0.1181
      3  CBF      -19.4580  -28.6430  -10.9970 C.3   1303  DRN1303     0.0366
      4  CBE      -19.7060  -29.7950  -11.9550 C.3   1303  DRN1303     0.0673
      5  CAY      -14.3110  -26.5070  -15.4060 C.3   1303  DRN1303     0.1305
      6  NAH      -14.7290  -26.2960  -13.9760 N.ar  1303  DRN1303    -0.3240
      7  CAW      -13.9070  -26.3420  -12.9260 C.ar  1303  DRN1303     0.0767
      8  CAE      -15.9740  -26.0220  -13.5880 C.ar  1303  DRN1303     0.0600
      9  CAF      -17.1680  -25.8590  -14.2970 C.ar  1303  DRN1303     0.0172
     10  CAA      -18.3400  -25.5670  -13.6060 C.ar  1303  DRN1303     0.0015
     11  CAB      -18.3270  -25.4310  -12.2130 C.ar  1303  DRN1303     0.0001
     12  CAC      -17.1300  -25.5860  -11.5160 C.ar  1303  DRN1303     0.0015
     13  CAD      -15.9460  -25.8900  -12.2000 C.ar  1303  DRN1303     0.0180
     14  CAG      -14.6140  -26.1080  -11.8080 C.ar  1303  DRN1303     0.0313
     15  CAI      -14.1050  -26.0740  -10.4870 C.2   1303  DRN1303     0.1088
     16  CAT      -12.8280  -25.6260  -10.1440 C.1   1303  DRN1303     0.2158
     17  OAZ      -11.9940  -25.1790  -10.9300 O.2   1303  DRN1303    -0.2086
     18  NAU      -12.6400  -25.7090   -8.8240 N.2   1303  DRN1303    -0.2576
     19  CAV      -13.7430  -26.2220   -8.2740 C.1   1303  DRN1303     0.2158
     20  OAX      -13.8790  -26.4350   -7.0610 O.2   1303  DRN1303    -0.2086
     21  CAJ      -14.6880  -26.4650   -9.2740 C.2   1303  DRN1303     0.1088
     22  CAK      -15.9720  -26.9880   -9.0840 C.ar  1303  DRN1303     0.0313
     23  CAM      -16.8690  -26.5240   -8.1150 C.ar  1303  DRN1303     0.0180
     24  CAP      -16.8110  -25.5390   -7.1240 C.ar  1303  DRN1303     0.0015
     25  CAQ      -17.9020  -25.3140   -6.2890 C.ar  1303  DRN1303     0.0001
     26  CAR      -19.0540  -26.0710   -6.4470 C.ar  1303  DRN1303     0.0015
     27  CAS      -19.1070  -27.0510   -7.4350 C.ar  1303  DRN1303     0.0172
     28  CAN      -18.0200  -27.2870   -8.2670 C.ar  1303  DRN1303     0.0599
     29  NAO      -17.7810  -28.1230   -9.2790 N.ar  1303  DRN1303    -0.3260
     30  CAL      -16.5590  -27.9630   -9.7680 C.ar  1303  DRN1303     0.0766
     31  CA0      -18.6980  -29.1460   -9.7940 C.3   1303  DRN1303     0.1070
     32  SAT      -20.5360  -29.2450  -13.4920 S.3   1303  DRN1303    -0.0724
     33  NAB      -22.7040  -29.9430  -12.0110 N.pl3 1303  DRN1303    -0.1181
@<TRIPOS>BOND
     1     5     6    1
     2     9    10   ar
     3     9     8   ar
     4     2     1    2
     5     6     8   ar
     6     6     7   ar
     7    10    11   ar
     8     8    13   ar
     9    32     1    1
    10    32     4    1
    11     1    33    1
    12     7    14   ar
    13    11    12   ar
    14    13    14   ar
    15    13    12   ar
    16     4     3    1
    17    14    15    1
    18     3    31    1
    19    17    16    2
    20    15    16    1
    21    15    21    2
    22    16    18    2
    23    31    29    1
    24    30    29   ar
    25    30    22   ar
    26    29    28   ar
    27    21    22    1
    28    21    19    1
    29    22    23   ar
    30    18    19    2
    31    19    20    2
    32    28    23   ar
    33    28    27   ar
    34    23    24   ar
    35    27    26   ar
    36    24    25   ar
    37    26    25   ar
