@<TRIPOS>MOLECULE
2v7p_NAD_A_1.pdb
 44 48 0 0 0
SMALL
GASTEIGER

@<TRIPOS>ATOM
      1  PA        -7.8040   59.0760   26.7350 P.3   1332  NAD1332     0.2189
      2  O1A       -7.6020   60.3810   26.7250 O.2   1332  NAD1332    -0.5170
      3  O2A       -7.3240   58.4830   27.7700 O.3   1332  NAD1332    -0.4371
      4  O5B       -7.1850   58.7030   25.6080 O.3   1332  NAD1332    -0.3112
      5  C5B       -7.4660   59.3210   24.4890 C.3   1332  NAD1332     0.1813
      6  C4B       -6.4390   59.5880   23.4780 C.3   1332  NAD1332     0.1821
      7  O4B       -6.5380   59.7050   22.0710 O.3   1332  NAD1332    -0.3135
      8  C3B       -5.1180   60.2690   23.9310 C.3   1332  NAD1332     0.2184
      9  O3B       -4.0100   59.4500   24.2540 O.3   1332  NAD1332    -0.2174
     10  C2B       -4.8950   61.1080   22.6900 C.3   1332  NAD1332     0.2570
     11  O2B       -3.5530   61.4730   22.5720 O.3   1332  NAD1332    -0.2130
     12  C1B       -5.3320   60.1680   21.6140 C.3   1332  NAD1332     0.3186
     13  N9A       -5.5100   60.8660   20.4020 N.pl3 1332  NAD1332    -0.1439
     14  C8A       -6.2230   61.9660   20.3350 C.3   1332  NAD1332     0.3377
     15  N7A       -6.2850   62.4030   19.1330 N.2   1332  NAD1332    -0.2095
     16  C5A       -5.6030   61.5970   18.4120 C.2   1332  NAD1332     0.2526
     17  C6A       -5.3120   61.5040   16.9560 C.2   1332  NAD1332     0.4393
     18  N6A       -5.6850   62.4710   16.0150 N.pl3 1332  NAD1332     0.2180
     19  N1A       -4.5160   60.4100   16.5440 N.2   1332  NAD1332     0.0021
     20  C2A       -4.0060   59.6100   17.4590 C.3   1332  NAD1332     0.5254
     21  N3A       -4.3630   59.6320   18.7270 N.2   1332  NAD1332    -0.0055
     22  C4A       -5.1280   60.5970   19.2170 C.2   1332  NAD1332     0.3518
     23  O3        -9.2830   58.8550   26.8000 O.3   1332  NAD1332    -0.2703
     24  PN       -10.1430   57.5070   26.9300 P.3   1332  NAD1332     0.2189
     25  O1N       -9.3550   56.5120   26.3650 O.2   1332  NAD1332    -0.5170
     26  O2N      -10.4120   57.4170   28.1850 O.3   1332  NAD1332    -0.4371
     27  O5D      -11.3380   57.6430   26.2050 O.3   1332  NAD1332    -0.3112
     28  C5D      -11.3770   57.7950   24.8310 C.3   1332  NAD1332     0.1813
     29  C4D      -12.6700   58.1140   24.1600 C.3   1332  NAD1332     0.1799
     30  O4D      -13.3620   56.8590   24.4590 O.3   1332  NAD1332    -0.3327
     31  C3D      -13.7100   59.0710   24.6490 C.3   1332  NAD1332     0.2158
     32  O3D      -14.4260   59.5880   23.6680 O.3   1332  NAD1332    -0.2175
     33  C2D      -14.4060   58.2590   25.6670 C.3   1332  NAD1332     0.2309
     34  O2D      -15.5710   58.9030   26.0020 O.3   1332  NAD1332    -0.2158
     35  C1D      -14.6560   57.0620   24.7620 C.3   1332  NAD1332     0.2263
     36  N1N      -15.3310   55.9060   25.4710 N.pl3 1332  NAD1332    -0.2787
     37  C2N      -16.2990   55.1430   24.8520 C.3   1332  NAD1332     0.1244
     38  C3N      -16.9430   54.1090   25.4490 C.2   1332  NAD1332     0.0544
     39  C7N      -17.9420   53.3480   24.6790 C.2   1332  NAD1332     0.2818
     40  O7N      -18.0900   53.5350   23.3600 O.2   1332  NAD1332    -0.2670
     41  N7N      -18.6690   52.6000   25.3980 N.am  1332  NAD1332    -0.0839
     42  C4N      -16.6720   53.8000   26.7550 C.2   1332  NAD1332     0.0033
     43  C5N      -15.6590   54.5330   27.3730 C.2   1332  NAD1332     0.0157
     44  C6N      -15.0110   55.5840   26.7430 C.2   1332  NAD1332     0.0633
@<TRIPOS>BOND
     1    18    17    1
     2    19    17    2
     3    19    20    1
     4    17    16    1
     5    20    21    1
     6    16    15    2
     7    16    22    1
     8    21    22    2
     9    15    14    1
    10    22    13    1
    11    14    13    1
    12    13    12    1
    13    12     7    1
    14    12    10    1
    15     7     6    1
    16    11    10    1
    17    10     8    1
    18    40    39    2
    19     6     8    1
    20     6     5    1
    21    32    31    1
    22     8     9    1
    23    29    30    1
    24    29    31    1
    25    29    28    1
    26    30    35    1
    27     5     4    1
    28    31    33    1
    29    39    41   am
    30    39    38    1
    31    35    36    1
    32    35    33    1
    33    28    27    1
    34    37    38    1
    35    37    36    1
    36    38    42    2
    37    36    44    1
    38     4     1    1
    39    33    34    1
    40    27    24    1
    41    25    24    2
    42     2     1    2
    43     1    23    1
    44     1     3    1
    45    44    43    2
    46    42    43    1
    47    23    24    1
    48    24    26    1
