@<TRIPOS>MOLECULE
2v7q_ADP_D_1.pdb
 27 29 0 0 0
SMALL
GASTEIGER

@<TRIPOS>ATOM
      1  PB       100.9510   42.1820  -16.5790 P.3   1478  ADP1478     0.5373
      2  O1B      101.3800   40.7780  -16.9000 O.3   1478  ADP1478    -0.1143
      3  O2B      101.9160   43.2800  -17.0040 O.2   1478  ADP1478    -0.2221
      4  O3B      100.3740   42.3780  -15.2130 O.3   1478  ADP1478    -0.1143
      5  PA        99.3940   43.4950  -18.6230 P.3   1478  ADP1478     0.2231
      6  O1A      100.1510   43.1100  -19.8600 O.2   1478  ADP1478    -0.5169
      7  O2A       99.5100   44.8780  -18.0370 O.3   1478  ADP1478    -0.4370
      8  O3A       99.6460   42.3560  -17.5060 O.3   1478  ADP1478    -0.2261
      9  O5'       97.8440   43.1910  -18.9220 O.3   1478  ADP1478    -0.3111
     10  C5'       97.5510   41.9780  -19.6040 C.3   1478  ADP1478     0.1813
     11  C4'       96.1940   42.0430  -20.2870 C.3   1478  ADP1478     0.1821
     12  O4'       95.2100   42.3290  -19.2960 O.3   1478  ADP1478    -0.3135
     13  C3'       96.0260   43.1400  -21.3300 C.3   1478  ADP1478     0.2184
     14  O3'       96.4720   42.7670  -22.6360 O.3   1478  ADP1478    -0.2174
     15  C2'       94.5260   43.3300  -21.3000 C.3   1478  ADP1478     0.2570
     16  O2'       93.8850   42.2560  -21.9860 O.3   1478  ADP1478    -0.2130
     17  C1'       94.1680   43.1450  -19.8450 C.3   1478  ADP1478     0.3186
     18  N9        94.1330   44.4520  -19.1430 N.pl3 1478  ADP1478    -0.1439
     19  C8        94.9930   44.8160  -18.1790 C.3   1478  ADP1478     0.3377
     20  N7        94.7080   46.0530  -17.7140 N.2   1478  ADP1478    -0.2095
     21  C5        93.6420   46.5170  -18.3870 C.2   1478  ADP1478     0.2526
     22  C6        92.8410   47.7720  -18.3880 C.2   1478  ADP1478     0.4393
     23  N6        93.1210   48.8000  -17.5410 N.pl3 1478  ADP1478     0.2180
     24  N1        91.8090   47.8510  -19.2530 N.2   1478  ADP1478     0.0021
     25  C2        91.5070   46.8280  -20.0910 C.3   1478  ADP1478     0.5254
     26  N3        92.1990   45.6690  -20.1430 N.2   1478  ADP1478    -0.0055
     27  C4        93.2610   45.4510  -19.3320 C.2   1478  ADP1478     0.3518
@<TRIPOS>BOND
     1    14    13    1
     2    16    15    1
     3    13    15    1
     4    13    11    1
     5    15    17    1
     6    11    10    1
     7    11    12    1
     8    26    25    1
     9    26    27    2
    10    25    24    1
    11     6     5    2
    12    17    12    1
    13    17    18    1
    14    10     9    1
    15    27    18    1
    16    27    21    1
    17    24    22    2
    18    18    19    1
    19     9     5    1
    20     5     7    1
    21     5     8    1
    22    22    21    1
    23    22    23    1
    24    21    20    2
    25    19    20    1
    26     8     1    1
    27     3     1    2
    28     2     1    1
    29     1     4    1
