@<TRIPOS>MOLECULE
2v7q_ATP_A_1.pdb
 31 33 0 0 0
SMALL
GASTEIGER

@<TRIPOS>ATOM
      1  PG       103.7700   47.8790    7.9680 P.3   1511  ATP1511     0.5373
      2  O1G      103.7720   49.0230    6.9750 O.2   1511  ATP1511    -0.2221
      3  O2G      104.8760   47.9050    8.9900 O.3   1511  ATP1511    -0.1143
      4  O3G      103.5990   46.5440    7.2810 O.3   1511  ATP1511    -0.1143
      5  PB       102.0090   48.1780   10.2940 P.3   1511  ATP1511     0.2277
      6  O1B      101.3350   46.8890   10.6540 O.2   1511  ATP1511    -0.5168
      7  O2B      103.1290   48.6760   11.1720 O.3   1511  ATP1511    -0.4368
      8  O3B      102.3630   48.0640    8.7340 O.3   1511  ATP1511    -0.2258
      9  PA       101.0420   50.8670   10.6250 P.3   1511  ATP1511     0.2189
     10  O1A      102.0120   51.4280    9.6260 O.2   1511  ATP1511    -0.5170
     11  O2A      101.1350   51.1610   12.0900 O.3   1511  ATP1511    -0.4371
     12  O3A      100.8590   49.2810   10.3790 O.3   1511  ATP1511    -0.2700
     13  O5'       99.5610   51.3130   10.1930 O.3   1511  ATP1511    -0.3112
     14  C5'       99.1320   51.2000    8.8420 C.3   1511  ATP1511     0.1813
     15  C4'       98.1590   52.3360    8.5530 C.3   1511  ATP1511     0.1821
     16  O4'       97.0990   52.2850    9.5040 O.3   1511  ATP1511    -0.3135
     17  C3'       98.7850   53.7120    8.7020 C.3   1511  ATP1511     0.2184
     18  O3'       98.3260   54.5260    7.6200 O.3   1511  ATP1511    -0.2174
     19  C2'       98.2020   54.2500    9.9900 C.3   1511  ATP1511     0.2570
     20  O2'       98.0840   55.6740    9.9540 O.3   1511  ATP1511    -0.2130
     21  C1'       96.8490   53.5630   10.0700 C.3   1511  ATP1511     0.3186
     22  N9        96.3810   53.4010   11.4670 N.pl3 1511  ATP1511    -0.1439
     23  C8        97.0450   52.7440   12.4360 C.3   1511  ATP1511     0.3377
     24  N7        96.3630   52.7720   13.6040 N.2   1511  ATP1511    -0.2095
     25  C5        95.2310   53.4630   13.3990 C.2   1511  ATP1511     0.2526
     26  C6        94.0580   53.8710   14.2180 C.2   1511  ATP1511     0.4393
     27  N6        93.9660   53.5360   15.5250 N.pl3 1511  ATP1511     0.2180
     28  N1        93.0830   54.5810   13.6170 N.2   1511  ATP1511     0.0021
     29  C2        93.1630   54.9350   12.3150 C.3   1511  ATP1511     0.5254
     30  N3        94.2010   54.5980   11.5250 N.2   1511  ATP1511    -0.0055
     31  C4        95.2430   53.8740   11.9840 C.2   1511  ATP1511     0.3518
@<TRIPOS>BOND
     1     2     1    2
     2     4     1    1
     3    18    17    1
     4     1     8    1
     5     1     3    1
     6    15    17    1
     7    15    14    1
     8    15    16    1
     9    17    19    1
    10     8     5    1
    11    14    13    1
    12    16    21    1
    13    10     9    2
    14    20    19    1
    15    19    21    1
    16    21    22    1
    17    13     9    1
    18     5    12    1
    19     5     6    2
    20     5     7    1
    21    12     9    1
    22     9    11    1
    23    22    31    1
    24    22    23    1
    25    30    31    2
    26    30    29    1
    27    31    25    1
    28    29    28    1
    29    23    24    1
    30    25    24    2
    31    25    26    1
    32    28    26    2
    33    26    27    1
