@<TRIPOS>MOLECULE
2v7t_SAH_A_1.pdb
 26 28 0 0 0
SMALL
GASTEIGER

@<TRIPOS>ATOM
      1  N         34.2770   13.0060   66.5970 N.3   1299  SAH1299    -0.1208
      2  CA        34.8400   11.7790   67.2130 C.3   1299  SAH1299     0.1952
      3  CB        35.7650   12.1260   68.3720 C.3   1299  SAH1299     0.0422
      4  CG        36.6070   10.9900   68.9590 C.3   1299  SAH1299     0.0597
      5  SD        37.7340   10.2580   67.7500 S.3   1299  SAH1299    -0.1375
      6  C         33.7190   10.8710   67.7160 C.2   1299  SAH1299     0.3819
      7  O         32.6500   11.3280   68.1340 O.co2 1299  SAH1299    -0.2441
      8  OXT       33.8710    9.6520   67.7270 O.co2 1299  SAH1299    -0.2441
      9  C5'       39.0250   11.3800   68.2960 C.3   1299  SAH1299     0.0899
     10  C4'       40.3620   10.7390   68.6380 C.3   1299  SAH1299     0.1630
     11  O4'       40.7720    9.7810   67.6700 O.3   1299  SAH1299    -0.3153
     12  C3'       41.3540   11.8950   68.5580 C.3   1299  SAH1299     0.2168
     13  O3'       42.3140   11.7630   69.5760 O.3   1299  SAH1299    -0.2175
     14  C2'       41.9790   11.7500   67.1830 C.3   1299  SAH1299     0.2569
     15  O2'       43.3070   12.2440   67.0660 O.3   1299  SAH1299    -0.2130
     16  C1'       41.8740   10.2660   66.9140 C.3   1299  SAH1299     0.3185
     17  N9        41.6290   10.0860   65.4700 N.pl3 1299  SAH1299    -0.1439
     18  C8        40.5570   10.5390   64.7500 C.3   1299  SAH1299     0.3377
     19  N7        40.7000   10.1670   63.4720 N.2   1299  SAH1299    -0.2095
     20  C5        41.8630    9.4700   63.3620 C.2   1299  SAH1299     0.2526
     21  C6        42.4990    8.8710   62.2860 C.2   1299  SAH1299     0.4393
     22  N6        41.9640    8.8900   61.0610 N.pl3 1299  SAH1299     0.2180
     23  N1        43.6980    8.2310   62.5130 N.2   1299  SAH1299     0.0021
     24  C2        44.2910    8.1830   63.7650 C.3   1299  SAH1299     0.5254
     25  N3        43.6410    8.7800   64.8250 N.2   1299  SAH1299    -0.0055
     26  C4        42.4570    9.4140   64.6160 C.2   1299  SAH1299     0.3518
@<TRIPOS>BOND
     1    22    21    1
     2    21    23    2
     3    21    20    1
     4    23    24    1
     5    20    19    2
     6    20    26    1
     7    19    18    1
     8    24    25    1
     9    26    25    2
    10    26    17    1
    11    18    17    1
    12    17    16    1
    13     1     2    1
    14    16    14    1
    15    16    11    1
    16    15    14    1
    17    14    12    1
    18     2     6    1
    19     2     3    1
    20    11    10    1
    21     6     8   ar
    22     6     7   ar
    23     5     9    1
    24     5     4    1
    25     9    10    1
    26     3     4    1
    27    12    10    1
    28    12    13    1
