@<TRIPOS>MOLECULE
2v7u_SAM_A_1.pdb
 27 29 0 0 0
SMALL
GASTEIGER

@<TRIPOS>ATOM
      1  N         34.1080   13.1400   66.6420 N.3   1299  SAM1299    -0.1208
      2  CA        34.8100   12.0190   67.2910 C.3   1299  SAM1299     0.1952
      3  C         33.7810   11.0170   67.8340 C.2   1299  SAM1299     0.3819
      4  O         34.0690    9.8190   67.8910 O.co2 1299  SAM1299    -0.2441
      5  OXT       32.6520   11.3760   68.2100 O.co2 1299  SAM1299    -0.2441
      6  CB        35.6640   12.5490   68.4470 C.3   1299  SAM1299     0.0414
      7  CG        36.7570   11.5510   68.8480 C.3   1299  SAM1299     0.0503
      8  SD        38.1990   11.4860   67.7330 S.3   1299  SAM1299    -0.1761
      9  CE        37.7550   10.0600   66.7760 C.3   1299  SAM1299     0.0590
     10  C5'       39.2480   10.8280   69.0530 C.3   1299  SAM1299     0.0806
     11  C4'       40.7880   10.7860   68.8880 C.3   1299  SAM1299     0.1622
     12  O4'       41.0940    9.9750   67.7430 O.3   1299  SAM1299    -0.3153
     13  C3'       41.3750   12.1840   68.6840 C.3   1299  SAM1299     0.2168
     14  O3'       42.4140   12.3720   69.6410 O.3   1299  SAM1299    -0.2175
     15  C2'       41.9440   12.1660   67.2790 C.3   1299  SAM1299     0.2569
     16  O2'       43.2580   12.7420   67.2450 O.3   1299  SAM1299    -0.2130
     17  C1'       42.0560   10.6820   66.9510 C.3   1299  SAM1299     0.3185
     18  N9        41.7160   10.4330   65.5370 N.pl3 1299  SAM1299    -0.1439
     19  C8        40.6590   10.8760   64.8410 C.3   1299  SAM1299     0.3377
     20  N7        40.7440   10.4300   63.5930 N.2   1299  SAM1299    -0.2095
     21  C5        41.8530    9.6950   63.5050 C.2   1299  SAM1299     0.2526
     22  C6        42.4380    8.9880   62.4700 C.2   1299  SAM1299     0.4393
     23  N6        41.8760    8.9430   61.2340 N.pl3 1299  SAM1299     0.2180
     24  N1        43.6370    8.3300   62.7630 N.2   1299  SAM1299     0.0021
     25  C2        44.2240    8.3640   64.0330 C.3   1299  SAM1299     0.5254
     26  N3        43.6380    9.0440   64.9960 N.2   1299  SAM1299    -0.0055
     27  C4        42.4780    9.7040   64.7490 C.2   1299  SAM1299     0.3518
@<TRIPOS>BOND
     1    23    22    1
     2    22    24    2
     3    22    21    1
     4    24    25    1
     5    21    20    2
     6    21    27    1
     7    20    19    1
     8    25    26    1
     9    27    26    2
    10    27    18    1
    11    19    18    1
    12    18    17    1
    13     1     2    1
    14     9     8    1
    15    17    15    1
    16    17    12    1
    17    16    15    1
    18    15    13    1
    19     2     3    1
    20     2     6    1
    21     8     7    1
    22     8    10    1
    23    12    11    1
    24     3     4   ar
    25     3     5   ar
    26     6     7    1
    27    13    11    1
    28    13    14    1
    29    11    10    1
