@<TRIPOS>MOLECULE
2v7v_5FD_A_1.pdb
 19 21 0 0 0
SMALL
GASTEIGER

@<TRIPOS>ATOM
      1  O2'       16.8680   28.4860   63.5090 O.3   1299  5FD1299    -0.2130
      2  C2'       17.0930   29.9170   63.6080 C.3   1299  5FD1299     0.2570
      3  C3'       17.2630   30.3080   65.0850 C.3   1299  5FD1299     0.2188
      4  O3'       17.3570   29.1490   65.9280 O.3   1299  5FD1299    -0.2174
      5  C4'       15.9410   30.9900   65.3670 C.3   1299  5FD1299     0.1875
      6  C5'       16.3650   32.0760   66.3120 C.3   1299  5FD1299     0.2254
      7  F19       15.8050   31.7320   67.4820 F     1299  5FD1299    -0.2315
      8  O4'       15.6190   31.6820   64.1820 O.3   1299  5FD1299    -0.3132
      9  C1'       15.8340   30.7000   63.1620 C.3   1299  5FD1299     0.3186
     10  N9        16.1100   31.3810   61.8840 N.pl3 1299  5FD1299    -0.1439
     11  C8        17.1020   32.2170   61.6160 C.3   1299  5FD1299     0.3377
     12  N7        17.0240   32.6060   60.3290 N.2   1299  5FD1299    -0.2095
     13  C5        15.9790   32.0210   59.7900 C.2   1299  5FD1299     0.2526
     14  C4        15.3810   31.2440   60.7790 C.2   1299  5FD1299     0.3518
     15  N3        14.2720   30.5290   60.5220 N.2   1299  5FD1299    -0.0055
     16  C2        13.7010   30.5370   59.3240 C.3   1299  5FD1299     0.5254
     17  N1        14.2770   31.3000   58.3170 N.2   1299  5FD1299     0.0021
     18  C6        15.4240   32.0550   58.5230 C.2   1299  5FD1299     0.4393
     19  N6        15.9790   32.8000   57.5510 N.pl3 1299  5FD1299     0.2180
@<TRIPOS>BOND
     1    19    18    1
     2    17    18    2
     3    17    16    1
     4    18    13    1
     5    16    15    1
     6    13    12    2
     7    13    14    1
     8    12    11    1
     9    15    14    2
    10    14    10    1
    11    11    10    1
    12    10     9    1
    13     9     2    1
    14     9     8    1
    15     1     2    1
    16     2     3    1
    17     8     5    1
    18     3     5    1
    19     3     4    1
    20     5     6    1
    21     6     7    1
