@<TRIPOS>MOLECULE
2v7w_5FD_A_1.pdb
 19 21 0 0 0
SMALL
GASTEIGER

@<TRIPOS>ATOM
      1  O2'       43.6620   13.0100   67.6940 O.3   1299  5FD1299    -0.2130
      2  C2'       42.2900   12.5730   67.6830 C.3   1299  5FD1299     0.2570
      3  C3'       41.6230   12.8070   69.0450 C.3   1299  5FD1299     0.2188
      4  O3'       42.4550   13.5900   69.8970 O.3   1299  5FD1299    -0.2174
      5  C4'       41.5750   11.3870   69.5800 C.3   1299  5FD1299     0.1875
      6  C5'       40.2950   11.2490   70.3460 C.3   1299  5FD1299     0.2254
      7  F19       40.6640   11.1210   71.6240 F     1299  5FD1299    -0.2315
      8  O4'       41.2320   10.6450   68.4470 O.3   1299  5FD1299    -0.3132
      9  C1'       42.2060   11.0400   67.5000 C.3   1299  5FD1299     0.3186
     10  N9        41.7610   10.7570   66.1180 N.pl3 1299  5FD1299    -0.1439
     11  C8        40.5990   11.1090   65.5220 C.3   1299  5FD1299     0.3377
     12  N7        40.6210   10.6810   64.2440 N.2   1299  5FD1299    -0.2095
     13  C5        41.8010   10.0790   64.0260 C.2   1299  5FD1299     0.2526
     14  C4        42.5200   10.1200   65.2160 C.2   1299  5FD1299     0.3518
     15  N3        43.7510    9.5700   65.3240 N.2   1299  5FD1299    -0.0055
     16  C2        44.3440    8.9800   64.2900 C.3   1299  5FD1299     0.5254
     17  N1        43.6430    8.9060   63.0570 N.2   1299  5FD1299     0.0021
     18  C6        42.3830    9.4450   62.9100 C.2   1299  5FD1299     0.4393
     19  N6        41.7450    9.3490   61.7240 N.pl3 1299  5FD1299     0.2180
@<TRIPOS>BOND
     1    19    18    1
     2    18    17    2
     3    18    13    1
     4    17    16    1
     5    13    12    2
     6    13    14    1
     7    12    11    1
     8    16    15    1
     9    14    15    2
    10    14    10    1
    11    11    10    1
    12    10     9    1
    13     9     2    1
    14     9     8    1
    15     2     1    1
    16     2     3    1
    17     8     5    1
    18     3     5    1
    19     3     4    1
    20     5     6    1
    21     6     7    1
