@<TRIPOS>MOLECULE
2v7x_5FD_A_1.pdb
 19 21 0 0 0
SMALL
GASTEIGER

@<TRIPOS>ATOM
      1  O2'       16.5740   27.7870   62.1000 O.3   1601  5FD1601    -0.2130
      2  C2'       16.8430   29.2030   62.0410 C.3   1601  5FD1601     0.2570
      3  C3'       17.1210   29.7980   63.4020 C.3   1601  5FD1601     0.2188
      4  O3'       17.5690   28.7840   64.3020 O.3   1601  5FD1601    -0.2174
      5  C4'       15.7420   30.1550   63.8060 C.3   1601  5FD1601     0.1875
      6  C5'       15.7880   30.8620   65.1360 C.3   1601  5FD1601     0.2254
      7  F19       14.5040   30.8120   65.6530 F     1601  5FD1601    -0.2315
      8  O4'       15.3710   30.9410   62.6510 O.3   1601  5FD1601    -0.3132
      9  C1'       15.5600   29.9450   61.6430 C.3   1601  5FD1601     0.3186
     10  N9        15.8590   30.5800   60.3610 N.pl3 1601  5FD1601    -0.1439
     11  C8        16.8620   31.3930   60.0900 C.3   1601  5FD1601     0.3377
     12  N7        16.8010   31.7690   58.8250 N.2   1601  5FD1601    -0.2095
     13  C5        15.7250   31.1850   58.2860 C.2   1601  5FD1601     0.2526
     14  C4        15.1280   30.4110   59.2760 C.2   1601  5FD1601     0.3518
     15  N3        14.0060   29.6910   59.0710 N.2   1601  5FD1601    -0.0055
     16  C2        13.4390   29.6760   57.8830 C.3   1601  5FD1601     0.5254
     17  N1        14.0010   30.4180   56.8380 N.2   1601  5FD1601     0.0021
     18  C6        15.1550   31.1950   57.0290 C.2   1601  5FD1601     0.4393
     19  N6        15.6840   31.8980   56.0190 N.pl3 1601  5FD1601     0.2180
@<TRIPOS>BOND
     1    19    18    1
     2    17    18    2
     3    17    16    1
     4    18    13    1
     5    16    15    1
     6    13    12    2
     7    13    14    1
     8    12    11    1
     9    15    14    2
    10    14    10    1
    11    11    10    1
    12    10     9    1
    13     9     2    1
    14     9     8    1
    15     2     1    1
    16     2     3    1
    17     8     5    1
    18     3     5    1
    19     3     4    1
    20     5     6    1
    21     6     7    1
