@<TRIPOS>MOLECULE
2v7y_ADP_A_1.pdb
 27 29 0 0 0
SMALL
GASTEIGER

@<TRIPOS>ATOM
      1  PB       -19.5400   17.5030  -59.2930 P.3   1505  ADP1505     0.5373
      2  O1B      -20.8900   16.9050  -59.2560 O.3   1505  ADP1505    -0.1143
      3  O2B      -19.4020   18.6170  -60.2740 O.2   1505  ADP1505    -0.2221
      4  O3B      -19.2830   17.7990  -57.8800 O.3   1505  ADP1505    -0.1143
      5  PA       -17.1270   15.5640  -59.2810 P.3   1505  ADP1505     0.2231
      6  O1A      -16.3070   16.2540  -58.2430 O.3   1505  ADP1505    -0.4370
      7  O2A      -17.4650   14.1140  -59.1160 O.2   1505  ADP1505    -0.5169
      8  O3A      -18.5840   16.2260  -59.6110 O.3   1505  ADP1505    -0.2261
      9  O5'      -16.5760   15.5880  -60.7720 O.3   1505  ADP1505    -0.3111
     10  C5'      -17.0810   14.7370  -61.7020 C.3   1505  ADP1505     0.1813
     11  C4'      -16.1170   14.8810  -62.8400 C.3   1505  ADP1505     0.1821
     12  O4'      -14.8560   14.2820  -62.4440 O.3   1505  ADP1505    -0.3135
     13  C3'      -16.6260   14.0810  -64.0360 C.3   1505  ADP1505     0.2184
     14  O3'      -16.4950   14.8740  -65.1840 O.3   1505  ADP1505    -0.2174
     15  C2'      -15.7230   12.9220  -64.1150 C.3   1505  ADP1505     0.2570
     16  O2'      -15.6700   12.4690  -65.4660 O.3   1505  ADP1505    -0.2130
     17  C1'      -14.4560   13.5390  -63.5790 C.3   1505  ADP1505     0.3186
     18  N9       -13.5940   12.4130  -63.1390 N.pl3 1505  ADP1505    -0.1439
     19  C8       -13.9130   11.4010  -62.3220 C.3   1505  ADP1505     0.3377
     20  N7       -12.8160   10.5910  -62.1760 N.2   1505  ADP1505    -0.2095
     21  C5       -11.8150   11.1060  -62.9970 C.2   1505  ADP1505     0.2526
     22  C6       -10.4470   10.7560  -63.4500 C.2   1505  ADP1505     0.4393
     23  N6        -9.8820    9.6690  -62.9270 N.pl3 1505  ADP1505     0.2180
     24  N1        -9.7790   11.5020  -64.3190 N.2   1505  ADP1505     0.0021
     25  C2       -10.2860   12.5830  -64.8140 C.3   1505  ADP1505     0.5254
     26  N3       -11.5360   12.9310  -64.4670 N.2   1505  ADP1505    -0.0055
     27  C4       -12.3140   12.2810  -63.5930 C.2   1505  ADP1505     0.3518
@<TRIPOS>BOND
     1    16    15    1
     2    14    13    1
     3    25    26    1
     4    25    24    1
     5    26    27    2
     6    24    22    2
     7    15    13    1
     8    15    17    1
     9    13    11    1
    10    27    18    1
    11    27    21    1
    12    17    18    1
    13    17    12    1
    14    22    21    1
    15    22    23    1
    16    18    19    1
    17    21    20    2
    18    11    12    1
    19    11    10    1
    20    19    20    1
    21    10     9    1
    22     9     5    1
    23     3     1    2
    24     8     1    1
    25     8     5    1
    26     1     2    1
    27     1     4    1
    28     5     7    2
    29     5     6    1
