@<TRIPOS>MOLECULE
2v7z_ADP_A_1.pdb
 27 29 0 0 0
SMALL
GASTEIGER

@<TRIPOS>ATOM
      1  PB        40.9210   -0.8880   52.8090 P.3   1383  ADP1383     0.5373
      2  O1B       40.6800    0.2230   51.8780 O.2   1383  ADP1383    -0.2221
      3  O2B       39.7740   -1.2270   53.8000 O.3   1383  ADP1383    -0.1143
      4  O3B       42.3560   -1.0790   53.3080 O.3   1383  ADP1383    -0.1143
      5  PA        41.7650   -2.2830   50.6000 P.3   1383  ADP1383     0.2231
      6  O1A       41.2250   -1.3970   49.5100 O.2   1383  ADP1383    -0.5169
      7  O2A       43.1740   -2.0420   51.2080 O.3   1383  ADP1383    -0.4370
      8  O3A       40.7820   -2.2580   51.8520 O.3   1383  ADP1383    -0.2261
      9  O5'       41.7150   -3.7980   50.0410 O.3   1383  ADP1383    -0.3111
     10  C5'       42.6250   -3.9720   48.9510 C.3   1383  ADP1383     0.1813
     11  C4'       43.1060   -5.4390   48.8790 C.3   1383  ADP1383     0.1821
     12  O4'       42.1610   -6.1890   48.1280 O.3   1383  ADP1383    -0.3135
     13  C3'       44.3960   -5.4390   48.0950 C.3   1383  ADP1383     0.2184
     14  O3'       45.4220   -6.2330   48.7600 O.3   1383  ADP1383    -0.2174
     15  C2'       44.1080   -6.0010   46.7440 C.3   1383  ADP1383     0.2570
     16  O2'       45.1440   -6.8260   46.2850 O.3   1383  ADP1383    -0.2130
     17  C1'       42.7950   -6.7900   47.0200 C.3   1383  ADP1383     0.3186
     18  N9        42.0020   -6.7880   45.7870 N.pl3 1383  ADP1383    -0.1439
     19  C8        41.6440   -5.7050   45.0610 C.3   1383  ADP1383     0.3377
     20  N7        40.9390   -6.0540   43.9700 N.2   1383  ADP1383    -0.2095
     21  C5        40.8180   -7.3950   43.9750 C.2   1383  ADP1383     0.2526
     22  C6        40.1980   -8.4110   43.1140 C.2   1383  ADP1383     0.4393
     23  N6        39.5280   -8.0650   41.9720 N.pl3 1383  ADP1383     0.2180
     24  N1        40.3020   -9.7110   43.4840 N.2   1383  ADP1383     0.0021
     25  C2        40.9540  -10.0770   44.6010 C.3   1383  ADP1383     0.5254
     26  N3        41.5450   -9.1950   45.4220 N.2   1383  ADP1383    -0.0055
     27  C4        41.5030   -7.8680   45.1720 C.2   1383  ADP1383     0.3518
@<TRIPOS>BOND
     1    23    22    1
     2    22    24    2
     3    22    21    1
     4    24    25    1
     5    20    21    2
     6    20    19    1
     7    21    27    1
     8    25    26    1
     9    19    18    1
    10    27    26    2
    11    27    18    1
    12    18    17    1
    13    16    15    1
    14    15    17    1
    15    15    13    1
    16    17    12    1
    17    13    14    1
    18    13    11    1
    19    12    11    1
    20    11    10    1
    21    10     9    1
    22     6     5    2
    23     9     5    1
    24     5     7    1
    25     5     8    1
    26     8     1    1
    27     2     1    2
    28     1     4    1
    29     1     3    1
