@<TRIPOS>MOLECULE
2v82_KDP_A_1.pdb
 15 14 0 0 0
SMALL
GASTEIGER

@<TRIPOS>ATOM
      1  OAH       14.8940    0.4250   -6.9240 O.3   1207  KDP1207    -0.1145
      2  PAP       15.9710    1.2010   -6.1840 P.3   1207  KDP1207     0.5327
      3  OAC       16.2860    2.4620   -6.9600 O.2   1207  KDP1207    -0.2224
      4  OAG       17.2290    0.3670   -6.1020 O.3   1207  KDP1207    -0.1145
      5  OAK       15.4800    1.5880   -4.6910 O.3   1207  KDP1207    -0.2674
      6  CAI       14.9310    0.5920   -3.8100 C.3   1207  KDP1207     0.1891
      7  CAN       15.7930    0.3750   -2.5580 C.3   1207  KDP1207     0.2121
      8  OAD       17.1040    0.0410   -2.9960 O.3   1207  KDP1207    -0.2177
      9  CAO       15.7690    1.6260   -1.6450 C.3   1207  KDP1207     0.1852
     10  OAE       17.0790    1.9630   -1.2710 O.3   1207  KDP1207    -0.2203
     11  CAJ       14.9410    1.4310   -0.3560 C.3   1207  KDP1207     0.0474
     12  CAM       15.0960    2.3790    0.8560 C.3   1207  KDP1207     0.1168
     13  CAL       16.1790    2.1070    1.9440 C.2   1207  KDP1207     0.3649
     14  OAA       16.1600    2.6770    3.0550 O.co2 1207  KDP1207    -0.2457
     15  OAF       17.0960    1.3210    1.7420 O.co2 1207  KDP1207    -0.2457
@<TRIPOS>BOND
     1     3     2    2
     2     1     2    1
     3     2     4    1
     4     2     5    1
     5     5     6    1
     6     6     7    1
     7     8     7    1
     8     7     9    1
     9     9    10    1
    10     9    11    1
    11    11    12    1
    12    12    13    1
    13    15    13   ar
    14    13    14   ar
