@<TRIPOS>MOLECULE
2v84_MES_A_1.pdb
 12 12 0 0 0
SMALL
GASTEIGER

@<TRIPOS>ATOM
      1  O1        -9.9360   21.4600  -12.8060 O.3   1326  MES1326    -0.3508
      2  C2        -9.5130   20.2380  -12.2200 C.3   1326  MES1326     0.1595
      3  C3        -8.4230   20.5410  -11.2040 C.3   1326  MES1326     0.1047
      4  N4        -7.7700   21.7840  -11.5840 N.3   1326  MES1326    -0.2670
      5  C5        -7.5890   22.1350  -12.9800 C.3   1326  MES1326     0.1047
      6  C6        -8.9450   22.0310  -13.6640 C.3   1326  MES1326     0.1595
      7  C7        -7.3870   22.7160  -10.5240 C.3   1326  MES1326     0.0940
      8  C8        -5.9830   23.2920  -10.6780 C.3   1326  MES1326     0.1225
      9  S         -5.8760   24.6860   -9.7620 S.3   1326  MES1326    -0.1946
     10  O1S       -6.7380   25.7210  -10.3500 O.3   1326  MES1326    -0.3074
     11  O2S       -6.3200   24.4030   -8.3890 O.3   1326  MES1326    -0.3074
     12  O3S       -4.4790   25.1820   -9.8270 O.3   1326  MES1326    -0.3074
@<TRIPOS>BOND
     1     6     5    1
     2     6     1    1
     3     5     4    1
     4     1     2    1
     5     2     3    1
     6     4     3    1
     7     4     7    1
     8     8     7    1
     9     8     9    1
    10    10     9    1
    11    12     9    1
    12     9    11    1
