@<TRIPOS>MOLECULE
2v8k_TGU_A_1.pdb
 37 39 0 0 0
SMALL
GASTEIGER

@<TRIPOS>ATOM
      1  C1A       -8.4070   30.3840   15.5770 C.3   1547  TGU1547     0.3028
      2  C2A       -8.1810   31.7750   16.2120 C.3   1547  TGU1547     0.2434
      3  C3A       -6.8700   32.4000   15.6790 C.3   1547  TGU1547     0.2173
      4  C4A       -5.6870   31.4280   15.8700 C.3   1547  TGU1547     0.1889
      5  C5A       -6.0150   30.0060   15.2750 C.3   1547  TGU1547     0.2498
      6  C6A       -4.8190   29.0100   15.2950 C.2   1547  TGU1547     0.3940
      7  O1X       -8.6700   30.5350   14.1440 O.3   1547  TGU1547    -0.1869
      8  O2A       -9.3030   32.6230   15.9500 O.3   1547  TGU1547    -0.2148
      9  O3A       -6.6000   33.6430   16.3370 O.3   1547  TGU1547    -0.2175
     10  O4A       -5.4570   31.4170   17.2850 O.3   1547  TGU1547    -0.3252
     11  O5A       -7.2580   29.4940   15.8890 O.3   1547  TGU1547    -0.3149
     12  O6A       -3.7890   29.3340   14.6560 O.co2 1547  TGU1547    -0.2429
     13  C1B       -4.2690   30.7360   17.6870 C.3   1547  TGU1547     0.2700
     14  C2B       -4.4670   30.4600   19.1800 C.3   1547  TGU1547     0.2405
     15  C3B       -4.3000   31.7620   19.9660 C.3   1547  TGU1547     0.2172
     16  C4B       -2.9700   32.4620   19.6080 C.3   1547  TGU1547     0.1889
     17  C5B       -2.9070   32.7300   18.1090 C.3   1547  TGU1547     0.2497
     18  C6B       -1.5310   33.3230   17.7980 C.2   1547  TGU1547     0.3940
     19  O2B       -5.7730   29.9130   19.4090 O.3   1547  TGU1547    -0.2149
     20  O3B       -4.3810   31.4820   21.3710 O.3   1547  TGU1547    -0.2175
     21  O4B       -1.7720   31.6850   19.6440 O.3   1547  TGU1547    -0.3252
     22  O5B       -3.0600   31.5030   17.3440 O.3   1547  TGU1547    -0.3170
     23  O6B       -0.7020   32.6060   17.1740 O.co2 1547  TGU1547    -0.2429
     24  C1C       -1.2830   31.2610   20.8860 C.3   1547  TGU1547     0.2700
     25  C2C        0.1000   30.5840   20.7670 C.3   1547  TGU1547     0.2406
     26  C3C        0.2400   29.6720   21.9960 C.3   1547  TGU1547     0.2203
     27  C4C       -0.1610   30.4200   23.3050 C.3   1547  TGU1547     0.2229
     28  C5C       -1.4310   31.3140   23.0940 C.3   1547  TGU1547     0.2529
     29  C6C       -1.9770   32.0430   24.3370 C.2   1547  TGU1547     0.3941
     30  O2C        0.2270   29.8560   19.5330 O.3   1547  TGU1547    -0.2149
     31  O3C        1.5730   29.1510   22.0650 O.3   1547  TGU1547    -0.2174
     32  O4C        0.9370   31.2150   23.7960 O.3   1547  TGU1547    -0.2171
     33  O5C       -1.2420   32.2300   21.9560 O.3   1547  TGU1547    -0.3169
     34  O6C       -1.3780   33.0600   24.7620 O.co2 1547  TGU1547    -0.2429
     35  OAC       -4.9240   27.9410   15.9490 O.co2 1547  TGU1547    -0.2429
     36  OAN       -1.3170   34.4900   18.1980 O.co2 1547  TGU1547    -0.2429
     37  OAZ       -3.0160   31.5660   24.8480 O.co2 1547  TGU1547    -0.2429
@<TRIPOS>BOND
     1     7     1    1
     2    12     6   ar
     3     5     6    1
     4     5     4    1
     5     5    11    1
     6     6    35   ar
     7     1    11    1
     8     1     2    1
     9     3     4    1
    10     3     2    1
    11     3     9    1
    12     4    10    1
    13     8     2    1
    14    23    18   ar
    15    10    13    1
    16    22    13    1
    17    22    17    1
    18    13    14    1
    19    18    17    1
    20    18    36   ar
    21    17    16    1
    22    14    19    1
    23    14    15    1
    24    30    25    1
    25    16    21    1
    26    16    15    1
    27    21    24    1
    28    15    20    1
    29    25    24    1
    30    25    26    1
    31    24    33    1
    32    33    28    1
    33    26    31    1
    34    26    27    1
    35    28    27    1
    36    28    29    1
    37    27    32    1
    38    29    34   ar
    39    29    37   ar
