@<TRIPOS>MOLECULE
2v8l_GLC_A_1.pdb
 11 11 0 0 0
SMALL
GASTEIGER

@<TRIPOS>ATOM
      1  C1        -7.9260   -1.6040   28.7240 C.3   1108  GLC1108     0.1777
      2  C2        -7.0210   -0.5540   28.0450 C.3   1108  GLC1108     0.2141
      3  C3        -6.6450   -0.9950   26.6280 C.3   1108  GLC1108     0.2173
      4  C4        -6.0700   -2.4030   26.6010 C.3   1108  GLC1108     0.2142
      5  C5        -7.0220   -3.3640   27.3580 C.3   1108  GLC1108     0.1810
      6  C6        -6.4920   -4.7810   27.4940 C.3   1108  GLC1108     0.2141
      7  O2        -7.7050    0.6950   27.9490 O.3   1108  GLC1108    -0.2176
      8  O3        -5.7080   -0.0840   26.0690 O.3   1108  GLC1108    -0.2175
      9  O4        -5.9820   -2.8100   25.2250 O.3   1108  GLC1108    -0.2176
     10  O5        -7.2790   -2.8700   28.6980 O.3   1108  GLC1108    -0.3481
     11  O6        -5.4810   -4.8460   28.4760 O.3   1108  GLC1108    -0.2176
@<TRIPOS>BOND
     1     9     4    1
     2     8     3    1
     3     4     3    1
     4     4     5    1
     5     3     2    1
     6     5     6    1
     7     5    10    1
     8     6    11    1
     9     7     2    1
    10     2     1    1
    11    10     1    1
