@<TRIPOS>MOLECULE
2v8m_GLC_A_1.pdb
 11 11 0 0 0
SMALL
GASTEIGER

@<TRIPOS>ATOM
      1  C1        17.0880  -23.0720    6.7850 C.3   1002  GLC1002     0.1777
      2  C2        15.8180  -22.8610    5.9120 C.3   1002  GLC1002     0.2141
      3  C3        15.3460  -24.1910    5.3060 C.3   1002  GLC1002     0.2173
      4  C4        16.5090  -24.8320    4.5580 C.3   1002  GLC1002     0.2142
      5  C5        17.6490  -25.0620    5.5440 C.3   1002  GLC1002     0.1810
      6  C6        18.8480  -25.7850    4.9640 C.3   1002  GLC1002     0.2141
      7  O2        14.7740  -22.3060    6.6930 O.3   1002  GLC1002    -0.2176
      8  O3        14.2630  -23.9710    4.4100 O.3   1002  GLC1002    -0.2175
      9  O4        16.0890  -26.0600    3.9490 O.3   1002  GLC1002    -0.2176
     10  O5        18.0920  -23.7770    6.0440 O.3   1002  GLC1002    -0.3481
     11  O6        19.3400  -25.1190    3.8150 O.3   1002  GLC1002    -0.2176
@<TRIPOS>BOND
     1    11     6    1
     2     9     4    1
     3     8     3    1
     4     4     3    1
     5     4     5    1
     6     6     5    1
     7     3     2    1
     8     5    10    1
     9     2     7    1
    10     2     1    1
    11    10     1    1
