@<TRIPOS>MOLECULE
2v8p_ADP_A_1.pdb
 27 29 0 0 0
SMALL
GASTEIGER

@<TRIPOS>ATOM
      1  PB       102.4010    6.2380   55.8310 P.3   1270  ADP1270     0.5373
      2  O1B      102.1530    5.1300   56.8250 O.3   1270  ADP1270    -0.1143
      3  O2B      102.4760    5.7850   54.3950 O.2   1270  ADP1270    -0.2221
      4  O3B      103.5340    7.1570   56.2110 O.3   1270  ADP1270    -0.1143
      5  PA        99.8230    6.9730   56.8670 P.3   1270  ADP1270     0.2231
      6  O1A      100.2870    7.2870   58.2670 O.3   1270  ADP1270    -0.4370
      7  O2A       98.6570    7.7510   56.3240 O.2   1270  ADP1270    -0.5169
      8  O3A      101.0740    7.1650   55.8690 O.3   1270  ADP1270    -0.2261
      9  O5'       99.4800    5.3950   56.7830 O.3   1270  ADP1270    -0.3111
     10  C5'       98.3670    4.8880   56.0430 C.3   1270  ADP1270     0.1813
     11  C4'       97.6020    3.8100   56.8090 C.3   1270  ADP1270     0.1821
     12  O4'       97.4840    4.1290   58.2030 O.3   1270  ADP1270    -0.3135
     13  C3'       96.1820    3.6820   56.2710 C.3   1270  ADP1270     0.2184
     14  O3'       96.0610    2.5890   55.3510 O.3   1270  ADP1270    -0.2174
     15  C2'       95.2900    3.5070   57.4920 C.3   1270  ADP1270     0.2570
     16  O2'       94.7370    2.1850   57.5530 O.3   1270  ADP1270    -0.2130
     17  C1'       96.1810    3.7900   58.7000 C.3   1270  ADP1270     0.3186
     18  N9        95.6080    4.9160   59.4860 N.pl3 1270  ADP1270    -0.1439
     19  C8        95.0390    4.8150   60.7020 C.3   1270  ADP1270     0.3377
     20  N7        94.6070    6.0230   61.1520 N.2   1270  ADP1270    -0.2095
     21  C5        94.8950    6.9330   60.2060 C.2   1270  ADP1270     0.2526
     22  C6        94.7110    8.3970   60.0310 C.2   1270  ADP1270     0.4393
     23  N6        94.1140    9.1600   60.9830 N.pl3 1270  ADP1270     0.2180
     24  N1        95.1650    8.9470   58.8800 N.2   1270  ADP1270     0.0021
     25  C2        95.7600    8.2150   57.9140 C.3   1270  ADP1270     0.5254
     26  N3        95.9580    6.8890   58.0040 N.2   1270  ADP1270    -0.0055
     27  C4        95.5570    6.2000   59.1060 C.2   1270  ADP1270     0.3518
@<TRIPOS>BOND
     1     3     1    2
     2    14    13    1
     3     1     8    1
     4     1     4    1
     5     1     2    1
     6     8     5    1
     7    10     9    1
     8    10    11    1
     9    13    11    1
    10    13    15    1
    11     7     5    2
    12     9     5    1
    13    11    12    1
    14     5     6    1
    15    15    16    1
    16    15    17    1
    17    25    26    1
    18    25    24    1
    19    26    27    2
    20    12    17    1
    21    17    18    1
    22    24    22    2
    23    27    18    1
    24    27    21    1
    25    18    19    1
    26    22    21    1
    27    22    23    1
    28    21    20    2
    29    19    20    1
