@<TRIPOS>MOLECULE
2v8p_CDP_A_1.pdb
 25 26 0 0 0
SMALL
GASTEIGER

@<TRIPOS>ATOM
      1  O3B      103.1940   -1.2710   63.1840 O.3   1269  CDP1269    -0.1143
      2  PB       101.9410   -1.8070   62.5340 P.3   1269  CDP1269     0.5373
      3  O1B      101.9770   -3.2800   62.1990 O.2   1269  CDP1269    -0.2221
      4  O2B      100.6740   -1.3780   63.2370 O.3   1269  CDP1269    -0.1143
      5  O3A      101.8260   -1.0970   61.0840 O.3   1269  CDP1269    -0.2261
      6  PA       102.9600   -0.1800   60.3830 P.3   1269  CDP1269     0.2231
      7  O1A      103.6210    0.7100   61.4090 O.3   1269  CDP1269    -0.4370
      8  O2A      102.3310    0.4370   59.1560 O.2   1269  CDP1269    -0.5169
      9  O5'      104.0470   -1.2490   59.8810 O.3   1269  CDP1269    -0.3111
     10  C5'      103.6080   -2.4420   59.2450 C.3   1269  CDP1269     0.1813
     11  C4'      104.6550   -3.5340   59.3980 C.3   1269  CDP1269     0.1799
     12  O4'      105.9050   -3.1320   58.8130 O.3   1269  CDP1269    -0.3320
     13  C3'      104.9750   -3.8790   60.8440 C.3   1269  CDP1269     0.2158
     14  O3'      104.0600   -4.8390   61.3850 O.3   1269  CDP1269    -0.2175
     15  C2'      106.3830   -4.4270   60.7340 C.3   1269  CDP1269     0.2319
     16  O2'      106.3580   -5.8290   60.4170 O.3   1269  CDP1269    -0.2157
     17  C1'      107.0020   -3.6500   59.5800 C.3   1269  CDP1269     0.2400
     18  N1       107.8820   -2.5970   60.1310 N.am  1269  CDP1269    -0.1778
     19  C2       109.2180   -2.9320   60.4760 C.1   1269  CDP1269     0.2756
     20  O2       109.6400   -4.0950   60.2960 O.2   1269  CDP1269    -0.1925
     21  N3       110.0460   -1.9990   60.9930 N.2   1269  CDP1269    -0.3024
     22  C4       109.6180   -0.7350   61.1940 C.2   1269  CDP1269     0.2346
     23  N4       110.4670    0.1790   61.7130 N.pl3 1269  CDP1269    -0.0921
     24  C5       108.3080   -0.3790   60.8650 C.2   1269  CDP1269     0.0687
     25  C6       107.4480   -1.3360   60.3320 C.2   1269  CDP1269     0.0836
@<TRIPOS>BOND
     1    12    11    1
     2    12    17    1
     3     8     6    2
     4    10    11    1
     5    10     9    1
     6    11    13    1
     7    17    18    1
     8    17    15    1
     9     9     6    1
    10    18    25    1
    11    18    19   am
    12    20    19    2
    13    25    24    2
    14     6     5    1
    15     6     7    1
    16    16    15    1
    17    19    21    2
    18    15    13    1
    19    13    14    1
    20    24    22    1
    21    21    22    2
    22     5     2    1
    23    22    23    1
    24     3     2    2
    25     2     1    1
    26     2     4    1
