@<TRIPOS>MOLECULE
2v8q_AMP_E_1.pdb
 23 25 0 0 0
SMALL
GASTEIGER

@<TRIPOS>ATOM
      1  P         22.5060   55.2820   47.5420 P.3   1327  AMP1327     0.5327
      2  O1P       21.9200   55.8320   46.2550 O.2   1327  AMP1327    -0.2224
      3  O2P       23.7910   54.5120   47.4370 O.3   1327  AMP1327    -0.1145
      4  O3P       21.4690   54.6470   48.4270 O.3   1327  AMP1327    -0.1145
      5  O5'       22.9530   56.6270   48.3430 O.3   1327  AMP1327    -0.2675
      6  C5'       22.1020   57.7750   48.3850 C.3   1327  AMP1327     0.1860
      7  C4'       22.3940   58.6770   49.5890 C.3   1327  AMP1327     0.1823
      8  O4'       21.7630   58.1420   50.7620 O.3   1327  AMP1327    -0.3135
      9  C3'       23.8770   58.8040   49.9160 C.3   1327  AMP1327     0.2184
     10  O3'       24.1220   60.1270   50.4080 O.3   1327  AMP1327    -0.2174
     11  C2'       24.0870   57.8050   51.0380 C.3   1327  AMP1327     0.2570
     12  O2'       25.1510   58.1530   51.9320 O.3   1327  AMP1327    -0.2130
     13  C1'       22.7410   57.7670   51.7360 C.3   1327  AMP1327     0.3186
     14  N9        22.4730   56.3960   52.2300 N.pl3 1327  AMP1327    -0.1439
     15  C8        22.5200   55.2580   51.5100 C.3   1327  AMP1327     0.3377
     16  N7        22.2240   54.1810   52.2830 N.2   1327  AMP1327    -0.2095
     17  C5        21.9760   54.6370   53.5280 C.2   1327  AMP1327     0.2526
     18  C6        21.6020   54.0500   54.8280 C.2   1327  AMP1327     0.4393
     19  N6        21.4290   52.7020   54.9770 N.pl3 1327  AMP1327     0.2180
     20  N1        21.4420   54.9110   55.8640 N.2   1327  AMP1327     0.0021
     21  C2        21.6080   56.2420   55.7650 C.3   1327  AMP1327     0.5254
     22  N3        21.9450   56.8400   54.6120 N.2   1327  AMP1327    -0.0055
     23  C4        22.1320   56.1060   53.4850 C.2   1327  AMP1327     0.3518
@<TRIPOS>BOND
     1     2     1    2
     2     3     1    1
     3     1     5    1
     4     1     4    1
     5     5     6    1
     6     6     7    1
     7     7     9    1
     8     7     8    1
     9     9    10    1
    10     9    11    1
    11     8    13    1
    12    11    13    1
    13    11    12    1
    14    15    14    1
    15    15    16    1
    16    13    14    1
    17    14    23    1
    18    16    17    2
    19    23    17    1
    20    23    22    2
    21    17    18    1
    22    22    21    1
    23    18    19    1
    24    18    20    2
    25    21    20    1
