@<TRIPOS>MOLECULE
2v8w_MGO_A_1.pdb
 33 35 0 0 0
SMALL
GASTEIGER

@<TRIPOS>ATOM
      1  OAJ       26.3110   47.7320   19.8010 O.3   1218  MGO1218    -0.1143
      2  PBE       27.6540   46.8740   19.3580 P.3   1218  MGO1218     0.5373
      3  OAD       27.5500   45.4770   20.1750 O.3   1218  MGO1218    -0.1143
      4  OAI       28.9530   47.5750   19.6210 O.2   1218  MGO1218    -0.2221
      5  OAS       27.4570   46.7060   17.7780 O.3   1218  MGO1218    -0.2258
      6  PBG       27.1840   45.3420   17.0620 P.3   1218  MGO1218     0.2277
      7  OAL       27.0550   45.9350   15.5320 O.2   1218  MGO1218    -0.5168
      8  OAF       28.2500   44.3460   17.2340 O.3   1218  MGO1218    -0.4368
      9  OAT       25.8090   44.7350   17.5430 O.3   1218  MGO1218    -0.2700
     10  PBF       24.3840   45.1370   16.9580 P.3   1218  MGO1218     0.2189
     11  OAK       23.3920   44.1490   17.7780 O.3   1218  MGO1218    -0.4371
     12  OAE       24.2350   44.9350   15.5260 O.2   1218  MGO1218    -0.5170
     13  O5'       24.0670   46.6540   17.3560 O.3   1218  MGO1218    -0.3112
     14  C5'       24.6040   47.8280   16.7160 C.3   1218  MGO1218     0.1813
     15  C4'       23.5820   48.9710   16.8270 C.3   1218  MGO1218     0.1799
     16  O4'       22.5450   48.4550   15.9790 O.3   1218  MGO1218    -0.3326
     17  C3'       22.8260   49.0930   18.1350 C.3   1218  MGO1218     0.2158
     18  O3'       23.4870   49.9680   19.0170 O.3   1218  MGO1218    -0.2175
     19  C2'       21.5300   49.7380   17.6550 C.3   1218  MGO1218     0.2309
     20  O2'       21.7430   51.1150   17.3230 O.3   1218  MGO1218    -0.2158
     21  C1'       21.2690   48.9450   16.3930 C.3   1218  MGO1218     0.2271
     22  NBC       20.3690   47.8190   16.7450 N.pl3 1218  MGO1218    -0.2678
     23  CAN       20.6730   46.5250   16.9480 C.3   1218  MGO1218     0.1908
     24  NBD       19.5430   45.8920   17.2780 N.pl3 1218  MGO1218    -0.2784
     25  CAA       19.4680   44.4620   17.5850 C.3   1218  MGO1218     0.1145
     26  CAX       18.5090   46.7400   17.2520 C.2   1218  MGO1218     0.1553
     27  CAW       19.0570   47.9770   16.9260 C.2   1218  MGO1218     0.0624
     28  CAM       18.2680   49.1280   16.8020 C.3   1218  MGO1218     0.1221
     29  CAU       16.9240   49.0410   17.0150 C.2   1218  MGO1218     0.2152
     30  NAB       16.1850   50.1530   16.8840 N.pl3 1218  MGO1218    -0.0966
     31  NAP       16.3460   47.8180   17.3730 N.2   1218  MGO1218    -0.3176
     32  CAV       17.1310   46.6480   17.4830 C.1   1218  MGO1218     0.2205
     33  OAC       16.5830   45.5750   17.7790 O.2   1218  MGO1218    -0.2080
@<TRIPOS>BOND
     1    12    10    2
     2     7     6    2
     3    16    21    1
     4    16    15    1
     5    21    22    1
     6    21    19    1
     7    14    15    1
     8    14    13    1
     9    22    27    1
    10    22    23    1
    11    28    27    1
    12    28    29    1
    13    15    17    1
    14    30    29    1
    15    27    26    2
    16    23    24    1
    17    10    13    1
    18    10     9    1
    19    10    11    1
    20    29    31    2
    21     6     8    1
    22     6     9    1
    23     6     5    1
    24    26    24    1
    25    26    32    1
    26    24    25    1
    27    20    19    1
    28    31    32    2
    29    32    33    2
    30    19    17    1
    31     5     2    1
    32    17    18    1
    33     2     4    2
    34     2     1    1
    35     2     3    1
