@<TRIPOS>MOLECULE
2v8x_MGQ_A_1.pdb
 31 34 0 0 0
SMALL
GASTEIGER

@<TRIPOS>ATOM
      1  CAK       19.4070    6.3690   19.5020 C.ar  1218  MGQ1218    -0.0029
      2  CAI       19.1480    6.8570   20.7830 C.ar  1218  MGQ1218    -0.0003
      3  CAH       17.8610    6.8010   21.3210 C.ar  1218  MGQ1218    -0.0000
      4  CAJ       16.8260    6.2700   20.5670 C.ar  1218  MGQ1218    -0.0003
      5  CAL       17.0790    5.7870   19.2780 C.ar  1218  MGQ1218    -0.0029
      6  CAU       18.3630    5.8300   18.7500 C.ar  1218  MGQ1218    -0.0061
      7  CAO       18.6220    5.3470   17.3190 C.3   1218  MGQ1218     0.1017
      8  N7        18.6360    3.8920   17.1880 N.3   1218  MGQ1218    -0.2316
      9  C8        17.5370    3.2030   16.9150 C.3   1218  MGQ1218     0.1737
     10  C5        19.6970    3.0790   17.2570 C.3   1218  MGQ1218     0.2477
     11  C6        21.0800    3.2190   17.4830 C.1   1218  MGQ1218     0.2145
     12  O6        21.6480    4.3000   17.7100 O.2   1218  MGQ1218    -0.2115
     13  N1        21.8550    2.0490   17.4930 N.2   1218  MGQ1218    -0.2526
     14  C2        21.2660    0.8030   17.2520 C.1   1218  MGQ1218     0.2525
     15  N2        22.0220   -0.2990   17.2460 N.pl3 1218  MGQ1218    -0.0226
     16  N3        19.9450    0.6940   17.0340 N.2   1218  MGQ1218    -0.3118
     17  C4        19.1720    1.7920   17.0420 C.2   1218  MGQ1218     0.2086
     18  N9        17.8640    1.9060   16.8280 N.pl3 1218  MGQ1218    -0.2454
     19  C1'       16.9460    0.7660   16.5640 C.3   1218  MGQ1218     0.2287
     20  O4'       15.7090    1.3230   16.1220 O.3   1218  MGQ1218    -0.3326
     21  C2'       16.6460    0.0570   17.8660 C.3   1218  MGQ1218     0.2310
     22  O2'       16.3530   -1.2670   17.5380 O.3   1218  MGQ1218    -0.2158
     23  C3'       15.3740    0.7650   18.3120 C.3   1218  MGQ1218     0.2158
     24  O3'       14.6490   -0.0300   19.2590 O.3   1218  MGQ1218    -0.2175
     25  C4'       14.6570    0.8730   16.9660 C.3   1218  MGQ1218     0.1801
     26  C5'       13.6800    2.0390   16.7960 C.3   1218  MGQ1218     0.1859
     27  O5'       14.2970    3.2370   17.2640 O.3   1218  MGQ1218    -0.2675
     28  PBE       13.8660    4.7410   16.7860 P.3   1218  MGQ1218     0.5327
     29  OP2       15.0940    5.1760   15.8380 O.2   1218  MGQ1218    -0.2224
     30  OP3       12.5010    4.5120   15.9080 O.3   1218  MGQ1218    -0.1145
     31  OP1       13.7260    5.7670   17.8320 O.3   1218  MGQ1218    -0.1145
@<TRIPOS>BOND
     1    29    28    2
     2    30    28    1
     3    20    19    1
     4    20    25    1
     5    19    18    1
     6    19    21    1
     7    28    27    1
     8    28    31    1
     9    26    25    1
    10    26    27    1
    11    18     9    1
    12    18    17    1
    13     9     8    1
    14    25    23    1
    15    16    17    2
    16    16    14    2
    17    17    10    1
    18     8    10    1
    19     8     7    1
    20    15    14    1
    21    14    13    2
    22    10    11    1
    23     7     6    1
    24    11    13    2
    25    11    12    2
    26    22    21    1
    27    21    23    1
    28    23    24    1
    29     6     5   ar
    30     6     1   ar
    31     5     4   ar
    32     1     2   ar
    33     4     3   ar
    34     2     3   ar
