@<TRIPOS>MOLECULE
2v8y_MGV_A_1.pdb
 32 35 0 0 0
SMALL
GASTEIGER

@<TRIPOS>ATOM
      1  CAK       17.0830    5.8230   19.0620 C.ar  1218  MGV1218    -0.0006
      2  CAI       16.8110    6.2890   20.3400 C.ar  1218  MGV1218     0.0294
      3  CAU       17.8500    6.7900   21.1150 C.ar  1218  MGV1218     0.1401
      4  FAH       17.5980    7.2400   22.3500 F     1218  MGV1218    -0.2042
      5  CAJ       19.1550    6.8110   20.6580 C.ar  1218  MGV1218     0.0294
      6  CAL       19.4510    6.3350   19.3980 C.ar  1218  MGV1218    -0.0006
      7  CAV       18.4000    5.8560   18.6240 C.ar  1218  MGV1218    -0.0059
      8  CAO       18.7220    5.3700   17.2720 C.3   1218  MGV1218     0.1017
      9  N7        18.6820    3.9120   17.1500 N.3   1218  MGV1218    -0.2316
     10  C8        17.5780    3.2280   16.8490 C.3   1218  MGV1218     0.1737
     11  C5        19.7390    3.1140   17.2040 C.3   1218  MGV1218     0.2477
     12  C6        21.1060    3.2860   17.4600 C.1   1218  MGV1218     0.2145
     13  O6        21.6400    4.3750   17.6900 O.2   1218  MGV1218    -0.2115
     14  N1        21.9040    2.1530   17.4540 N.2   1218  MGV1218    -0.2526
     15  C2        21.3530    0.9020   17.1890 C.1   1218  MGV1218     0.2525
     16  N2        22.1570   -0.1550   17.1910 N.pl3 1218  MGV1218    -0.0226
     17  N3        20.0500    0.7590   16.9450 N.2   1218  MGV1218    -0.3118
     18  C4        19.2440    1.8370   16.9580 C.2   1218  MGV1218     0.2086
     19  N9        17.9290    1.9430   16.7380 N.pl3 1218  MGV1218    -0.2454
     20  C1'       17.0180    0.7580   16.4570 C.3   1218  MGV1218     0.2287
     21  O4'       15.7430    1.1970   16.0230 O.3   1218  MGV1218    -0.3326
     22  C2'       16.7790   -0.0020   17.7660 C.3   1218  MGV1218     0.2310
     23  O2'       16.4550   -1.3550   17.5050 O.3   1218  MGV1218    -0.2158
     24  C3'       15.5600    0.7310   18.3140 C.3   1218  MGV1218     0.2158
     25  O3'       14.9120   -0.0390   19.3620 O.3   1218  MGV1218    -0.2175
     26  C4'       14.7420    0.8410   17.0270 C.3   1218  MGV1218     0.1801
     27  C5'       13.7190    2.0080   16.9220 C.3   1218  MGV1218     0.1859
     28  O5'       14.3160    3.2520   17.2950 O.3   1218  MGV1218    -0.2675
     29  P         13.7460    4.7110   16.7410 P.3   1218  MGV1218     0.5327
     30  OP3       13.1140    5.4460   18.0080 O.3   1218  MGV1218    -0.1145
     31  OP2       15.0890    5.4930   16.3590 O.3   1218  MGV1218    -0.1145
     32  OP1       12.7630    4.5330   15.6480 O.2   1218  MGV1218    -0.2224
@<TRIPOS>BOND
     1    32    29    2
     2    21    20    1
     3    21    26    1
     4    31    29    1
     5    20    19    1
     6    20    22    1
     7    19    10    1
     8    19    18    1
     9    29    28    1
    10    29    30    1
    11    10     9    1
    12    27    26    1
    13    27    28    1
    14    17    18    2
    15    17    15    2
    16    18    11    1
    17    26    24    1
    18     9    11    1
    19     9     8    1
    20    15    16    1
    21    15    14    2
    22    11    12    1
    23     8     7    1
    24    14    12    2
    25    12    13    2
    26    23    22    1
    27    22    24    1
    28    24    25    1
    29     7     1   ar
    30     7     6   ar
    31     1     2   ar
    32     6     5   ar
    33     2     3   ar
    34     5     3   ar
    35     3     4    1
