@<TRIPOS>MOLECULE
2v92_AMP_E_1.pdb
 23 25 0 0 0
SMALL
GASTEIGER

@<TRIPOS>ATOM
      1  P         25.1100   47.0560   44.7740 P.3   1329  AMP1329     0.5327
      2  O1P       24.2510   47.1260   43.5310 O.2   1329  AMP1329    -0.2224
      3  O2P       24.5190   47.7350   45.9950 O.3   1329  AMP1329    -0.1145
      4  O3P       26.5800   47.3710   44.5570 O.3   1329  AMP1329    -0.1145
      5  O5'       25.0560   45.5060   45.1950 O.3   1329  AMP1329    -0.2675
      6  C5'       25.4390   44.4210   44.3430 C.3   1329  AMP1329     0.1860
      7  C4'       25.6800   43.2160   45.2510 C.3   1329  AMP1329     0.1823
      8  O4'       26.7780   43.4930   46.1290 O.3   1329  AMP1329    -0.3135
      9  C3'       24.4980   42.9170   46.1570 C.3   1329  AMP1329     0.2184
     10  O3'       24.3770   41.5050   46.2710 O.3   1329  AMP1329    -0.2174
     11  C2'       24.8520   43.5510   47.4900 C.3   1329  AMP1329     0.2570
     12  O2'       24.2550   42.9080   48.6250 O.3   1329  AMP1329    -0.2130
     13  C1'       26.3630   43.4430   47.4930 C.3   1329  AMP1329     0.3186
     14  N9        26.9950   44.5390   48.2610 N.pl3 1329  AMP1329    -0.1439
     15  C8        26.6130   45.8290   48.2970 C.3   1329  AMP1329     0.3377
     16  N7        27.4160   46.5590   49.1120 N.2   1329  AMP1329    -0.2095
     17  C5        28.3330   45.7100   49.6190 C.2   1329  AMP1329     0.2526
     18  C6        29.4790   45.8240   50.5320 C.2   1329  AMP1329     0.4393
     19  N6        29.7940   47.0200   51.0930 N.pl3 1329  AMP1329     0.2180
     20  N1        30.1800   44.6940   50.7930 N.2   1329  AMP1329     0.0021
     21  C2        29.8820   43.4980   50.2480 C.3   1329  AMP1329     0.5254
     22  N3        28.8550   43.3240   49.3990 N.2   1329  AMP1329    -0.0055
     23  C4        28.0600   44.3810   49.0550 C.2   1329  AMP1329     0.3518
@<TRIPOS>BOND
     1     2     1    2
     2     6     5    1
     3     6     7    1
     4     4     1    1
     5     1     5    1
     6     1     3    1
     7     7     8    1
     8     7     9    1
     9     8    13    1
    10     9    10    1
    11     9    11    1
    12    11    13    1
    13    11    12    1
    14    13    14    1
    15    14    15    1
    16    14    23    1
    17    15    16    1
    18    23    22    2
    19    23    17    1
    20    16    17    2
    21    22    21    1
    22    17    18    1
    23    21    20    1
    24    18    20    2
    25    18    19    1
