@<TRIPOS>MOLECULE
2v92_ATP_E_1.pdb
 31 33 0 0 0
SMALL
GASTEIGER

@<TRIPOS>ATOM
      1  PG        20.9120   54.4630   42.5810 P.3   1327  ATP1327     0.5373
      2  O1G       20.1450   53.2350   43.0390 O.3   1327  ATP1327    -0.1143
      3  O2G       22.3440   54.1690   42.2050 O.3   1327  ATP1327    -0.1143
      4  O3G       20.1340   55.4070   41.6750 O.2   1327  ATP1327    -0.2221
      5  PB        21.6670   56.7600   44.1250 P.3   1327  ATP1327     0.2277
      6  O1B       20.6220   57.6110   44.7970 O.3   1327  ATP1327    -0.4368
      7  O2B       22.3000   57.2360   42.8510 O.2   1327  ATP1327    -0.5168
      8  O3B       21.0550   55.2730   43.9690 O.3   1327  ATP1327    -0.2258
      9  PA        22.4980   55.9040   46.6460 P.3   1327  ATP1327     0.2189
     10  O1A       23.5350   54.8830   47.0230 O.3   1327  ATP1327    -0.4371
     11  O2A       21.0230   55.6130   46.7820 O.2   1327  ATP1327    -0.5170
     12  O3A       22.8360   56.3850   45.1500 O.3   1327  ATP1327    -0.2700
     13  O5'       22.9080   57.2700   47.4030 O.3   1327  ATP1327    -0.3112
     14  C5'       22.0910   58.4350   47.5270 C.3   1327  ATP1327     0.1813
     15  C4'       22.4770   59.0970   48.8410 C.3   1327  ATP1327     0.1821
     16  O4'       21.8760   58.3610   49.9120 O.3   1327  ATP1327    -0.3135
     17  C3'       23.9880   59.0610   49.0690 C.3   1327  ATP1327     0.2184
     18  O3'       24.4720   60.3620   49.4420 O.3   1327  ATP1327    -0.2174
     19  C2'       24.2150   58.0260   50.1680 C.3   1327  ATP1327     0.2570
     20  O2'       25.2350   58.3860   51.1000 O.3   1327  ATP1327    -0.2130
     21  C1'       22.8690   57.9550   50.8660 C.3   1327  ATP1327     0.3186
     22  N9        22.6200   56.5780   51.3640 N.pl3 1327  ATP1327    -0.1439
     23  C8        22.7010   55.4530   50.6320 C.3   1327  ATP1327     0.3377
     24  N7        22.4270   54.3610   51.3780 N.2   1327  ATP1327    -0.2095
     25  C5        22.1600   54.7820   52.6250 C.2   1327  ATP1327     0.2526
     26  C6        21.7970   54.1370   53.9060 C.2   1327  ATP1327     0.4393
     27  N6        21.6500   52.7860   53.9960 N.pl3 1327  ATP1327     0.2180
     28  N1        21.6180   54.9630   54.9780 N.2   1327  ATP1327     0.0021
     29  C2        21.7520   56.3080   54.9100 C.3   1327  ATP1327     0.5254
     30  N3        22.0820   56.9460   53.7740 N.2   1327  ATP1327    -0.0055
     31  C4        22.2920   56.2500   52.6190 C.2   1327  ATP1327     0.3518
@<TRIPOS>BOND
     1     4     1    2
     2     3     1    1
     3     1     2    1
     4     1     8    1
     5     7     5    2
     6     8     5    1
     7     5     6    1
     8     5    12    1
     9    12     9    1
    10     9    11    2
    11     9    10    1
    12     9    13    1
    13    13    14    1
    14    14    15    1
    15    15    17    1
    16    15    16    1
    17    17    18    1
    18    17    19    1
    19    16    21    1
    20    19    21    1
    21    19    20    1
    22    23    22    1
    23    23    24    1
    24    21    22    1
    25    22    31    1
    26    24    25    2
    27    31    25    1
    28    31    30    2
    29    25    26    1
    30    30    29    1
    31    26    27    1
    32    26    28    2
    33    29    28    1
