@<TRIPOS>MOLECULE
2v93_MXT_A_1.pdb
 37 38 0 0 0
SMALL
GASTEIGER

@<TRIPOS>ATOM
      1  N1         2.6030   28.6460   36.3640 N.am  500  MXT500     -0.2381
      2  N2         5.7720   29.8690   39.0600 N.4   500  MXT500      0.3097
      3  O2         6.5390   30.0580   39.9950 O.co2 500  MXT500     -0.7404
      4  O11        1.5490   30.7290   36.2450 O.2   500  MXT500     -0.2751
      5  O12        3.2320   26.4470   35.9020 O.2   500  MXT500     -0.2745
      6  C14        1.6860   29.5980   35.8080 C.2   500  MXT500      0.2231
      7  C21        3.5010   28.9630   37.5040 C.3   500  MXT500      0.0444
      8  C22        3.7610   30.4810   37.6460 C.3   500  MXT500      0.0137
      9  C23        4.7980   28.1080   37.4930 C.3   500  MXT500      0.0137
     10  C24        4.6190   30.8540   38.9000 C.3   500  MXT500      0.0142
     11  C25        3.7530   30.8150   40.1990 C.3   500  MXT500     -0.0172
     12  C26        5.1960   32.2920   38.7030 C.3   500  MXT500     -0.0172
     13  C27        6.1020   28.7510   38.0780 C.3   500  MXT500      0.0142
     14  C28        6.8910   27.6180   38.8170 C.3   500  MXT500     -0.0172
     15  C29        7.0120   29.3390   36.9560 C.3   500  MXT500     -0.0172
     16  C11        1.4990   27.5270   34.5120 C.3   500  MXT500      0.0863
     17  C12        0.9460   28.9650   34.6260 C.3   500  MXT500      0.0405
     18  C13        2.5360   27.4140   35.6440 C.2   500  MXT500      0.2308
     19  H21        2.9520   28.6520   38.4340 H     500  MXT500      0.0509
     20 H121       -0.1490   29.0020   34.7940 H     500  MXT500      0.0369
     21 H122        1.1410   29.5420   33.6980 H     500  MXT500      0.0369
     22 H221        4.2450   30.8930   36.7340 H     500  MXT500      0.0341
     23 H222        2.7830   31.0130   37.7180 H     500  MXT500      0.0341
     24 H231        4.5590   27.1820   38.0680 H     500  MXT500      0.0341
     25 H232        5.0380   27.7420   36.4700 H     500  MXT500      0.0341
     26 H251        4.2930   31.2240   41.0760 H     500  MXT500      0.0287
     27 H252        2.8370   31.4290   40.0700 H     500  MXT500      0.0287
     28 H253        3.4300   29.7870   40.4650 H     500  MXT500      0.0287
     29 H261        4.3730   33.0100   38.5100 H     500  MXT500      0.0287
     30 H262        5.7380   32.6580   39.5980 H     500  MXT500      0.0287
     31 H263        5.8940   32.3510   37.8470 H     500  MXT500      0.0287
     32 H281        6.3520   27.2390   39.7040 H     500  MXT500      0.0287
     33 H282        7.0430   26.7580   38.1300 H     500  MXT500      0.0287
     34 H283        7.9010   27.9420   39.1460 H     500  MXT500      0.0287
     35 H291        7.9310   29.8020   37.3690 H     500  MXT500      0.0287
     36 H292        6.5030   30.1100   36.3440 H     500  MXT500      0.0287
     37 H293        7.3350   28.5380   36.2590 H     500  MXT500      0.0287
@<TRIPOS>UNITY_ATOM_ATTR
2 1
charge 1
3 1
charge -1
@<TRIPOS>BOND
     1    21    17    1
     2    16    17    1
     3    16    18    1
     4    17    20    1
     5    17     6    1
     6    18     5    2
     7    18     1   am
     8     6     4    2
     9     6     1   am
    10    37    15    1
    11    36    15    1
    12     1     7    1
    13    25     9    1
    14    22     8    1
    15    15    35    1
    16    15    13    1
    17     9     7    1
    18     9    24    1
    19     9    13    1
    20     7     8    1
    21     7    19    1
    22     8    23    1
    23     8    10    1
    24    31    12    1
    25    13    14    1
    26    13     2    1
    27    33    14    1
    28    29    12    1
    29    12    10    1
    30    12    30    1
    31    14    34    1
    32    14    32    1
    33    10     2    1
    34    10    11    1
    35     2     3    1
    36    27    11    1
    37    11    28    1
    38    11    26    1
