@<TRIPOS>MOLECULE
2v95_HCY_A_1.pdb
 26 29 0 0 0
SMALL
GASTEIGER

@<TRIPOS>ATOM
      1  C1        48.5820  -15.4490   11.6480 C.3   1375  HCY1375     0.0119
      2  C2        48.2050  -15.9160   13.0530 C.3   1375  HCY1375     0.0694
      3  C3        47.8450  -14.7420   13.9420 C.2   1375  HCY1375     0.1725
      4  C4        47.3990  -13.4700   13.3570 C.2   1375  HCY1375     0.0289
      5  C5        47.3320  -13.2770   12.0330 C.2   1375  HCY1375    -0.0419
      6  C6        46.7390  -11.9790   11.5620 C.3   1375  HCY1375     0.0221
      7  C7        47.6030  -11.3300   10.5020 C.3   1375  HCY1375     0.0044
      8  C8        48.0930  -12.3230    9.4500 C.3   1375  HCY1375     0.0032
      9  C9        48.7210  -13.5920   10.0340 C.3   1375  HCY1375     0.0339
     10  C10       47.7780  -14.3270   11.0190 C.3   1375  HCY1375     0.0181
     11  C12       50.3200  -13.7150    8.0270 C.3   1375  HCY1375     0.0357
     12  C11       49.3900  -14.5050    8.9670 C.3   1375  HCY1375     0.1523
     13  C13       49.7030  -12.4310    7.4760 C.3   1375  HCY1375     0.0348
     14  C14       49.1530  -11.6100    8.6350 C.3   1375  HCY1375     0.0030
     15  C15       48.7450  -10.3160    7.9860 C.3   1375  HCY1375     0.0031
     16  C16       49.7270  -10.1140    6.8430 C.3   1375  HCY1375     0.0377
     17  C17       50.5870  -11.3490    6.8060 C.3   1375  HCY1375     0.1796
     18  C18       48.5830  -12.8420    6.5250 C.3   1375  HCY1375     0.0030
     19  C19       46.5210  -14.8610   10.3270 C.3   1375  HCY1375     0.0041
     20  C20       51.0570  -11.6140    5.3870 C.2   1375  HCY1375     0.2109
     21  C21       52.0670  -12.6910    5.1590 C.3   1375  HCY1375     0.2484
     22  O1        47.9230  -14.8280   15.1580 O.2   1375  HCY1375    -0.2914
     23  O2        48.4470  -15.2560    8.1840 O.3   1375  HCY1375    -0.2231
     24  O3        51.7500  -11.0380    7.6050 O.3   1375  HCY1375    -0.2181
     25  O4        50.6650  -10.9400    4.4420 O.2   1375  HCY1375    -0.2907
     26  O5        52.3370  -12.8140    3.7610 O.3   1375  HCY1375    -0.2118
@<TRIPOS>BOND
     1    26    21    1
     2    25    20    2
     3    21    20    1
     4    20    17    1
     5    18    13    1
     6    17    16    1
     7    17    13    1
     8    17    24    1
     9    16    15    1
    10    13    11    1
    11    13    14    1
    12    15    14    1
    13    11    12    1
    14    23    12    1
    15    14     8    1
    16    12     9    1
    17     8     9    1
    18     8     7    1
    19     9    10    1
    20    19    10    1
    21     7     6    1
    22    10     1    1
    23    10     5    1
    24     6     5    1
    25     1     2    1
    26     5     4    2
    27     2     3    1
    28     4     3    1
    29     3    22    2
