@<TRIPOS>MOLECULE
2v96_CFQ_A_1.pdb
 21 20 0 0 0
SMALL
GASTEIGER

@<TRIPOS>ATOM
      1 AS        101.6580   57.0820   22.4980 As    1536  CFQ1536     0.0000
      2  C1       102.7840   58.9110   21.8690 C.3   1536  CFQ1536     0.0000
      3  C2       100.6950   56.1470   20.7010 C.3   1536  CFQ1536     0.0000
      4  C3       103.0660   55.5790   23.3630 C.3   1536  CFQ1536     0.0000
      5  C4       100.1400   57.6590   24.0460 C.3   1536  CFQ1536     0.0000
      6  C5        99.2630   56.4830   24.5370 C.3   1536  CFQ1536     0.0000
      7  O1        99.9650   55.2190   24.4510 O.3   1536  CFQ1536     0.0000
      8  C6        99.3510   54.0910   25.0940 C.3   1536  CFQ1536     0.0000
      9  C14      100.4350   53.1850   25.7230 C.3   1536  CFQ1536     0.0000
     10  C7        98.3700   53.4650   24.0170 C.ar  1536  CFQ1536     0.0000
     11  C8        96.9700   53.1920   24.3020 C.ar  1536  CFQ1536     0.0000
     12  C9        96.1650   52.6430   23.2710 C.ar  1536  CFQ1536     0.0000
     13  C10       96.6930   52.3660   22.0140 C.ar  1536  CFQ1536     0.0000
     14  C11       98.0290   52.6170   21.7410 C.ar  1536  CFQ1536     0.0000
     15  C12       98.8640   53.1590   22.7260 C.ar  1536  CFQ1536     0.0000
     16  N2        96.2530   53.4410   25.6180 N.pl3 1536  CFQ1536     0.0000
     17  O2        95.0700   53.1940   25.7620 O.2   1536  CFQ1536     0.0000
     18  O3        96.8190   53.9070   26.5950 O.2   1536  CFQ1536     0.0000
     19  F1        99.9300   52.0790   26.2590 F     1536  CFQ1536     0.0000
     20  F2       101.3470   52.8000   24.8460 F     1536  CFQ1536     0.0000
     21  F3       101.0760   53.7950   26.7140 F     1536  CFQ1536     0.0000
@<TRIPOS>BOND
     1     3     1    1
     2    14    13   ar
     3    14    15   ar
     4     2     1    1
     5    13    12   ar
     6     1     4    1
     7    15    10   ar
     8    12    11   ar
     9    10    11   ar
    10    10     8    1
    11     5     6    1
    12    11    16    1
    13     7     6    1
    14     7     8    1
    15    20     9    1
    16     8     9    1
    17    16    17    2
    18    16    18    2
    19     9    19    1
    20     9    21    1
