@<TRIPOS>MOLECULE
2v97_CFQ_A_1.pdb
 21 20 0 0 0
SMALL
GASTEIGER

@<TRIPOS>ATOM
      1  C3       103.1610   59.1590   21.6140 C.3   1537  CFQ1537     0.0000
      2  C2       100.9170   56.4380   20.8320 C.3   1537  CFQ1537     0.0000
      3  C1       103.3920   56.0100   23.4430 C.3   1537  CFQ1537     0.0000
      4  C4       100.5170   58.2680   24.0100 C.3   1537  CFQ1537     0.0000
      5  C5        99.5290   57.1730   24.4640 C.3   1537  CFQ1537     0.0000
      6  O1       100.0580   55.8740   24.1040 O.3   1537  CFQ1537     0.0000
      7  C6        99.5050   54.7040   24.7430 C.3   1537  CFQ1537     0.0000
      8  C14      100.6210   53.8500   25.3720 C.3   1537  CFQ1537     0.0000
      9  C7        98.6300   54.0080   23.6610 C.ar  1537  CFQ1537     0.0000
     10  C8        97.2540   53.6370   23.9110 C.ar  1537  CFQ1537     0.0000
     11  C9        96.5320   53.0010   22.8470 C.ar  1537  CFQ1537     0.0000
     12  C10       97.1430   52.7420   21.5960 C.ar  1537  CFQ1537     0.0000
     13  C11       98.4850   53.0980   21.3650 C.ar  1537  CFQ1537     0.0000
     14  C12       99.2220   53.7190   22.3790 C.ar  1537  CFQ1537     0.0000
     15  N2        96.4720   53.8640   25.2210 N.pl3 1537  CFQ1537     0.0000
     16  O2        95.3090   53.5110   25.3490 O.2   1537  CFQ1537     0.0000
     17  O3        96.9640   54.4130   26.2060 O.2   1537  CFQ1537     0.0000
     18  F1       100.1350   52.7810   25.9680 F     1537  CFQ1537     0.0000
     19  F2       101.4850   53.3850   24.4850 F     1537  CFQ1537     0.0000
     20  F3       101.3080   54.5330   26.2720 F     1537  CFQ1537     0.0000
     21 AS        101.9880   57.4810   22.4990 As    1537  CFQ1537     0.0000
@<TRIPOS>BOND
     1     2    21    1
     2    13    12   ar
     3    13    14   ar
     4    12    11   ar
     5     1    21    1
     6    14     9   ar
     7    21     3    1
     8    11    10   ar
     9     9    10   ar
    10     9     7    1
    11    10    15    1
    12     4     5    1
    13     6     5    1
    14     6     7    1
    15    19     8    1
    16     7     8    1
    17    15    16    2
    18    15    17    2
    19     8    18    1
    20     8    20    1
