@<TRIPOS>MOLECULE
2v98_CFQ_A_1.pdb
 21 20 0 0 0
SMALL
GASTEIGER

@<TRIPOS>ATOM
      1  C3       103.6680   58.8570   21.4670 C.3   1537  CFQ1537     0.0000
      2  C2       101.5710   55.8650   21.3980 C.3   1537  CFQ1537     0.0000
      3  C1       104.2530   56.2630   23.9000 C.3   1537  CFQ1537     0.0000
      4  C4       101.1980   58.2790   24.1570 C.3   1537  CFQ1537     0.0000
      5  C5       100.6400   57.2170   25.1260 C.3   1537  CFQ1537     0.0000
      6  O1       100.8680   55.8950   24.5570 O.3   1537  CFQ1537     0.0000
      7  C6       100.3900   54.7270   25.2700 C.3   1537  CFQ1537     0.0000
      8  C14      101.5750   53.8210   25.6150 C.3   1537  CFQ1537     0.0000
      9  C7        99.2370   54.0740   24.3820 C.ar  1537  CFQ1537     0.0000
     10  C8        97.8210   54.2150   24.7330 C.ar  1537  CFQ1537     0.0000
     11  C9        96.8290   53.5840   23.8930 C.ar  1537  CFQ1537     0.0000
     12  C10       97.2100   52.8430   22.7470 C.ar  1537  CFQ1537     0.0000
     13  C11       98.5910   52.7020   22.4010 C.ar  1537  CFQ1537     0.0000
     14  C12       99.5890   53.3040   23.1970 C.ar  1537  CFQ1537     0.0000
     15  N2        97.2620   55.0030   25.9230 N.pl3 1537  CFQ1537     0.0000
     16  O2        96.0460   55.0380   26.1460 O.2   1537  CFQ1537     0.0000
     17  O3        97.9990   55.6310   26.7250 O.2   1537  CFQ1537     0.0000
     18  F1       101.1470   52.6290   26.0240 F     1537  CFQ1537     0.0000
     19  F2       102.3410   53.6000   24.5650 F     1537  CFQ1537     0.0000
     20  F3       102.3640   54.3330   26.5720 F     1537  CFQ1537     0.0000
     21 AS        102.6450   57.3180   22.7470 As    1537  CFQ1537     0.0000
@<TRIPOS>BOND
     1     1    21    1
     2    13    12   ar
     3    13    14   ar
     4    21     3    1
     5    21     4    1
     6    12    11   ar
     7    14     9   ar
     8    11    10   ar
     9     4     5    1
    10     9    10   ar
    11     9     7    1
    12     6     5    1
    13     6     7    1
    14    19     8    1
    15    10    15    1
    16     7     8    1
    17     8    18    1
    18     8    20    1
    19    15    16    2
    20    15    17    2
