@<TRIPOS>MOLECULE
2v9c_FMN_A_1.pdb
 31 33 0 0 0
SMALL
GASTEIGER

@<TRIPOS>ATOM
      1  N1        22.0540   11.4010   20.2370 N.2   1213  FMN1213    -0.2890
      2  C2        23.2140   10.6340   20.1310 C.1   1213  FMN1213     0.3669
      3  O2        24.0300   10.5580   21.0570 O.2   1213  FMN1213    -0.1744
      4  N3        23.4520    9.9500   18.9900 N.2   1213  FMN1213    -0.2300
      5  C4        22.5800    9.9180   17.9290 C.1   1213  FMN1213     0.2513
      6  O4        22.9200    9.2470   16.9490 O.2   1213  FMN1213    -0.2057
      7  C4A       21.3940   10.6300   18.0100 C.2   1213  FMN1213     0.2700
      8  N5        20.4950   10.6780   16.9640 N.2   1213  FMN1213    -0.3878
      9  C5A       19.3550   11.4520   17.0940 C.2   1213  FMN1213     0.1320
     10  C6        18.4510   11.4990   16.0410 C.2   1213  FMN1213     0.0250
     11  C7        17.3050   12.2550   16.1230 C.2   1213  FMN1213    -0.0238
     12  C7M       16.5480   12.4270   14.8360 C.3   1213  FMN1213     0.0308
     13  C8        17.0280   12.9910   17.3260 C.2   1213  FMN1213    -0.0280
     14  C8M       15.7880   13.8110   17.5090 C.3   1213  FMN1213     0.0304
     15  C9        17.9140   12.9580   18.3720 C.2   1213  FMN1213    -0.0041
     16  C9A       19.0860   12.1880   18.2560 C.3   1213  FMN1213     0.1497
     17  N10       20.0000   12.1490   19.2950 N.pl3 1213  FMN1213    -0.2691
     18  C10       21.1430   11.3870   19.1760 C.2   1213  FMN1213     0.2416
     19  C1'       19.8830   13.0420   20.4780 C.3   1213  FMN1213     0.1294
     20  C2'       20.3480   14.4520   20.1560 C.3   1213  FMN1213     0.2044
     21  O2'       21.6490   14.4040   19.6480 O.3   1213  FMN1213    -0.2185
     22  C3'       20.2250   15.3630   21.3690 C.3   1213  FMN1213     0.2164
     23  O3'       18.8440   15.5190   21.6910 O.3   1213  FMN1213    -0.2175
     24  C4'       20.8470   16.7120   21.0070 C.3   1213  FMN1213     0.2147
     25  O4'       21.1710   17.4690   22.1710 O.3   1213  FMN1213    -0.2176
     26  C5'       19.9860   17.5040   20.0210 C.3   1213  FMN1213     0.1892
     27  O5'       20.5450   18.7630   19.7430 O.3   1213  FMN1213    -0.2674
     28  P         19.7100   20.0910   19.9860 P.3   1213  FMN1213     0.5327
     29  O1P       19.3470   20.1620   21.4540 O.3   1213  FMN1213    -0.1145
     30  O2P       18.4750   20.0710   19.1220 O.2   1213  FMN1213    -0.2224
     31  O3P       20.5720   21.2290   19.5130 O.3   1213  FMN1213    -0.1145
@<TRIPOS>BOND
     1    12    11    1
     2    10    11    2
     3    10     9    1
     4    11    13    1
     5     6     5    2
     6     8     9    2
     7     8     7    2
     8     9    16    1
     9    13    14    1
    10    13    15    2
    11     5     7    1
    12     5     4    2
    13     7    18    1
    14    16    15    1
    15    16    17    1
    16     4     2    2
    17    30    28    2
    18    18    17    1
    19    18     1    2
    20    17    19    1
    21    31    28    1
    22    21    20    1
    23    27    28    1
    24    27    26    1
    25    28    29    1
    26    26    24    1
    27     2     1    2
    28     2     3    2
    29    20    19    1
    30    20    22    1
    31    24    22    1
    32    24    25    1
    33    22    23    1
