@<TRIPOS>MOLECULE
2v9c_MRE_A_1.pdb
 20 21 0 0 0
SMALL
GASTEIGER

@<TRIPOS>ATOM
      1  C1        16.0260   13.1600   22.1870 C.ar  1214  MRE1214     0.1092
      2  C2        16.4660   13.8410   23.4530 C.ar  1214  MRE1214     0.0991
      3  C3        15.6730   14.8960   23.9210 C.ar  1214  MRE1214     0.0082
      4  C4        14.5200   15.3000   23.2130 C.ar  1214  MRE1214     0.0003
      5  C5        14.1300   14.6580   22.0280 C.ar  1214  MRE1214     0.0016
      6  C6        14.8890   13.6050   21.5030 C.ar  1214  MRE1214     0.0211
      7  C1'       18.1930   10.3490   21.7130 C.ar  1214  MRE1214     0.1030
      8  C2'       17.9340    9.9060   20.3980 C.ar  1214  MRE1214     0.0222
      9  C3'       18.8020    8.9860   19.8060 C.ar  1214  MRE1214     0.0161
     10  C4'       19.9180    8.5470   20.5100 C.ar  1214  MRE1214     0.0480
     11  C5'       20.1910    8.9990   21.7920 C.ar  1214  MRE1214     0.0161
     12  C6'       19.3140    9.9110   22.4160 C.ar  1214  MRE1214     0.0222
     13  C         17.7320   13.4420   24.1930 C.2   1214  MRE1214     0.3893
     14  CHX       20.7000    7.1220   18.6460 C.3   1214  MRE1214     0.1122
     15  CHZ       22.0510    7.2080   20.4420 C.3   1214  MRE1214     0.1122
     16  N1        16.8130   12.1320   21.6700 N.2   1214  MRE1214    -0.1478
     17  N1'       17.3880   11.2810   22.3670 N.2   1214  MRE1214    -0.1480
     18  OXT       17.9600   12.2220   24.7670 O.co2 1214  MRE1214    -0.2405
     19  O         18.6190   14.3100   24.2270 O.co2 1214  MRE1214    -0.2405
     20  N10       20.8150    7.6690   19.9270 N.pl3 1214  MRE1214    -0.3041
@<TRIPOS>BOND
     1    14    20    1
     2     9     8   ar
     3     9    10   ar
     4    20    15    1
     5    20    10    1
     6     8     7   ar
     7    10    11   ar
     8     6     5   ar
     9     6     1   ar
    10    16     1    1
    11    16    17    2
    12     7    17    1
    13     7    12   ar
    14    11    12   ar
    15     5     4   ar
    16     1     2   ar
    17     4     3   ar
    18     2     3   ar
    19     2    13    1
    20    13    19   ar
    21    13    18   ar
