@<TRIPOS>MOLECULE
2v9j_ATP_E_1.pdb
 31 33 0 0 0
SMALL
GASTEIGER

@<TRIPOS>ATOM
      1  PG        20.7390    6.4320   21.0290 P.3   1327  ATP1327     0.5373
      2  O1G       19.7390    5.6710   22.0540 O.3   1327  ATP1327    -0.1143
      3  O2G       22.1050    6.7260   21.6110 O.3   1327  ATP1327    -0.1143
      4  O3G       19.9190    7.5780   20.4970 O.2   1327  ATP1327    -0.2221
      5  PB        21.6750    4.0140   19.9430 P.3   1327  ATP1327     0.2277
      6  O1B       23.1310    4.1460   20.5740 O.2   1327  ATP1327    -0.5168
      7  O2B       20.7570    3.0080   20.7940 O.3   1327  ATP1327    -0.4368
      8  O3B       20.8870    5.4100   19.7970 O.3   1327  ATP1327    -0.2258
      9  PA        22.2970    4.5500   17.2930 P.3   1327  ATP1327     0.2189
     10  O1A       23.4300    5.4300   17.7560 O.3   1327  ATP1327    -0.4371
     11  O2A       21.1170    5.2000   16.6390 O.2   1327  ATP1327    -0.5170
     12  O3A       21.7290    3.5550   18.4180 O.3   1327  ATP1327    -0.2700
     13  O5'       22.9180    3.4290   16.3340 O.3   1327  ATP1327    -0.3112
     14  C5'       22.3680    2.1100   16.2810 C.3   1327  ATP1327     0.1813
     15  C4'       22.7490    1.5010   14.9430 C.3   1327  ATP1327     0.1821
     16  O4'       22.0930    2.2590   13.9230 O.3   1327  ATP1327    -0.3135
     17  C3'       24.2540    1.6120   14.7020 C.3   1327  ATP1327     0.2184
     18  O3'       24.8190    0.3390   14.3330 O.3   1327  ATP1327    -0.2174
     19  C2'       24.4160    2.6410   13.5980 C.3   1327  ATP1327     0.2570
     20  O2'       25.3970    2.2570   12.6310 O.3   1327  ATP1327    -0.2130
     21  C1'       23.0370    2.7440   12.9660 C.3   1327  ATP1327     0.3186
     22  N9        22.7360    4.1510   12.5850 N.pl3 1327  ATP1327    -0.1439
     23  C8        22.8620    5.2580   13.3510 C.3   1327  ATP1327     0.3377
     24  N7        22.5050    6.3730   12.6730 N.2   1327  ATP1327    -0.2095
     25  C5        22.1480    5.9870   11.4380 C.2   1327  ATP1327     0.2526
     26  C6        21.6710    6.6380   10.1970 C.2   1327  ATP1327     0.4393
     27  N6        21.4920    7.9750   10.1280 N.pl3 1327  ATP1327     0.2180
     28  N1        21.4180    5.8430    9.1240 N.2   1327  ATP1327     0.0021
     29  C2        21.5810    4.5050    9.1390 C.3   1327  ATP1327     0.5254
     30  N3        22.0120    3.8550   10.2270 N.2   1327  ATP1327    -0.0055
     31  C4        22.3060    4.5230   11.3790 C.2   1327  ATP1327     0.3518
@<TRIPOS>BOND
     1    28    29    1
     2    28    26    2
     3    29    30    1
     4    27    26    1
     5    26    25    1
     6    30    31    2
     7    31    25    1
     8    31    22    1
     9    25    24    2
    10    22    21    1
    11    22    23    1
    12    20    19    1
    13    24    23    1
    14    21    19    1
    15    21    16    1
    16    19    17    1
    17    16    15    1
    18    18    17    1
    19    17    15    1
    20    15    14    1
    21    14    13    1
    22    13     9    1
    23    11     9    2
    24     9    10    1
    25     9    12    1
    26    12     5    1
    27     8     5    1
    28     8     1    1
    29     5     6    2
    30     5     7    1
    31     4     1    2
    32     1     3    1
    33     1     2    1
