@<TRIPOS>MOLECULE
2v9j_AMP_E_1.pdb
 23 25 0 0 0
SMALL
GASTEIGER

@<TRIPOS>ATOM
      1  P         24.9590   13.6440   19.0280 P.3   1329  AMP1329     0.5327
      2  O1P       23.8120   13.6800   20.0330 O.3   1329  AMP1329    -0.1145
      3  O2P       24.6730   12.7840   17.8250 O.2   1329  AMP1329    -0.2224
      4  O3P       26.3730   13.4040   19.4890 O.3   1329  AMP1329    -0.1145
      5  O5'       25.0540   15.1640   18.5100 O.3   1329  AMP1329    -0.2675
      6  C5'       25.8010   16.1800   19.2000 C.3   1329  AMP1329     0.1860
      7  C4'       25.8290   17.5010   18.4040 C.3   1329  AMP1329     0.1823
      8  O4'       26.8600   17.4780   17.4060 O.3   1329  AMP1329    -0.3135
      9  C3'       24.5600   17.7740   17.6310 C.3   1329  AMP1329     0.2184
     10  O3'       24.3960   19.1860   17.6440 O.3   1329  AMP1329    -0.2174
     11  C2'       24.8230   17.2500   16.2240 C.3   1329  AMP1329     0.2570
     12  O2'       24.1730   18.0080   15.1890 O.3   1329  AMP1329    -0.2130
     13  C1'       26.3280   17.3390   16.0850 C.3   1329  AMP1329     0.3186
     14  N9        26.9420   16.1660   15.4000 N.pl3 1329  AMP1329    -0.1439
     15  C8        26.6100   14.8610   15.4680 C.3   1329  AMP1329     0.3377
     16  N7        27.4200   14.0910   14.6910 N.2   1329  AMP1329    -0.2095
     17  C5        28.3070   14.9110   14.1080 C.2   1329  AMP1329     0.2526
     18  C6        29.4500   14.7950   13.1680 C.2   1329  AMP1329     0.4393
     19  N6        29.8540   13.6160   12.6520 N.pl3 1329  AMP1329     0.2180
     20  N1        30.1010   15.9260   12.8220 N.2   1329  AMP1329     0.0021
     21  C2        29.7470   17.1310   13.3020 C.3   1329  AMP1329     0.5254
     22  N3        28.7280   17.3140   14.1480 N.2   1329  AMP1329    -0.0055
     23  C4        27.9830   16.2700   14.5770 C.2   1329  AMP1329     0.3518
@<TRIPOS>BOND
     1    19    18    1
     2    20    18    2
     3    20    21    1
     4    18    17    1
     5    21    22    1
     6    17    23    1
     7    17    16    2
     8    22    23    2
     9    23    14    1
    10    16    15    1
    11    12    11    1
    12    14    15    1
    13    14    13    1
    14    13    11    1
    15    13     8    1
    16    11     9    1
    17     8     7    1
    18     9    10    1
    19     9     7    1
    20     3     1    2
    21     7     6    1
    22     5     1    1
    23     5     6    1
    24     1     4    1
    25     1     2    1
