@<TRIPOS>MOLECULE
2v9w_DCT_A_1.pdb
 27 28 0 0 0
SMALL
GASTEIGER

@<TRIPOS>ATOM
      1  N1         5.9990   47.8670    2.9980 N.am  1347  DCT1347    -0.1803
      2  C2         6.9090   48.2720    3.9880 C.1   1347  DCT1347     0.2756
      3  N3         8.1550   47.6490    4.0930 N.2   1347  DCT1347    -0.3024
      4  C4         8.4980   46.6130    3.2120 C.2   1347  DCT1347     0.2346
      5  C5         7.5920   46.2100    2.2380 C.2   1347  DCT1347     0.0687
      6  C6         6.3510   46.8300    2.1270 C.2   1347  DCT1347     0.0835
      7  O2         6.5930   49.1620    4.7750 O.2   1347  DCT1347    -0.1925
      8  N4         9.6820   46.0190    3.3130 N.pl3 1347  DCT1347    -0.0921
      9  C1'        4.7110   48.5850    2.8580 C.3   1347  DCT1347     0.2063
     10  C2'        4.4390   48.9870    1.4100 C.3   1347  DCT1347     0.0545
     11  C3'        2.9980   49.4480    1.6160 C.3   1347  DCT1347     0.0366
     12  C4'        2.4580   48.2690    2.4290 C.3   1347  DCT1347     0.1472
     13  O4'        3.5700   47.7850    3.2070 O.3   1347  DCT1347    -0.3366
     14  C5'        2.0210   47.1500    1.4770 C.3   1347  DCT1347     0.1785
     15  O5'        3.1120   46.5810    0.7420 O.3   1347  DCT1347    -0.3113
     16  PA         2.8240   45.6280   -0.5240 P.3   1347  DCT1347     0.2189
     17  O1A        1.3660   45.4010   -0.6530 O.2   1347  DCT1347    -0.5170
     18  O2A        3.7180   44.4480   -0.4800 O.3   1347  DCT1347    -0.4371
     19  O3A        3.2790   46.5400   -1.7740 O.3   1347  DCT1347    -0.2700
     20  PB         2.4670   47.8770   -2.1650 P.3   1347  DCT1347     0.2277
     21  O1B        3.3410   48.7530   -2.9800 O.2   1347  DCT1347    -0.5168
     22  O2B        1.8230   48.4460   -0.9600 O.3   1347  DCT1347    -0.4368
     23  O3B        1.3100   47.3060   -3.1290 O.3   1347  DCT1347    -0.2258
     24  PG         1.5730   46.0190   -4.0600 P.3   1347  DCT1347     0.5373
     25  O1G        1.4460   44.7180   -3.1180 O.3   1347  DCT1347    -0.1143
     26  O2G        0.3170   45.9460   -5.0680 O.2   1347  DCT1347    -0.2221
     27  O3G        2.8680   46.0710   -4.7770 O.3   1347  DCT1347    -0.1143
@<TRIPOS>BOND
     1    26    24    2
     2    27    24    1
     3    24    23    1
     4    24    25    1
     5    23    20    1
     6    21    20    2
     7    20    19    1
     8    20    22    1
     9    19    16    1
    10    17    16    2
    11    16    18    1
    12    16    15    1
    13    15    14    1
    14    10    11    1
    15    10     9    1
    16    14    12    1
    17    11    12    1
    18     6     5    2
    19     6     1    1
    20     5     4    1
    21    12    13    1
    22     9     1    1
    23     9    13    1
    24     1     2   am
    25     4     8    1
    26     4     3    2
    27     2     3    2
    28     2     7    2
