@<TRIPOS>MOLECULE
2v9x_DUT_A_1.pdb
 28 29 0 0 0
SMALL
GASTEIGER

@<TRIPOS>ATOM
      1  N1        16.4860   17.2740   97.2550 N.am  1194  DUT1194    -0.1790
      2  C2        16.5250   16.9700   98.6530 C.1   1194  DUT1194     0.2844
      3  N3        15.4830   17.2290   99.4860 N.2   1194  DUT1194    -0.2452
      4  C4        14.3580   17.7430   98.9150 C.1   1194  DUT1194     0.2182
      5  C5        14.2800   18.0140   97.5520 C.2   1194  DUT1194     0.1242
      6  C6        15.3540   17.7500   96.7350 C.2   1194  DUT1194     0.0928
      7  O2        17.4870   16.4530   99.1570 O.2   1194  DUT1194    -0.1918
      8  O4        13.3360   17.9270   99.5960 O.2   1194  DUT1194    -0.2085
      9  C1'       17.5990   16.9390   96.3540 C.3   1194  DUT1194     0.2090
     10  C2'       17.0960   15.9930   95.2720 C.3   1194  DUT1194     0.0874
     11  C3'       17.2050   16.8430   94.0170 C.3   1194  DUT1194     0.1857
     12  C4'       18.2840   17.8590   94.3230 C.3   1194  DUT1194     0.1773
     13  O4'       18.1720   18.0730   95.7160 O.3   1194  DUT1194    -0.3339
     14  O3'       17.5770   16.0690   92.8870 O.3   1194  DUT1194    -0.2203
     15  C5'       18.1590   19.2210   93.6790 C.3   1194  DUT1194     0.1812
     16  O5'       16.8580   19.7610   93.9030 O.3   1194  DUT1194    -0.3112
     17  PA        16.6170   21.1840   93.3420 P.3   1194  DUT1194     0.2189
     18  O1A       16.9310   21.1300   91.8850 O.2   1194  DUT1194    -0.5170
     19  O2A       15.2260   21.4820   93.7900 O.3   1194  DUT1194    -0.4371
     20  O3A       17.7400   22.0280   94.1420 O.3   1194  DUT1194    -0.2700
     21  PB        18.4670   23.3810   93.6670 P.3   1194  DUT1194     0.2277
     22  O1B       18.5130   24.3000   94.8610 O.3   1194  DUT1194    -0.4368
     23  O2B       17.8030   23.7380   92.3950 O.2   1194  DUT1194    -0.5168
     24  O3B       19.9410   22.7870   93.4050 O.3   1194  DUT1194    -0.2258
     25  PG        20.7120   22.4340   92.0210 P.3   1194  DUT1194     0.5373
     26  O1G       21.3700   23.7690   91.6960 O.3   1194  DUT1194    -0.1143
     27  O2G       21.6120   21.3230   92.4420 O.3   1194  DUT1194    -0.1143
     28  O3G       19.6110   21.9540   91.1090 O.2   1194  DUT1194    -0.2221
@<TRIPOS>BOND
     1    28    25    2
     2    26    25    1
     3    18    17    2
     4    25    27    1
     5    25    24    1
     6    23    21    2
     7    14    11    1
     8    17    19    1
     9    17    16    1
    10    17    20    1
    11    24    21    1
    12    21    20    1
    13    21    22    1
    14    15    16    1
    15    15    12    1
    16    11    12    1
    17    11    10    1
    18    12    13    1
    19    10     9    1
    20    13     9    1
    21     9     1    1
    22     6     1    1
    23     6     5    2
    24     1     2   am
    25     5     4    1
    26     2     7    2
    27     2     3    2
    28     4     3    2
    29     4     8    2
