@<TRIPOS>MOLECULE
2va2_DCT_A_1.pdb
 27 28 0 0 0
SMALL
GASTEIGER

@<TRIPOS>ATOM
      1  N1        -9.9330   13.2170   -5.9970 N.am  1345  DCT1345    -0.1803
      2  C2       -10.4670   13.1720   -7.2860 C.1   1345  DCT1345     0.2756
      3  N3        -9.9860   14.0600   -8.2550 N.2   1345  DCT1345    -0.3024
      4  C4        -8.9900   14.9810   -7.9260 C.2   1345  DCT1345     0.2346
      5  C5        -8.4720   15.0260   -6.6370 C.2   1345  DCT1345     0.0687
      6  C6        -8.9430   14.1480   -5.6680 C.2   1345  DCT1345     0.0835
      7  O2       -11.3500   12.3580   -7.5530 O.2   1345  DCT1345    -0.1925
      8  N4        -8.5190   15.8100   -8.8540 N.pl3 1345  DCT1345    -0.0921
      9  C1'      -10.3210   12.1760   -5.0210 C.3   1345  DCT1345     0.2063
     10  C2'       -9.1820   11.1690   -4.8780 C.3   1345  DCT1345     0.0545
     11  C3'       -9.7150   10.4190   -3.6600 C.3   1345  DCT1345     0.0366
     12  C4'      -10.2790   11.5720   -2.8190 C.3   1345  DCT1345     0.1472
     13  O4'      -10.3620   12.7150   -3.6930 O.3   1345  DCT1345    -0.3366
     14  C5'       -9.3600   11.9080   -1.6410 C.3   1345  DCT1345     0.1785
     15  O5'       -8.0810   12.3920   -2.0500 O.3   1345  DCT1345    -0.3113
     16  PA        -6.9250   12.4570   -0.9340 P.3   1345  DCT1345     0.2189
     17  O1A       -7.5190   12.3340    0.4060 O.3   1345  DCT1345    -0.4371
     18  O2A       -6.0870   13.6450   -1.2130 O.2   1345  DCT1345    -0.5170
     19  O3A       -6.0690   11.1290   -1.2440 O.3   1345  DCT1345    -0.2700
     20  PB        -6.6490    9.6550   -0.9790 P.3   1345  DCT1345     0.2277
     21  O1B       -6.2050    8.7380   -2.0520 O.2   1345  DCT1345    -0.5168
     22  O2B       -8.0980    9.7400   -0.6940 O.3   1345  DCT1345    -0.4368
     23  O3B       -5.9060    9.2190    0.3710 O.3   1345  DCT1345    -0.2258
     24  PG        -5.0510   10.3200    1.1670 P.3   1345  DCT1345     0.5373
     25  O1G       -6.1080   11.1700    2.0310 O.3   1345  DCT1345    -0.1143
     26  O2G       -4.1340    9.5000    2.2020 O.3   1345  DCT1345    -0.1143
     27  O3G       -4.2390   11.1750    0.2720 O.2   1345  DCT1345    -0.2221
@<TRIPOS>BOND
     1     8     4    1
     2     3     4    2
     3     3     2    2
     4     4     5    1
     5     7     2    2
     6     2     1   am
     7     5     6    2
     8     1     6    1
     9     1     9    1
    10     9    10    1
    11     9    13    1
    12    10    11    1
    13    13    12    1
    14    11    12    1
    15    12    14    1
    16    21    20    2
    17    15    14    1
    18    15    16    1
    19    19    20    1
    20    19    16    1
    21    18    16    2
    22    20    22    1
    23    20    23    1
    24    16    17    1
    25    27    24    2
    26    23    24    1
    27    24    25    1
    28    24    26    1
