@<TRIPOS>MOLECULE
2va3_DGT_A_1.pdb
 31 33 0 0 0
SMALL
GASTEIGER

@<TRIPOS>ATOM
      1  PG        23.2250   39.5760    2.4910 P.3   1344  DGT1344     0.5373
      2  O1G       22.5620   40.8130    1.6980 O.3   1344  DGT1344    -0.1143
      3  O2G       23.6690   38.5130    1.3610 O.2   1344  DGT1344    -0.2221
      4  O3G       22.2870   39.0210    3.4960 O.3   1344  DGT1344    -0.1143
      5  O3B       24.6060   40.1560    3.0970 O.3   1344  DGT1344    -0.2258
      6  PB        25.1760   39.7200    4.5440 P.3   1344  DGT1344     0.2277
      7  O1B       26.6380   39.9370    4.4980 O.2   1344  DGT1344    -0.5168
      8  O2B       24.4060   40.4450    5.5820 O.3   1344  DGT1344    -0.4368
      9  O3A       24.8670   38.1390    4.6050 O.3   1344  DGT1344    -0.2700
     10  PA        24.4620   37.3850    5.9690 P.3   1344  DGT1344     0.2189
     11  O1A       25.0610   35.8920    5.8250 O.2   1344  DGT1344    -0.5170
     12  O2A       22.9990   37.3820    6.1770 O.3   1344  DGT1344    -0.4371
     13  O5'       25.3060   38.0670    7.1690 O.3   1344  DGT1344    -0.3112
     14  C5'       24.8150   39.2320    7.8450 C.3   1344  DGT1344     0.1812
     15  C4'       25.9360   39.9890    8.5620 C.3   1344  DGT1344     0.1772
     16  O4'       26.8250   39.0150    9.1510 O.3   1344  DGT1344    -0.3347
     17  C3'       26.7680   40.7880    7.5500 C.3   1344  DGT1344     0.1857
     18  O3'       27.2950   41.9830    8.1310 O.3   1344  DGT1344    -0.2203
     19  C2'       27.9130   39.8330    7.2300 C.3   1344  DGT1344     0.0865
     20  C1'       28.1500   39.2300    8.6210 C.3   1344  DGT1344     0.1981
     21  N9        28.8870   37.9630    8.3910 N.pl3 1344  DGT1344    -0.2374
     22  C8        28.5070   37.0200    7.5460 C.3   1344  DGT1344     0.2245
     23  N7        29.4880   36.1290    7.3970 N.2   1344  DGT1344    -0.2322
     24  C5        30.4910   36.5210    8.1730 C.2   1344  DGT1344     0.2182
     25  C6        31.7730   35.9960    8.3850 C.1   1344  DGT1344     0.2372
     26  O6        32.1500   35.0430    7.7180 O.2   1344  DGT1344    -0.2069
     27  N1        32.6130   36.6620    9.2850 N.2   1344  DGT1344    -0.2485
     28  C2        32.1760   37.8240    9.9430 C.1   1344  DGT1344     0.2531
     29  N2        32.9830   38.4410   10.8030 N.pl3 1344  DGT1344    -0.0226
     30  N3        30.9450   38.2940    9.6910 N.2   1344  DGT1344    -0.3074
     31  C4        30.1220   37.6760    8.8340 C.2   1344  DGT1344     0.2299
@<TRIPOS>BOND
     1     3     1    2
     2     2     1    1
     3     1     5    1
     4     1     4    1
     5     5     6    1
     6     7     6    2
     7     6     9    1
     8     6     8    1
     9     9    10    1
    10    11    10    2
    11    10    12    1
    12    10    13    1
    13    13    14    1
    14    19    17    1
    15    19    20    1
    16    23    22    1
    17    23    24    2
    18    22    21    1
    19    17    18    1
    20    17    15    1
    21    26    25    2
    22    14    15    1
    23    24    25    1
    24    24    31    1
    25    25    27    2
    26    21    20    1
    27    21    31    1
    28    15    16    1
    29    20    16    1
    30    31    30    2
    31    27    28    2
    32    30    28    2
    33    28    29    1
