@<TRIPOS>MOLECULE
2va5_C8C_A_1.pdb
 19 21 0 0 0
SMALL
GASTEIGER

@<TRIPOS>ATOM
      1  N1        66.8150   49.0860    5.6170 N.pl3 1389  C8C1389    -0.0226
      2  C2        67.6180   48.9380    6.6930 C.1   1389  C8C1389     0.2509
      3  C4        68.1700   47.7090    8.5350 C.1   1389  C8C1389     0.1988
      4  C5        69.1850   48.6060    8.8140 C.3   1389  C8C1389     0.1905
      5  C6        69.3650   49.6820    7.9650 C.2   1389  C8C1389     0.1185
      6  C7        70.4490   50.6960    8.2230 C.3   1389  C8C1389     0.0613
      7  C8        71.3950   50.8690    7.0530 C.3   1389  C8C1389     0.0335
      8  C9        72.2010   49.6380    6.7190 C.2   1389  C8C1389    -0.0209
      9  C10       73.1700   49.1700    7.6010 C.2   1389  C8C1389    -0.0081
     10  C11       73.9390   48.0610    7.2970 C.2   1389  C8C1389    -0.0164
     11  C12       73.7530   47.4270    6.0760 C.3   1389  C8C1389     0.0856
     12  C13       74.3400   46.3100    5.4600 C.2   1389  C8C1389     0.0045
     13  C14       73.7310   46.1380    4.2190 C.2   1389  C8C1389     0.0946
     14  N15       72.8110   47.1010    4.0620 N.2   1389  C8C1389    -0.2478
     15  C16       72.8030   47.9030    5.1820 C.2   1389  C8C1389     0.0665
     16  C17       72.0260   49.0090    5.4910 C.2   1389  C8C1389     0.0111
     17  N18       68.5780   49.8700    6.8950 N.2   1389  C8C1389    -0.3330
     18  N3        67.3780   47.8660    7.4680 N.2   1389  C8C1389    -0.2540
     19  O5        67.9590   46.6400    9.3490 O.2   1389  C8C1389    -0.2130
@<TRIPOS>BOND
     1    14    13    1
     2    14    15    2
     3    13    12    2
     4    15    16    1
     5    15    11    1
     6    12    11    1
     7    16     8    2
     8     1     2    1
     9    11    10    1
    10     2    17    2
    11     2    18    2
    12     8     7    1
    13     8     9    1
    14    17     5    2
    15     7     6    1
    16    10     9    2
    17    18     3    2
    18     5     6    1
    19     5     4    1
    20     3     4    1
    21     3    19    2
