@<TRIPOS>MOLECULE
2va6_H24_A_1.pdb
 24 26 0 0 0
SMALL
GASTEIGER

@<TRIPOS>ATOM
      1  C1        71.3950   46.1950    1.0770 C.3   1504  H241504     0.2525
      2  O2        71.2020   47.1960    2.0940 O.3   1504  H241504    -0.4714
      3  C3        71.9160   47.0710    3.2590 C.ar  1504  H241504     0.1387
      4  C4        72.9540   46.1640    3.4370 C.ar  1504  H241504     0.0369
      5  C5        73.6110   46.0870    4.6440 C.ar  1504  H241504     0.0031
      6  C6        73.2240   46.8950    5.6950 C.ar  1504  H241504     0.0002
      7  C7        72.1820   47.8100    5.5450 C.ar  1504  H241504     0.0030
      8  C8        71.5200   47.8750    4.3220 C.ar  1504  H241504     0.0369
      9  C9        71.7470   48.6410    6.7040 C.ar  1504  H241504    -0.0001
     10  C10       72.6880   49.1000    7.6140 C.ar  1504  H241504    -0.0000
     11  C11       72.2980   49.8250    8.7160 C.ar  1504  H241504    -0.0002
     12  C12       70.9650   50.0730    8.9460 C.ar  1504  H241504    -0.0011
     13  C13       69.9970   49.6180    8.0630 C.ar  1504  H241504     0.0140
     14  C14       68.5260   49.9240    8.3880 C.3   1504  H241504     0.1765
     15  C15       68.3640   51.4040    8.7510 C.3   1504  H241504     0.0485
     16  C18       68.0830   49.0930    9.5980 C.3   1504  H241504     0.1472
     17  C19       67.7070   47.6880    9.2360 C.2   1504  H241504     0.2912
     18  O20       68.1030   46.7320    9.8790 O.2   1504  H241504    -0.2563
     19  N21       66.9550   47.5510    8.1180 N.am  1504  H241504    -0.1396
     20  C22       66.4060   46.2200    7.8170 C.3   1504  H241504     0.2161
     21  C23       66.8320   48.6430    7.2040 C.2   1504  H241504     0.4490
     22  N24       65.8730   48.6290    6.2740 N.pl3 1504  H241504     0.1440
     23  N25       67.6470   49.6740    7.2170 N.2   1504  H241504    -0.0980
     24  C26       70.3970   48.8890    6.9490 C.ar  1504  H241504    -0.0010
@<TRIPOS>BOND
     1     1     2    1
     2     2     3    1
     3     3     4   ar
     4     3     8   ar
     5     4     5   ar
     6     8     7   ar
     7     5     6   ar
     8     7     6   ar
     9     7     9    1
    10    22    21    1
    11     9    24   ar
    12     9    10   ar
    13    24    13   ar
    14    21    23    2
    15    21    19    1
    16    23    14    1
    17    10    11   ar
    18    20    19    1
    19    13    14    1
    20    13    12   ar
    21    19    17   am
    22    14    15    1
    23    14    16    1
    24    11    12   ar
    25    17    16    1
    26    17    18    2
