@<TRIPOS>MOLECULE
2va7_C27_A_1.pdb
 26 28 0 0 0
SMALL
GASTEIGER

@<TRIPOS>ATOM
      1  C1        70.7570   46.1140    0.7280 C.3   1505  C271505     0.2525
      2  O2        70.8660   46.8500    1.9530 O.3   1505  C271505    -0.4714
      3  C3        71.7430   46.3930    2.9030 C.ar  1505  C271505     0.1387
      4  C4        72.6030   45.3040    2.9600 C.ar  1505  C271505     0.0369
      5  C5        73.3800   45.0890    4.0740 C.ar  1505  C271505     0.0031
      6  C6        73.3040   45.9500    5.1480 C.ar  1505  C271505     0.0002
      7  C7        72.4450   47.0470    5.1190 C.ar  1505  C271505     0.0030
      8  C8        71.6730   47.2550    3.9800 C.ar  1505  C271505     0.0369
      9  C9        72.3680   47.9900    6.2730 C.ar  1505  C271505    -0.0002
     10  C10       73.4870   48.2410    7.0660 C.ar  1505  C271505    -0.0000
     11  C11       73.4010   49.0940    8.1500 C.ar  1505  C271505    -0.0003
     12  C12       72.2130   49.7290    8.4410 C.ar  1505  C271505    -0.0043
     13  C13       71.0800   49.4940    7.6690 C.ar  1505  C271505    -0.0221
     14  C14       69.7800   50.1910    7.9790 C.3   1505  C271505     0.0298
     15  C15       68.9200   49.4170    8.9590 C.3   1505  C271505     0.0450
     16  C16       67.4550   49.9190    9.1190 C.3   1505  C271505     0.1583
     17  C17       67.4330   51.4000    9.5280 C.3   1505  C271505     0.0438
     18  C18       66.7620   49.0590   10.1800 C.3   1505  C271505     0.1429
     19  C19       66.5340   47.6540    9.7110 C.2   1505  C271505     0.2909
     20  O20       66.5570   46.7110   10.4760 O.2   1505  C271505    -0.2563
     21  N21       66.2730   47.4990    8.3750 N.am  1505  C271505    -0.1396
     22  C22       66.1580   46.1340    7.8410 C.3   1505  C271505     0.2161
     23  C23       66.1720   48.6270    7.5270 C.2   1505  C271505     0.4487
     24  N24       66.7210   49.7830    7.8310 N.2   1505  C271505    -0.1023
     25  N25       65.5550   48.4870    6.3540 N.pl3 1505  C271505     0.1440
     26  C26       71.1710   48.6210    6.5930 C.ar  1505  C271505    -0.0043
@<TRIPOS>BOND
     1     1     2    1
     2     2     3    1
     3     3     4   ar
     4     3     8   ar
     5     4     5   ar
     6     8     7   ar
     7     5     6   ar
     8     7     6   ar
     9     7     9    1
    10     9    26   ar
    11     9    10   ar
    12    25    23    1
    13    26    13   ar
    14    10    11   ar
    15    23    24    2
    16    23    21    1
    17    13    14    1
    18    13    12   ar
    19    24    16    1
    20    22    21    1
    21    14    15    1
    22    11    12   ar
    23    21    19   am
    24    15    16    1
    25    16    17    1
    26    16    18    1
    27    19    18    1
    28    19    20    2
