@<TRIPOS>MOLECULE
2vag_V25_A_1.pdb
 22 23 0 0 0
SMALL
GASTEIGER

@<TRIPOS>ATOM
      1  CAA        7.9330   15.4020   16.2560 C.3   1482  V251482     0.0513
      2  CAL        7.9170   16.2490   17.5470 C.3   1482  V251482     0.2089
      3  OAM        7.3970   15.3410   18.5310 O.3   1482  V251482    -0.4444
      4  CAN        7.7080   15.6980   19.7940 C.2   1482  V251482     0.3570
      5  OAE        7.9590   16.8870   19.9750 O.2   1482  V251482    -0.2433
      6  CAS        7.4990   14.7280   20.9440 C.ar  1482  V251482     0.1340
      7  NAV        7.5840   15.0440   22.2820 N.ar  1482  V251482    -0.3196
      8  CAB        8.0230   16.3390   22.8060 C.3   1482  V251482     0.1306
      9  CAU        7.2280   14.0320   23.0340 C.ar  1482  V251482     0.0713
     10  CAQ        7.1830   13.8300   24.4160 C.ar  1482  V251482     0.0839
     11 CL1         7.6130   15.0660   25.5510 Cl    1482  V251482    -0.0799
     12  CAP        6.7600   12.6390   24.9380 C.ar  1482  V251482     0.0696
     13 CL2         6.6910   12.3730   26.6540 Cl    1482  V251482    -0.0813
     14  CAJ        6.3800   11.6180   24.0850 C.ar  1482  V251482     0.0123
     15  CAK        6.4480   11.7810   22.7130 C.ar  1482  V251482     0.0021
     16  CAT        6.8750   12.9770   22.1610 C.ar  1482  V251482     0.0157
     17  CAR        6.9990   13.4270   20.8480 C.ar  1482  V251482     0.0209
     18  CAO        6.7970   12.5760   19.7300 C.3   1482  V251482     0.1581
     19  CAH        5.6420   11.7710   19.5360 C.1   1482  V251482     0.0828
     20  NAC        4.7220   11.1200   19.3820 N.1   1482  V251482    -0.1952
     21  CAI        7.8380   12.3090   18.8110 C.2   1482  V251482     0.1150
     22  NAD        9.0180   12.9120   18.7750 N.2   1482  V251482    -0.1499
@<TRIPOS>BOND
     1     1     2    1
     2     2     3    1
     3     3     4    1
     4    22    21    2
     5    21    18    1
     6    20    19    3
     7    19    18    1
     8    18    17    1
     9     4     5    2
    10     4     6    1
    11    17     6   ar
    12    17    16   ar
    13     6     7   ar
    14    16    15   ar
    15    16     9   ar
    16     7     8    1
    17     7     9   ar
    18    15    14   ar
    19     9    10   ar
    20    14    12   ar
    21    10    12   ar
    22    10    11    1
    23    12    13    1
