@<TRIPOS>MOLECULE
2vao_EUG_A_1.pdb
 11 11 0 0 0
SMALL
GASTEIGER

@<TRIPOS>ATOM
      1  C1       108.6030   47.3730   70.7110 C.ar  601  EUG601      0.0032
      2  C2       108.4980   46.4020   69.7110 C.ar  601  EUG601      0.0402
      3  C3       107.5380   46.5130   68.7060 C.ar  601  EUG601      0.1774
      4  C4       106.6730   47.6100   68.7310 C.ar  601  EUG601      0.2293
      5  C5       106.7760   48.5670   69.7300 C.ar  601  EUG601      0.0452
      6  C6       107.7270   48.4410   70.7270 C.ar  601  EUG601      0.0035
      7  C7       109.6080   47.2710   71.7680 C.2   601  EUG601      0.0001
      8  C8       110.8410   47.5720   71.4610 C.2   601  EUG601      0.0000
      9  C9       107.8630   45.8830   66.4060 C.3   601  EUG601      0.2526
     10  O3       107.4470   45.5860   67.7080 O.3   601  EUG601     -0.4682
     11  O4       105.7470   47.7830   67.7680 O.3   601  EUG601     -0.2833
@<TRIPOS>BOND
     1     9    10    1
     2    10     3    1
     3    11     4    1
     4     3     4   ar
     5     3     2   ar
     6     4     5   ar
     7     2     1   ar
     8     5     6   ar
     9     1     6   ar
    10     1     7    1
    11     8     7    2
