@<TRIPOS>MOLECULE
2vap_GDP_A_1.pdb
 28 30 0 0 0
SMALL
GASTEIGER

@<TRIPOS>ATOM
      1  PB        27.6010  -14.7030    4.9350 P.3   1355  GDP1355     0.5373
      2  O1B       26.4510  -14.7140    3.9570 O.2   1355  GDP1355    -0.2221
      3  O2B       28.7490  -15.5070    4.3710 O.3   1355  GDP1355    -0.1143
      4  O3B       27.1460  -15.3020    6.2430 O.3   1355  GDP1355    -0.1143
      5  O3A       28.0420  -13.1700    5.1510 O.3   1355  GDP1355    -0.2261
      6  PA        29.4630  -12.7190    5.7620 P.3   1355  GDP1355     0.2231
      7  O1A       29.9630  -13.6840    6.8080 O.3   1355  GDP1355    -0.4370
      8  O2A       30.4840  -12.5070    4.6690 O.2   1355  GDP1355    -0.5169
      9  O5'       29.1020  -11.3070    6.4380 O.3   1355  GDP1355    -0.3111
     10  C5'       28.0910  -11.2300    7.4380 C.3   1355  GDP1355     0.1813
     11  C4'       28.4450  -10.1300    8.4250 C.3   1355  GDP1355     0.1799
     12  O4'       29.7280  -10.3860    9.0040 O.3   1355  GDP1355    -0.3326
     13  C3'       28.5460   -8.7760    7.7420 C.3   1355  GDP1355     0.2158
     14  O3'       27.3060   -8.0640    7.8060 O.3   1355  GDP1355    -0.2175
     15  C2'       29.6670   -8.0710    8.4790 C.3   1355  GDP1355     0.2310
     16  O2'       29.1470   -7.3130    9.5740 O.3   1355  GDP1355    -0.2158
     17  C1'       30.5210   -9.1960    9.0370 C.3   1355  GDP1355     0.2293
     18  N9        31.7670   -9.3970    8.2470 N.pl3 1355  GDP1355    -0.2354
     19  C8        31.9120   -9.3760    6.9040 C.3   1355  GDP1355     0.2246
     20  N7        33.2030   -9.6080    6.5440 N.2   1355  GDP1355    -0.2322
     21  C5        33.9090   -9.7870    7.6770 C.2   1355  GDP1355     0.2182
     22  C6        35.3220  -10.0720    8.0340 C.1   1355  GDP1355     0.2372
     23  O6        36.1950  -10.2040    7.1490 O.2   1355  GDP1355    -0.2069
     24  N1        35.6350  -10.1830    9.3370 N.2   1355  GDP1355    -0.2485
     25  C2        34.7160  -10.0470   10.3160 C.1   1355  GDP1355     0.2531
     26  N2        35.1010  -10.1720   11.6090 N.pl3 1355  GDP1355    -0.0226
     27  N3        33.4090   -9.7860   10.0590 N.2   1355  GDP1355    -0.3074
     28  C4        32.9570   -9.6490    8.7890 C.2   1355  GDP1355     0.2300
@<TRIPOS>BOND
     1     2     1    2
     2     3     1    1
     3     8     6    2
     4     1     5    1
     5     1     4    1
     6     5     6    1
     7     6     9    1
     8     6     7    1
     9     9    10    1
    10    20    19    1
    11    20    21    2
    12    19    18    1
    13    23    22    2
    14    10    11    1
    15    21    22    1
    16    21    28    1
    17    13    14    1
    18    13    11    1
    19    13    15    1
    20    22    24    2
    21    18    28    1
    22    18    17    1
    23    11    12    1
    24    15    17    1
    25    15    16    1
    26    28    27    2
    27    12    17    1
    28    24    25    2
    29    27    25    2
    30    25    26    1
