@<TRIPOS>MOLECULE
2var_KDG_A_1.pdb
 12 11 0 0 0
SMALL
GASTEIGER

@<TRIPOS>ATOM
      1  O1B      -32.1380   20.3730    5.9000 O.3   1313  KDG1313    -0.2175
      2  C1       -32.8520   19.1310    5.9830 C.3   1313  KDG1313     0.2174
      3  C2       -32.0270   18.1330    6.7840 C.3   1313  KDG1313     0.2153
      4  O2       -31.2490   18.8680    7.7380 O.3   1313  KDG1313    -0.2176
      5  C3       -32.9530   17.1190    7.4730 C.3   1313  KDG1313     0.1927
      6  O3       -32.4940   15.7650    7.2550 O.3   1313  KDG1313    -0.2198
      7  C4       -33.2250   17.4030    8.9770 C.3   1313  KDG1313     0.1118
      8  O5       -31.0530   16.6190    9.7700 O.2   1313  KDG1313    -0.2842
      9  C5       -32.0340   17.3350    9.9600 C.2   1313  KDG1313     0.2546
     10  C6       -32.0740   18.1830   11.2300 C.2   1313  KDG1313     0.4219
     11  O6A      -33.0700   18.9110   11.4130 O.co2 1313  KDG1313    -0.2373
     12  O6B      -31.1070   18.1100   12.0160 O.co2 1313  KDG1313    -0.2373
@<TRIPOS>BOND
     1     1     2    1
     2     2     3    1
     3     3     5    1
     4     3     4    1
     5     6     5    1
     6     5     7    1
     7     7     9    1
     8     8     9    2
     9     9    10    1
    10    10    11   ar
    11    10    12   ar
