@<TRIPOS>MOLECULE
2var_ANP_A_1.pdb
 31 33 0 0 0
SMALL
GASTEIGER

@<TRIPOS>ATOM
      1  PG       -33.3520   22.1310    4.1970 P.3   1315  ANP1315     0.4884
      2  O1G      -32.2160   21.2880    3.4990 O.2   1315  ANP1315    -0.2331
      3  O2G      -32.3910   22.9250    5.2740 O.3   1315  ANP1315    -0.1240
      4  O3G      -34.4650   21.3740    4.9230 O.3   1315  ANP1315    -0.1240
      5  PB       -33.4550   24.6870    3.1290 P.3   1315  ANP1315     0.4669
      6  O1B      -31.9210   24.6920    3.6750 O.2   1315  ANP1315    -0.2351
      7  O2B      -34.4160   25.4910    3.9710 O.3   1315  ANP1315    -0.1253
      8  N3B      -33.9090   23.1160    3.0020 N.3   1315  ANP1315    -0.0163
      9  PA       -34.1760   26.2670    0.8510 P.3   1315  ANP1315     0.2220
     10  O1A      -33.2450   27.5430    0.7750 O.2   1315  ANP1315    -0.5170
     11  O2A      -35.4620   26.6250    1.5070 O.3   1315  ANP1315    -0.4370
     12  O3A      -33.2580   25.2010    1.6450 O.3   1315  ANP1315    -0.2360
     13  O5'      -34.3580   25.6750   -0.6380 O.3   1315  ANP1315    -0.3111
     14  C5'      -33.2950   25.5670   -1.6080 C.3   1315  ANP1315     0.1813
     15  C4'      -33.9270   25.4670   -3.0420 C.3   1315  ANP1315     0.1821
     16  O4'      -35.1480   24.6630   -2.9230 O.3   1315  ANP1315    -0.3135
     17  C3'      -34.4750   26.7400   -3.7300 C.3   1315  ANP1315     0.2184
     18  O3'      -33.4460   27.5820   -4.2860 O.3   1315  ANP1315    -0.2174
     19  C2'      -35.3220   26.1100   -4.8410 C.3   1315  ANP1315     0.2570
     20  O2'      -34.5000   25.6700   -5.9440 O.3   1315  ANP1315    -0.2130
     21  C1'      -35.9490   24.9000   -4.1240 C.3   1315  ANP1315     0.3186
     22  N9       -37.3480   25.1610   -3.6540 N.pl3 1315  ANP1315    -0.1439
     23  C8       -37.7240   25.3110   -2.3790 C.3   1315  ANP1315     0.3377
     24  N7       -39.0370   25.5400   -2.3390 N.2   1315  ANP1315    -0.2095
     25  C5       -39.5020   25.5160   -3.5870 C.2   1315  ANP1315     0.2526
     26  C6       -40.7700   25.6820   -4.1430 C.2   1315  ANP1315     0.4393
     27  N6       -41.8160   25.9010   -3.3480 N.pl3 1315  ANP1315     0.2180
     28  N1       -40.9110   25.6000   -5.4840 N.2   1315  ANP1315     0.0021
     29  C2       -39.8550   25.3670   -6.2640 C.3   1315  ANP1315     0.5254
     30  N3       -38.6300   25.2060   -5.7620 N.2   1315  ANP1315    -0.0055
     31  C4       -38.4270   25.2760   -4.4300 C.2   1315  ANP1315     0.3518
@<TRIPOS>BOND
     1    29    30    1
     2    29    28    1
     3    20    19    1
     4    30    31    2
     5    28    26    2
     6    19    21    1
     7    19    17    1
     8    31    22    1
     9    31    25    1
    10    18    17    1
    11    26    25    1
    12    26    27    1
    13    21    22    1
    14    21    16    1
    15    17    15    1
    16    22    23    1
    17    25    24    2
    18    15    16    1
    19    15    14    1
    20    23    24    1
    21    14    13    1
    22    13     9    1
    23    10     9    2
    24     9    11    1
    25     9    12    1
    26    12     5    1
    27     8     5    1
    28     8     1    1
    29     5     6    2
    30     5     7    1
    31     2     1    2
    32     1     4    1
    33     1     3    1
