@<TRIPOS>MOLECULE
2var_AMP_A_1.pdb
 23 25 0 0 0
SMALL
GASTEIGER

@<TRIPOS>ATOM
      1  P        -35.1620   26.3730    0.8430 P.3   1316  AMP1316     0.5327
      2  O1P      -34.4100   25.4070    1.7400 O.3   1316  AMP1316    -0.1145
      3  O2P      -36.6720   26.3610    1.0230 O.3   1316  AMP1316    -0.1145
      4  O3P      -34.5800   27.7670    0.8100 O.2   1316  AMP1316    -0.2224
      5  O5'      -34.8760   25.7800   -0.6180 O.3   1316  AMP1316    -0.2675
      6  C5'      -33.5500   25.4930   -1.0810 C.3   1316  AMP1316     0.1860
      7  C4'      -33.6330   25.4650   -2.5990 C.3   1316  AMP1316     0.1823
      8  O4'      -34.5450   24.4250   -2.9920 O.3   1316  AMP1316    -0.3135
      9  C3'      -34.2330   26.7510   -3.1860 C.3   1316  AMP1316     0.2184
     10  O3'      -33.2710   27.7830   -3.4440 O.3   1316  AMP1316    -0.2174
     11  C2'      -34.9820   26.2650   -4.4180 C.3   1316  AMP1316     0.2570
     12  O2'      -34.1220   26.0590   -5.5510 O.3   1316  AMP1316    -0.2130
     13  C1'      -35.4950   24.9070   -3.9590 C.3   1316  AMP1316     0.3186
     14  N9       -36.8690   25.0220   -3.3840 N.pl3 1316  AMP1316    -0.1439
     15  C8       -37.2110   24.9790   -2.0840 C.3   1316  AMP1316     0.3377
     16  N7       -38.5480   25.1200   -1.9330 N.2   1316  AMP1316    -0.2095
     17  C5       -39.1000   25.2560   -3.1650 C.2   1316  AMP1316     0.2526
     18  C6       -40.4680   25.4440   -3.7460 C.2   1316  AMP1316     0.4393
     19  N6       -41.5770   25.5050   -2.9630 N.pl3 1316  AMP1316     0.2180
     20  N1       -40.5750   25.5380   -5.1020 N.2   1316  AMP1316     0.0021
     21  C2       -39.4970   25.4590   -5.9160 C.3   1316  AMP1316     0.5254
     22  N3       -38.2330   25.2920   -5.4560 N.2   1316  AMP1316    -0.0055
     23  C4       -37.9790   25.1880   -4.1200 C.2   1316  AMP1316     0.3518
@<TRIPOS>BOND
     1    21    22    1
     2    21    20    1
     3    12    11    1
     4    22    23    2
     5    20    18    2
     6    11    13    1
     7    11     9    1
     8    23    14    1
     9    23    17    1
    10    13    14    1
    11    13     8    1
    12    18    17    1
    13    18    19    1
    14    10     9    1
    15    14    15    1
    16     9     7    1
    17    17    16    2
    18     8     7    1
    19     7     6    1
    20    15    16    1
    21     6     5    1
    22     5     1    1
    23     4     1    2
    24     1     3    1
    25     1     2    1
