@<TRIPOS>MOLECULE
2var_KDF_A_1.pdb
 12 12 0 0 0
SMALL
GASTEIGER

@<TRIPOS>ATOM
      1  O1B      -31.5040   19.6720    6.1400 O.3   1314  KDF1314    -0.2176
      2  C1       -32.5080   18.6490    6.2640 C.3   1314  KDF1314     0.2141
      3  C2       -32.0210   17.7270    7.4250 C.3   1314  KDF1314     0.1814
      4  O2       -31.8610   18.4840    8.6700 O.3   1314  KDF1314    -0.3213
      5  C3       -33.0110   16.6410    7.8230 C.3   1314  KDF1314     0.1872
      6  O3       -32.7330   15.4480    7.0680 O.3   1314  KDF1314    -0.2203
      7  C4       -32.7110   16.4190    9.3410 C.3   1314  KDF1314     0.1063
      8  O5       -30.3390   17.0290    9.9050 O.3   1314  KDF1314    -0.1830
      9  C6       -32.1090   18.1810   11.0140 C.2   1314  KDF1314     0.4179
     10  O6A      -32.9520   19.0960   10.9490 O.co2 1314  KDF1314    -0.2401
     11  C5       -31.7000   17.5170    9.7080 C.3   1314  KDF1314     0.3156
     12  O6B      -31.5730   17.7420   12.0360 O.co2 1314  KDF1314    -0.2401
@<TRIPOS>BOND
     1     1     2    1
     2     2     3    1
     3     6     5    1
     4     3     5    1
     5     3     4    1
     6     5     7    1
     7     4    11    1
     8     7    11    1
     9    11     8    1
    10    11     9    1
    11    10     9   ar
    12     9    12   ar
