@<TRIPOS>MOLECULE
2vas_ADP_A_1.pdb
 27 29 0 0 0
SMALL
GASTEIGER

@<TRIPOS>ATOM
      1  PB        14.5780  -21.1030  -24.0430 P.3   998  ADP998      0.5373
      2  O1B       13.2480  -20.4580  -24.3540 O.2   998  ADP998     -0.2221
      3  O2B       15.6140  -20.1370  -23.5170 O.3   998  ADP998     -0.1143
      4  O3B       14.4640  -22.3500  -23.2070 O.3   998  ADP998     -0.1143
      5  PA        14.8180  -21.2720  -26.9040 P.3   998  ADP998      0.2231
      6  O1A       13.5900  -22.0160  -27.3480 O.2   998  ADP998     -0.5169
      7  O2A       14.8520  -19.7640  -27.0530 O.3   998  ADP998     -0.4370
      8  O3A       15.2190  -21.6710  -25.4030 O.3   998  ADP998     -0.2261
      9  O5'       16.0170  -21.9500  -27.7210 O.3   998  ADP998     -0.3111
     10  C5'       17.2870  -21.3290  -27.8970 C.3   998  ADP998      0.1813
     11  C4'       17.7360  -21.5060  -29.3500 C.3   998  ADP998      0.1821
     12  O4'       18.0130  -22.8800  -29.5860 O.3   998  ADP998     -0.3135
     13  C3'       16.6730  -21.1340  -30.3820 C.3   998  ADP998      0.2184
     14  O3'       16.7440  -19.7640  -30.8090 O.3   998  ADP998     -0.2174
     15  C2'       16.9220  -22.0760  -31.5320 C.3   998  ADP998      0.2570
     16  O2'       18.0000  -21.5780  -32.3250 O.3   998  ADP998     -0.2130
     17  C1'       17.4880  -23.3060  -30.8520 C.3   998  ADP998      0.3186
     18  N9        16.4810  -24.4000  -30.7270 N.pl3 998  ADP998     -0.1439
     19  C8        15.8370  -24.7670  -29.6030 C.3   998  ADP998      0.3377
     20  N7        15.0200  -25.8240  -29.8410 N.2   998  ADP998     -0.2095
     21  C5        15.1340  -26.1490  -31.1510 C.2   998  ADP998      0.2526
     22  C6        14.5410  -27.1590  -32.0680 C.2   998  ADP998      0.4393
     23  N6        13.6400  -28.0650  -31.6070 N.pl3 998  ADP998      0.2180
     24  N1        14.9220  -27.1540  -33.3670 N.2   998  ADP998      0.0021
     25  C2        15.8140  -26.2570  -33.8300 C.3   998  ADP998      0.5254
     26  N3        16.3850  -25.3160  -33.0480 N.2   998  ADP998     -0.0055
     27  C4        16.1010  -25.2140  -31.7260 C.2   998  ADP998      0.3518
@<TRIPOS>BOND
     1    25    24    1
     2    25    26    1
     3    24    22    2
     4    26    27    2
     5    16    15    1
     6    22    23    1
     7    22    21    1
     8    27    21    1
     9    27    18    1
    10    15    17    1
    11    15    13    1
    12    21    20    2
    13    17    18    1
    14    17    12    1
    15    14    13    1
    16    18    19    1
    17    13    11    1
    18    20    19    1
    19    12    11    1
    20    11    10    1
    21    10     9    1
    22     9     5    1
    23     6     5    2
    24     7     5    1
    25     5     8    1
    26     8     1    1
    27     2     1    2
    28     1     3    1
    29     1     4    1
