@<TRIPOS>MOLECULE
2vat_COA_A_1.pdb
 48 50 0 0 0
SMALL
GASTEIGER

@<TRIPOS>ATOM
      1  N1A      121.6800   15.8950   38.3740 N.2   1383  COA1383     0.0021
      2  C2A      120.8210   16.2990   37.4260 C.3   1383  COA1383     0.5254
      3  N3A      120.1620   15.3960   36.6940 N.2   1383  COA1383    -0.0055
      4  C4A      120.3220   14.1000   36.8840 C.2   1383  COA1383     0.3518
      5  C5A      121.1680   13.6660   37.8320 C.2   1383  COA1383     0.2526
      6  C6A      121.8440   14.5900   38.5800 C.2   1383  COA1383     0.4393
      7  N6A      122.6500   14.2280   39.4800 N.pl3 1383  COA1383     0.2180
      8  N7A      121.1210   12.3600   37.8230 N.2   1383  COA1383    -0.2095
      9  C8A      120.2890   11.9530   36.9030 C.3   1383  COA1383     0.3377
     10  N9A      119.7660   13.0240   36.3270 N.pl3 1383  COA1383    -0.1439
     11  C1B      118.7890   13.0810   35.2680 C.3   1383  COA1383     0.3185
     12  C2B      119.1620   12.4400   33.9370 C.3   1383  COA1383     0.2543
     13  O2B      119.6810   13.4180   33.1180 O.3   1383  COA1383    -0.2131
     14  C3B      117.8200   12.0230   33.4030 C.3   1383  COA1383     0.1928
     15  O3B      117.2700   13.1090   32.7150 O.3   1383  COA1383    -0.2673
     16  P3B      116.7130   13.0310   31.2600 P.3   1383  COA1383     0.5327
     17  O7A      115.9350   11.8060   31.1210 O.3   1383  COA1383    -0.1145
     18  O8A      117.8610   13.0390   30.4150 O.2   1383  COA1383    -0.2224
     19  O9A      115.8890   14.1650   30.9640 O.3   1383  COA1383    -0.1145
     20  C4B      117.0120   11.8230   34.6470 C.3   1383  COA1383     0.1795
     21  O4B      117.5280   12.6990   35.6230 O.3   1383  COA1383    -0.3136
     22  C5B      117.1220   10.3590   34.9770 C.3   1383  COA1383     0.1812
     23  O5B      116.5380   10.0380   36.1860 O.3   1383  COA1383    -0.3112
     24  P1A      115.9010    8.6610   36.4380 P.3   1383  COA1383     0.2189
     25  O1A      116.8670    7.6210   36.5410 O.2   1383  COA1383    -0.5170
     26  O2A      115.1080    8.6320   37.5870 O.3   1383  COA1383    -0.4371
     27  O3A      114.9240    8.3480   35.2330 O.3   1383  COA1383    -0.2703
     28  P2A      114.3780    6.9200   34.7410 P.3   1383  COA1383     0.2188
     29  O4A      114.3220    5.9530   35.7680 O.3   1383  COA1383    -0.4371
     30  O5A      115.1530    6.4240   33.6230 O.2   1383  COA1383    -0.5170
     31  O6A      112.9000    7.1890   34.2940 O.3   1383  COA1383    -0.3138
     32  CBP      111.0150    8.3010   33.1500 C.3   1383  COA1383     0.0645
     33  CCP      112.5200    8.1180   33.3060 C.3   1383  COA1383     0.1519
     34  CDP      110.2790    6.9640   33.1020 C.3   1383  COA1383     0.0056
     35  CEP      110.7560    9.0000   31.8440 C.3   1383  COA1383     0.0056
     36  CAP      110.5330    9.2180   34.2560 C.3   1383  COA1383     0.2312
     37  OAP      111.5620   10.1020   34.5420 O.3   1383  COA1383    -0.2131
     38  C9P      109.4220   10.0940   33.8210 C.2   1383  COA1383     0.2719
     39  O9P      109.6100   11.1750   32.9690 O.2   1383  COA1383    -0.2706
     40  N8P      108.2520    9.8520   34.2920 N.am  1383  COA1383    -0.2028
     41  C7P      107.8920    8.6510   34.9450 C.3   1383  COA1383     0.1248
     42  C6P      106.4740    8.7640   35.4370 C.3   1383  COA1383     0.1102
     43  C5P      105.5220    8.5250   34.3080 C.2   1383  COA1383     0.2432
     44  O5P      105.9510    8.4400   33.1950 O.2   1383  COA1383    -0.2733
     45  N4P      104.2410    8.4060   34.5510 N.am  1383  COA1383    -0.2044
     46  C3P      103.3350    9.5220   34.6790 C.3   1383  COA1383     0.1276
     47  C2P      102.2860    9.1980   35.7150 C.3   1383  COA1383     0.0920
     48  S1P      102.3390    7.4440   36.0760 S.3   1383  COA1383    -0.0802
@<TRIPOS>BOND
     1    18    16    2
     2    19    16    1
     3    17    16    1
     4    16    15    1
     5    35    32    1
     6    15    14    1
     7    39    38    2
     8    34    32    1
     9    13    12    1
    10    32    33    1
    11    32    36    1
    12    44    43    2
    13    33    31    1
    14    14    12    1
    15    14    20    1
    16    30    28    2
    17    38    36    1
    18    38    40   am
    19    12    11    1
    20    36    37    1
    21    40    41    1
    22    31    28    1
    23    43    45   am
    24    43    42    1
    25    45    46    1
    26    20    22    1
    27    20    21    1
    28    46    47    1
    29    28    27    1
    30    28    29    1
    31    41    42    1
    32    22    23    1
    33    27    24    1
    34    11    21    1
    35    11    10    1
    36    47    48    1
    37    23    24    1
    38    10     4    1
    39    10     9    1
    40    24    25    2
    41    24    26    1
    42     3     4    2
    43     3     2    1
    44     4     5    1
    45     9     8    1
    46     2     1    1
    47     8     5    2
    48     5     6    1
    49     1     6    2
    50     6     7    1
