@<TRIPOS>MOLECULE
2vau_V20_A_1.pdb
 24 23 0 0 0
SMALL
GASTEIGER

@<TRIPOS>ATOM
      1  O         17.5410   35.8780    4.3210 O.co2 1333  V201333    -0.2441
      2  C         17.3710   36.1330    5.5740 C.2   1333  V201333     0.3819
      3  OXT       18.3210   36.2230    6.3890 O.co2 1333  V201333    -0.2441
      4  CA        15.9820   36.3330    6.1100 C.3   1333  V201333     0.1943
      5  N         15.9500   36.4610    7.6110 N.3   1333  V201333    -0.1208
      6  CB        15.4190   37.5570    5.4140 C.3   1333  V201333     0.0311
      7  CAJ       13.9650   37.8770    5.8560 C.3   1333  V201333     0.0117
      8  CAL       13.4980   39.2150    5.3140 C.3   1333  V201333     0.0869
      9  CAT       12.0420   39.4830    5.6570 C.2   1333  V201333     0.2418
     10  OAE       11.7050   39.7800    6.7850 O.2   1333  V201333    -0.2733
     11  NAO       11.1700   39.3770    4.6730 N.am  1333  V201333    -0.1948
     12  CAW        9.7430   39.6210    4.8720 C.3   1333  V201333     0.2050
     13  CAK        9.2670   40.5450    3.8050 C.3   1333  V201333     0.1017
     14  SAI        9.5950   39.8840    2.1470 S.3   1333  V201333    -0.0797
     15  CAU        8.9870   38.3250    4.7550 C.2   1333  V201333     0.3383
     16  OAF        9.4950   37.2440    4.5920 O.2   1333  V201333    -0.2481
     17  OAP        7.6040   38.4680    4.7120 O.3   1333  V201333    -0.4384
     18  CAX        6.8190   37.3810    4.1840 C.3   1333  V201333     0.2812
     19  CAS        5.4900   37.4130    4.9430 C.2   1333  V201333     0.4051
     20  OAD        5.4010   38.1460    5.9830 O.co2 1333  V201333    -0.2416
     21  OAH        4.5030   36.7250    4.5240 O.co2 1333  V201333    -0.2416
     22  CAN        6.6940   37.7080    2.6930 C.3   1333  V201333     0.1130
     23  SAQ        6.0210   39.3090    2.3070 S.3   1333  V201333    -0.1349
     24  CAA        4.5000   38.8310    1.5040 C.3   1333  V201333     0.0693
@<TRIPOS>BOND
     1    24    23    1
     2    14    13    1
     3    23    22    1
     4    22    18    1
     5    13    12    1
     6    18    17    1
     7    18    19    1
     8     1     2   ar
     9    21    19   ar
    10    16    15    2
    11    11    12    1
    12    11     9   am
    13    17    15    1
    14    15    12    1
    15    19    20   ar
    16     8     9    1
    17     8     7    1
    18     6     7    1
    19     6     4    1
    20     2     4    1
    21     2     3   ar
    22     9    10    2
    23     4     5    1
