@<TRIPOS>MOLECULE
2vav_CSC_A_1.pdb
 25 26 0 0 0
SMALL
GASTEIGER

@<TRIPOS>ATOM
      1  S1       105.6310    7.1120   34.8670 S.3   1383  CSC1383    -0.1140
      2  C2       104.0780    7.2730   35.6680 C.3   1383  CSC1383     0.0851
      3  C3       103.4060    8.5840   35.3090 C.2   1383  CSC1383     0.0195
      4  C3'      102.1990    9.0210   36.1290 C.3   1383  CSC1383     0.2067
      5  C4       103.8070    9.3980   34.3320 C.2   1383  CSC1383     0.1303
      6  C4'      103.1170   10.6740   34.2080 C.2   1383  CSC1383     0.4007
      7  O4A      102.7030   11.0590   33.1030 O.co2 1383  CSC1383    -0.2392
      8  O4B      102.9120   11.3240   35.2470 O.co2 1383  CSC1383    -0.2392
      9  N5       104.8190    9.0610   33.5180 N.am  1383  CSC1383    -0.2420
     10  C6       105.4140    7.7630   33.2540 C.3   1383  CSC1383     0.1570
     11  C7       106.5890    8.5770   32.6590 C.3   1383  CSC1383     0.2002
     12  C8       105.6980    9.7650   32.8380 C.2   1383  CSC1383     0.2526
     13  O9       105.7530   10.9100   32.4070 O.2   1383  CSC1383    -0.2726
     14  N10      107.6580    8.4630   33.6490 N.am  1383  CSC1383    -0.1951
     15  C11      108.9740    8.5070   33.4130 C.2   1383  CSC1383     0.2418
     16  O12      109.4820    8.6810   32.3170 O.2   1383  CSC1383    -0.2733
     17  C13      109.8520    8.3440   34.6310 C.3   1383  CSC1383     0.0869
     18  C14      111.2210    7.8350   34.2020 C.3   1383  CSC1383     0.0117
     19  C15      112.3600    8.5290   34.9430 C.3   1383  CSC1383     0.0311
     20  C16      113.5720    8.4960   34.0150 C.3   1383  CSC1383     0.1943
     21  N17      113.7940    9.8850   33.5190 N.3   1383  CSC1383    -0.1208
     22  C18      114.7790    7.8290   34.6510 C.2   1383  CSC1383     0.3819
     23  O19      115.6080    8.5180   35.3150 O.co2 1383  CSC1383    -0.2441
     24  O20      114.9050    6.5920   34.4780 O.co2 1383  CSC1383    -0.2441
     25  O1       101.0860    9.3930   35.2790 O.3   1383  CSC1383    -0.2155
@<TRIPOS>BOND
     1    16    15    2
     2    13    12    2
     3    11    12    1
     4    11    10    1
     5    11    14    1
     6    12     9   am
     7     7     6   ar
     8    10     9    1
     9    10     1    1
    10    15    14   am
    11    15    17    1
    12     9     5    1
    13    21    20    1
    14    20    22    1
    15    20    19    1
    16    18    17    1
    17    18    19    1
    18     6     5    1
    19     6     8   ar
    20     5     3    2
    21    24    22   ar
    22    22    23   ar
    23     1     2    1
    24    25     4    1
    25     3     2    1
    26     3     4    1
