@<TRIPOS>MOLECULE
2vaw_GDP_A_1.pdb
 28 30 0 0 0
SMALL
GASTEIGER

@<TRIPOS>ATOM
      1  PB       -35.2300   12.0550  -13.4430 P.3   1317  GDP1317     0.5373
      2  O1B      -35.8640   12.8600  -14.6080 O.2   1317  GDP1317    -0.2221
      3  O2B      -34.4690   10.9180  -13.9820 O.3   1317  GDP1317    -0.1143
      4  O3B      -36.2320   11.8190  -12.4090 O.3   1317  GDP1317    -0.1143
      5  O3A      -34.2280   13.1250  -12.8480 O.3   1317  GDP1317    -0.2261
      6  PA       -32.6500   13.0680  -12.7910 P.3   1317  GDP1317     0.2231
      7  O1A      -32.2450   11.8070  -12.1560 O.3   1317  GDP1317    -0.4370
      8  O2A      -32.0810   13.4720  -14.0860 O.2   1317  GDP1317    -0.5169
      9  O5'      -32.4740   14.2790  -11.7520 O.3   1317  GDP1317    -0.3111
     10  C5'      -33.0250   14.1470  -10.4510 C.3   1317  GDP1317     0.1813
     11  C4'      -32.3810   15.1100   -9.4490 C.3   1317  GDP1317     0.1799
     12  O4'      -31.6870   14.3120   -8.4990 O.3   1317  GDP1317    -0.3326
     13  C3'      -31.3660   16.1030   -9.9980 C.3   1317  GDP1317     0.2158
     14  O3'      -31.9730   17.3690  -10.2550 O.3   1317  GDP1317    -0.2175
     15  C2'      -30.2260   16.1120   -8.9810 C.3   1317  GDP1317     0.2310
     16  O2'      -30.3090   17.1400   -7.9940 O.3   1317  GDP1317    -0.2158
     17  C1'      -30.3410   14.7390   -8.3500 C.3   1317  GDP1317     0.2293
     18  N9       -29.4010   13.7170   -8.9170 N.pl3 1317  GDP1317    -0.2354
     19  C8       -28.9690   13.4660  -10.2000 C.3   1317  GDP1317     0.2246
     20  N7       -28.1280   12.4890  -10.3380 N.2   1317  GDP1317    -0.2322
     21  C5       -27.9690   12.0300   -9.0330 C.2   1317  GDP1317     0.2182
     22  C6       -27.1540   10.9510   -8.5070 C.1   1317  GDP1317     0.2372
     23  O6       -26.4110   10.1970   -9.1140 O.2   1317  GDP1317    -0.2069
     24  N1       -27.2840   10.8080   -7.1090 N.2   1317  GDP1317    -0.2485
     25  C2       -28.0910   11.5930   -6.2900 C.1   1317  GDP1317     0.2531
     26  N2       -28.0890   11.3060   -4.9920 N.pl3 1317  GDP1317    -0.0226
     27  N3       -28.8540   12.6070   -6.7670 N.2   1317  GDP1317    -0.3074
     28  C4       -28.7450   12.7690   -8.1470 C.2   1317  GDP1317     0.2300
@<TRIPOS>BOND
     1     2     1    2
     2     8     6    2
     3     3     1    1
     4     1     5    1
     5     1     4    1
     6     5     6    1
     7     6     7    1
     8     6     9    1
     9     9    10    1
    10    10    11    1
    11    20    19    1
    12    20    21    2
    13    14    13    1
    14    19    18    1
    15    13    11    1
    16    13    15    1
    17    11    12    1
    18    23    22    2
    19    21    22    1
    20    21    28    1
    21    15    17    1
    22    15    16    1
    23    18    17    1
    24    18    28    1
    25    22    24    2
    26    12    17    1
    27    28    27    2
    28    24    25    2
    29    27    25    2
    30    25    26    1
