@<TRIPOS>MOLECULE
2vax_CSC_A_1.pdb
 25 26 0 0 0
SMALL
GASTEIGER

@<TRIPOS>ATOM
      1  S1       106.0520    7.1530   34.4920 S.3   1383  CSC1383    -0.1143
      2  C2       104.8330    7.7120   35.6410 C.3   1383  CSC1383     0.0866
      3  C3       103.6140    8.3320   34.9730 C.2   1383  CSC1383     0.0375
      4  C3'      102.4440    7.7300   35.2600 C.2   1383  CSC1383     0.2287
      5  C4       103.7370    9.4030   34.1230 C.3   1383  CSC1383     0.2027
      6  C4'      102.8540   10.4300   34.1380 C.2   1383  CSC1383     0.3865
      7  O4A      102.9390   11.4280   33.4050 O.co2 1383  CSC1383    -0.2434
      8  O4B      101.8770   10.3640   34.8880 O.co2 1383  CSC1383    -0.2434
      9  N5       104.9050    9.3680   33.4210 N.am  1383  CSC1383    -0.2568
     10  C6       105.6660    8.1530   33.0790 C.3   1383  CSC1383     0.1534
     11  C7       106.7170    9.1670   32.6290 C.3   1383  CSC1383     0.1996
     12  C8       105.7250   10.2380   32.9570 C.2   1383  CSC1383     0.2493
     13  O9       105.8030   11.4580   32.8550 O.2   1383  CSC1383    -0.2729
     14  N10      107.6690    9.0770   31.5100 N.am  1383  CSC1383    -0.1951
     15  C11      108.8240    8.9900   32.0540 C.2   1383  CSC1383     0.2418
     16  O12      108.8960    8.9760   33.2750 O.2   1383  CSC1383    -0.2733
     17  C13      110.1390    8.8800   31.2990 C.3   1383  CSC1383     0.0869
     18  C14      111.2030    8.2290   32.2270 C.3   1383  CSC1383     0.0117
     19  C15      112.2740    9.1550   32.8590 C.3   1383  CSC1383     0.0311
     20  C16      112.5430    9.0150   34.3880 C.3   1383  CSC1383     0.1943
     21  N17      111.4080    8.4330   35.1120 N.3   1383  CSC1383    -0.1208
     22  C18      113.8530    8.3110   34.7760 C.2   1383  CSC1383     0.3819
     23  O19      114.1470    7.1640   34.3430 O.co2 1383  CSC1383    -0.2441
     24  O20      114.6290    8.9030   35.5660 O.co2 1383  CSC1383    -0.2441
     25  O1       102.3920    6.6750   36.0770 O.2   1383  CSC1383    -0.2837
@<TRIPOS>BOND
     1    17    15    1
     2    17    18    1
     3    14    15   am
     4    14    11    1
     5    15    16    2
     6    18    19    1
     7    11    12    1
     8    11    10    1
     9    13    12    2
    10    19    20    1
    11    12     9   am
    12    10     9    1
    13    10     1    1
    14     7     6   ar
    15     9     5    1
    16     5     6    1
    17     5     3    1
    18     6     8   ar
    19    23    22   ar
    20    20    22    1
    21    20    21    1
    22     1     2    1
    23    22    24   ar
    24     3     4    2
    25     3     2    1
    26     4    25    1
