@<TRIPOS>MOLECULE
2vb1_EDO_A_1.pdb
 10 9 0 0 0
SMALL
GASTEIGER

@<TRIPOS>ATOM
      1  C1        -0.1630   14.1040   31.5860 C.3   302  EDO302      0.0673
      2  O1         0.3790   12.9330   32.0500 O.3   302  EDO302     -0.3928
      3  C2         0.5250   14.6770   30.4350 C.3   302  EDO302      0.0673
      4  O2         1.8670   14.9980   30.7800 O.3   302  EDO302     -0.3928
      5  H11       -0.1570   14.7550   32.3050 H     302  EDO302      0.0580
      6  H12       -1.0880   13.9430   31.3450 H     302  EDO302      0.0580
      7  HO1        1.1600   13.0600   32.2670 H     302  EDO302      0.2095
      8  H21        0.5200   14.0410   29.7020 H     302  EDO302      0.0580
      9  H22        0.0630   15.4780   30.1430 H     302  EDO302      0.0580
     10  HO2        1.8680   15.5430   31.3930 H     302  EDO302      0.2095
@<TRIPOS>BOND
     1     8     3    1
     2     9     3    1
     3     3     4    1
     4     3     1    1
     5     4    10    1
     6     6     1    1
     7     1     2    1
     8     1     5    1
     9     2     7    1
