@<TRIPOS>MOLECULE
2vb6_ADP_A_1.pdb
 27 29 0 0 0
SMALL
GASTEIGER

@<TRIPOS>ATOM
      1  PB        22.8550   20.6330   65.6920 P.3   998  ADP998      0.5373
      2  O1B       24.1940   19.9990   65.4110 O.2   998  ADP998     -0.2221
      3  O2B       21.9800   19.7050   66.4990 O.3   998  ADP998     -0.1143
      4  O3B       22.9540   22.0260   66.2460 O.3   998  ADP998     -0.1143
      5  PA        22.6030   20.5020   62.7670 P.3   998  ADP998      0.2231
      6  O1A       23.8630   21.2270   62.3710 O.2   998  ADP998     -0.5169
      7  O2A       22.5560   19.0070   62.6680 O.3   998  ADP998     -0.4370
      8  O3A       22.1240   20.9110   64.2740 O.3   998  ADP998     -0.2261
      9  O5'       21.4550   21.1660   61.8720 O.3   998  ADP998     -0.3111
     10  C5'       20.1500   20.5910   61.8370 C.3   998  ADP998      0.1813
     11  C4'       19.6490   20.5300   60.3970 C.3   998  ADP998      0.1821
     12  O4'       19.3410   21.8450   59.9480 O.3   998  ADP998     -0.3135
     13  C3'       20.6980   20.0210   59.4260 C.3   998  ADP998      0.2184
     14  O3'       20.6460   18.5970   59.2650 O.3   998  ADP998     -0.2174
     15  C2'       20.4020   20.7760   58.1580 C.3   998  ADP998      0.2570
     16  O2'       19.3080   20.1560   57.4690 O.3   998  ADP998     -0.2130
     17  C1'       19.8520   22.0970   58.6390 C.3   998  ADP998      0.3186
     18  N9        20.8230   23.2240   58.6450 N.pl3 998  ADP998     -0.1439
     19  C8        21.4280   23.7530   59.7340 C.3   998  ADP998      0.3377
     20  N7        22.2210   24.8010   59.4020 N.2   998  ADP998     -0.2095
     21  C5        22.1300   24.9620   58.0680 C.2   998  ADP998      0.2526
     22  C6        22.7130   25.8800   57.0540 C.2   998  ADP998      0.4393
     23  N6        23.5590   26.8540   57.4400 N.pl3 998  ADP998      0.2180
     24  N1        22.3610   25.7390   55.7520 N.2   998  ADP998      0.0021
     25  C2        21.5100   24.7680   55.3650 C.3   998  ADP998      0.5254
     26  N3        20.9460   23.8920   56.2350 N.2   998  ADP998     -0.0055
     27  C4        21.2040   23.9330   57.5740 C.2   998  ADP998      0.3518
@<TRIPOS>BOND
     1    25    24    1
     2    25    26    1
     3    24    22    2
     4    26    27    2
     5    22    23    1
     6    22    21    1
     7    16    15    1
     8    27    21    1
     9    27    18    1
    10    21    20    2
    11    15    17    1
    12    15    13    1
    13    17    18    1
    14    17    12    1
    15    18    19    1
    16    14    13    1
    17    20    19    1
    18    13    11    1
    19    12    11    1
    20    11    10    1
    21    10     9    1
    22     9     5    1
    23     6     5    2
    24     7     5    1
    25     5     8    1
    26     8     1    1
    27     2     1    2
    28     1     4    1
    29     1     3    1
