@<TRIPOS>MOLECULE
2vb8_TLM_A_1.pdb
 14 14 0 0 0
SMALL
GASTEIGER

@<TRIPOS>ATOM
      1  S1        38.3000   70.7100   60.5360 S.3   1405  TLM1405    -0.0631
      2  C1        38.5160   71.3010   62.1040 C.2   1405  TLM1405     0.2209
      3  C2        39.5890   72.0580   62.3000 C.2   1405  TLM1405     0.0589
      4  C3        40.3110   72.2630   61.1950 C.2   1405  TLM1405     0.1852
      5  C4        39.7000   71.6830   59.9460 C.3   1405  TLM1405     0.1191
      6  C5        40.7670   70.8000   59.2740 C.2   1405  TLM1405    -0.0133
      7  C6        40.5880   69.8660   58.2960 C.2   1405  TLM1405    -0.0249
      8  C7        41.7650   69.0970   57.8030 C.2   1405  TLM1405    -0.0045
      9  C8        41.7200   68.1390   56.8690 C.2   1405  TLM1405    -0.0003
     10  O1        37.6930   71.0280   62.9700 O.2   1405  TLM1405    -0.2799
     11  C9        39.9210   72.6500   63.6480 C.3   1405  TLM1405     0.0380
     12  O2        41.4700   72.9310   61.1720 O.2   1405  TLM1405    -0.2904
     13  C10       39.2100   72.8700   59.0780 C.3   1405  TLM1405     0.0235
     14  C11       39.2280   69.6090   57.7030 C.3   1405  TLM1405     0.0307
@<TRIPOS>BOND
     1     9     8    2
     2    14     7    1
     3     8     7    1
     4     7     6    2
     5    13     5    1
     6     6     5    1
     7     5     1    1
     8     5     4    1
     9     1     2    1
    10    12     4    1
    11     4     3    2
    12     2     3    1
    13     2    10    2
    14     3    11    1
