@<TRIPOS>MOLECULE
2vba_P4T_A_1.pdb
 16 17 0 0 0
SMALL
GASTEIGER

@<TRIPOS>ATOM
      1  N7        41.8960   69.6860   64.7120 N.2   1405  P4T1405    -0.3864
      2  C8        40.5730   69.9040   64.5970 C.2   1405  P4T1405     0.2305
      3  N9        39.5920   69.0510   65.0340 N.pl3 1405  P4T1405    -0.1782
      4  C5        42.6290   70.7010   64.1770 C.2   1405  P4T1405     0.1065
      5  C4        41.7210   71.7270   63.5900 C.3   1405  P4T1405     0.1604
      6  C3        42.0220   73.0310   62.8980 C.2   1405  P4T1405     0.1675
      7  C6        44.1270   70.7420   64.1830 C.3   1405  P4T1405     0.0629
      8  C10       39.6590   67.8230   65.7050 C.ar  1405  P4T1405     0.0736
      9  C16       38.5050   67.3760   66.3720 C.ar  1405  P4T1405     0.0166
     10  C15       38.5070   66.1550   67.0750 C.ar  1405  P4T1405     0.0013
     11  C14       39.6590   65.3730   67.0820 C.ar  1405  P4T1405     0.0001
     12  C13       40.7940   65.8160   66.4030 C.ar  1405  P4T1405     0.0013
     13  C12       40.8070   67.0340   65.7090 C.ar  1405  P4T1405     0.0166
     14  S4        40.0450   71.3360   63.7750 S.3   1405  P4T1405    -0.0518
     15  C2        43.4480   73.4440   62.7320 C.3   1405  P4T1405     0.0736
     16  O8        41.1070   73.7350   62.4680 O.2   1405  P4T1405    -0.2947
@<TRIPOS>BOND
     1    16     6    2
     2    15     6    1
     3     6     5    1
     4     5    14    1
     5     5     4    1
     6    14     2    1
     7     4     7    1
     8     4     1    2
     9     2     1    2
    10     2     3    1
    11     3     8    1
    12     8    13   ar
    13     8     9   ar
    14    13    12   ar
    15     9    10   ar
    16    12    11   ar
    17    10    11   ar
