@<TRIPOS>MOLECULE
2vbb_VAZ_A_1.pdb
 26 25 0 0 0
SMALL
GASTEIGER

@<TRIPOS>ATOM
      1  SAQ        5.9840   39.3310    2.2180 S.3   1332  VAZ1332    -0.1037
      2  CAY        7.0190   37.8610    2.8940 C.3   1332  VAZ1332     0.2506
      3  OAJ        7.1690   36.6020    2.2210 O.3   1332  VAZ1332    -0.2065
      4  CAZ        6.8340   37.3590    4.2970 C.3   1332  VAZ1332     0.3108
      5  CAU        5.4650   37.2690    5.0840 C.2   1332  VAZ1332     0.4077
      6  OAI        5.4380   38.0050    6.1360 O.co2 1332  VAZ1332    -0.2415
      7  OAE        4.4730   36.5400    4.6790 O.co2 1332  VAZ1332    -0.2415
      8  OAP        7.6060   38.4610    4.8080 O.3   1332  VAZ1332    -0.4356
      9  CAV        8.9100   38.2590    4.7590 C.2   1332  VAZ1332     0.3385
     10  OAF        9.4340   37.2410    4.6830 O.2   1332  VAZ1332    -0.2481
     11  CAX        9.7110   39.5360    4.8320 C.3   1332  VAZ1332     0.2077
     12  CAN        9.4110   40.5400    3.7210 C.3   1332  VAZ1332     0.1382
     13  SAR        9.4720   39.7090    2.1170 S.3   1332  VAZ1332     0.1238
     14  OAG        8.2530   39.1780    2.2940 O.2   1332  VAZ1332    -0.2428
     15  NAO       11.1240   39.2700    4.6570 N.am  1332  VAZ1332    -0.1947
     16  CAS       12.0330   39.4590    5.6010 C.2   1332  VAZ1332     0.2418
     17  OAC       11.6930   39.7370    6.7790 O.2   1332  VAZ1332    -0.2733
     18  CAL       13.3960   39.0590    5.2360 C.3   1332  VAZ1332     0.0869
     19  CAK       13.7790   37.7130    5.8890 C.3   1332  VAZ1332     0.0117
     20  CB        15.2420   37.4040    5.4100 C.3   1332  VAZ1332     0.0311
     21  CA        15.9030   36.3390    6.1490 C.3   1332  VAZ1332     0.1943
     22  C         17.3200   36.1930    5.6160 C.2   1332  VAZ1332     0.3819
     23  OXT       18.2370   36.3950    6.4070 O.co2 1332  VAZ1332    -0.2441
     24  O         17.4870   35.8360    4.4480 O.co2 1332  VAZ1332    -0.2441
     25  N         15.8930   36.4640    7.5830 N.3   1332  VAZ1332    -0.1208
     26  CAA        4.6580   38.4040    1.2800 C.3   1332  VAZ1332     0.0718
@<TRIPOS>BOND
     1    26     1    1
     2    13    14    2
     3    13    12    1
     4     1     2    1
     5     3     2    1
     6     2     4    1
     7    12    11    1
     8     4     8    1
     9     4     5    1
    10    24    22   ar
    11    15    11    1
    12    15    16   am
    13     7     5   ar
    14    10     9    2
    15     9     8    1
    16     9    11    1
    17     5     6   ar
    18    18    16    1
    19    18    19    1
    20    20    19    1
    21    20    21    1
    22    16    17    2
    23    22    21    1
    24    22    23   ar
    25    21    25    1
