@<TRIPOS>MOLECULE
2vbd_V10_A_1.pdb
 24 23 0 0 0
SMALL
GASTEIGER

@<TRIPOS>ATOM
      1  O         18.2700   36.3540    6.3650 O.co2 1333  V101333    -0.2441
      2  C         17.2820   36.2440    5.5770 C.2   1333  V101333     0.3819
      3  OXT       17.3780   35.9620    4.3610 O.co2 1333  V101333    -0.2441
      4  CA        15.8720   36.4190    6.0700 C.3   1333  V101333     0.1943
      5  N         15.7330   36.4790    7.5280 N.3   1333  V101333    -0.1208
      6  CB        15.3040   37.6740    5.4010 C.3   1333  V101333     0.0311
      7  CAJ       13.8720   37.9380    5.9590 C.3   1333  V101333     0.0117
      8  CAL       13.3720   39.2310    5.3310 C.3   1333  V101333     0.0869
      9  CAT       12.0080   39.6730    5.7290 C.2   1333  V101333     0.2418
     10  OAE       11.7470   40.0200    6.8800 O.2   1333  V101333    -0.2733
     11  NAO       11.0950   39.6690    4.7520 N.am  1333  V101333    -0.1948
     12  CAW        9.7440   40.1290    5.1430 C.3   1333  V101333     0.2050
     13  CAK        9.1330   40.7910    3.9150 C.3   1333  V101333     0.1017
     14  SAI        9.3020   39.7380    2.4410 S.3   1333  V101333    -0.0797
     15  CAU        8.9190   38.9770    5.6160 C.2   1333  V101333     0.3383
     16  OAF        9.3660   37.8580    5.8310 O.2   1333  V101333    -0.2481
     17  OAP        7.5520   39.3000    5.8070 O.3   1333  V101333    -0.4384
     18  CAX        6.6860   38.3860    6.4180 C.3   1333  V101333     0.2812
     19  CAS        5.5880   38.0840    5.4510 C.2   1333  V101333     0.4051
     20  OAD        4.6010   37.4040    5.8570 O.co2 1333  V101333    -0.2416
     21  OAH        5.7220   38.5350    4.2910 O.co2 1333  V101333    -0.2416
     22  CAN        6.0980   39.1220    7.6020 C.3   1333  V101333     0.1130
     23  SAQ        7.2020   39.2320    8.9380 S.3   1333  V101333    -0.1349
     24  CAA        7.9640   37.6230    9.2140 C.3   1333  V101333     0.0693
@<TRIPOS>BOND
     1    14    13    1
     2    13    12    1
     3    21    19   ar
     4     3     2   ar
     5    11    12    1
     6    11     9   am
     7    12    15    1
     8     8     9    1
     9     8     7    1
    10     6     7    1
    11     6     4    1
    12    19    20   ar
    13    19    18    1
    14     2     4    1
    15     2     1   ar
    16    15    17    1
    17    15    16    2
    18     9    10    2
    19    17    18    1
    20     4     5    1
    21    18    22    1
    22    22    23    1
    23    23    24    1
