@<TRIPOS>MOLECULE
2vbf_TPP_B_1.pdb
 26 27 0 0 0
SMALL
GASTEIGER

@<TRIPOS>ATOM
      1  N1'       20.5310  107.7700    9.6500 N.2   1549  TPP1549    -0.1861
      2  C2'       21.5030  108.2460   10.5030 C.1   1549  TPP1549     0.0663
      3  CM2       21.8690  107.4590   11.7210 C.3   1549  TPP1549     0.1291
      4  N3'       22.1200  109.4270   10.2090 N.2   1549  TPP1549    -0.3368
      5  C4'       21.7770  110.1530    9.0820 C.2   1549  TPP1549     0.2292
      6  N4'       22.4530  111.2720    8.8520 N.pl3 1549  TPP1549    -0.0925
      7  C5'       20.7730  109.6900    8.2200 C.2   1549  TPP1549     0.0654
      8  C6'       20.1500  108.4840    8.5280 C.2   1549  TPP1549     0.1115
      9  C7'       20.3610  110.4940    6.9830 C.3   1549  TPP1549     0.1237
     10  N3        19.6850  111.7530    7.3180 N.pl3 1549  TPP1549    -0.2970
     11  C2        20.2830  113.0070    7.4050 C.3   1549  TPP1549     0.1543
     12  S1        19.3090  114.2410    7.7950 S.3   1549  TPP1549    -0.0951
     13  C5        18.0620  113.2170    7.8560 C.2   1549  TPP1549     0.0164
     14  C4        18.3590  111.8810    7.5710 C.2   1549  TPP1549     0.0279
     15  CM4       17.3730  110.7410    7.5560 C.3   1549  TPP1549     0.0473
     16  C6        16.7200  113.8130    8.1810 C.3   1549  TPP1549     0.0661
     17  C7        16.6270  114.4360    9.5710 C.3   1549  TPP1549     0.1544
     18  O7        15.2730  114.8380    9.6970 O.3   1549  TPP1549    -0.3134
     19  PA        14.7750  115.8590   10.8410 P.3   1549  TPP1549     0.2230
     20  O1A       15.4660  115.4320   12.1270 O.3   1549  TPP1549    -0.4370
     21  O2A       13.2720  115.7420   10.9140 O.2   1549  TPP1549    -0.5169
     22  O3A       15.3480  117.2830   10.3980 O.3   1549  TPP1549    -0.2261
     23  PB        14.6120  118.4320    9.5150 P.3   1549  TPP1549     0.5373
     24  O1B       15.4980  118.6450    8.3250 O.2   1549  TPP1549    -0.2221
     25  O2B       14.5290  119.6490   10.3840 O.3   1549  TPP1549    -0.1143
     26  O3B       13.2350  117.9380    9.1640 O.3   1549  TPP1549    -0.1143
@<TRIPOS>BOND
     1     9    10    1
     2     9     7    1
     3    10    11    1
     4    10    14    1
     5    11    12    1
     6    15    14    1
     7    14    13    2
     8    12    13    1
     9    13    16    1
    10    16    17    1
    11     7     8    2
    12     7     5    1
    13    24    23    2
    14     8     1    1
    15     6     5    1
    16     5     4    2
    17    26    23    1
    18    23    25    1
    19    23    22    1
    20    17    18    1
    21     1     2    2
    22    18    19    1
    23     4     2    2
    24    22    19    1
    25     2     3    1
    26    19    21    2
    27    19    20    1
