@<TRIPOS>MOLECULE
2vbg_R1T_A_1.pdb
 29 30 0 0 0
SMALL
GASTEIGER

@<TRIPOS>ATOM
      1  N1'       22.4410   13.2990  -26.6190 N.2   1549  R1T1549    -0.1862
      2  C2'       21.9610   13.9830  -25.5720 C.1   1549  R1T1549     0.0663
      3  CM2       21.8100   13.2970  -24.2220 C.3   1549  R1T1549     0.1291
      4  N3'       21.6110   15.2700  -25.7160 N.2   1549  R1T1549    -0.3369
      5  C4'       21.7340   15.8870  -26.9110 C.2   1549  R1T1549     0.2279
      6  N4'       21.3790   17.1440  -27.0130 N.pl3 1549  R1T1549    -0.0925
      7  C5'       22.2330   15.2020  -28.0260 C.2   1549  R1T1549     0.0499
      8  C6'       22.5950   13.8740  -27.8140 C.2   1549  R1T1549     0.1102
      9  C7'       22.4410   15.7900  -29.4360 C.3   1549  R1T1549     0.0583
     10  C3        21.1780   16.3010  -30.0050 C.ar  1549  R1T1549    -0.0170
     11  C2        20.8400   17.6790  -30.0100 C.ar  1549  R1T1549     0.0330
     12  S1        19.1990   17.7860  -30.7830 S.2   1549  R1T1549    -0.0937
     13  C5        18.9910   16.0360  -31.1180 C.ar  1549  R1T1549     0.0053
     14  C4        20.1430   15.3670  -30.6380 C.ar  1549  R1T1549    -0.0232
     15  CM4       20.3780   13.8610  -30.7330 C.3   1549  R1T1549     0.0309
     16  C6        17.7700   15.4650  -31.8260 C.3   1549  R1T1549     0.0651
     17  C7        16.4680   15.7250  -31.0930 C.3   1549  R1T1549     0.1543
     18  O7        15.4770   15.1830  -31.9370 O.3   1549  R1T1549    -0.3134
     19  PA        13.9360   15.1160  -31.5770 P.3   1549  R1T1549     0.2230
     20  O1A       13.3310   14.0790  -32.4900 O.2   1549  R1T1549    -0.5169
     21  O2A       13.7240   14.9650  -30.0990 O.3   1549  R1T1549    -0.4370
     22  O3A       13.3990   16.5930  -31.9440 O.3   1549  R1T1549    -0.2261
     23  PB        12.8930   17.2080  -33.3780 P.3   1549  R1T1549     0.5373
     24  O1B       12.7860   16.1200  -34.4300 O.2   1549  R1T1549    -0.2221
     25  O2B       13.8170   18.3170  -33.7960 O.3   1549  R1T1549    -0.1143
     26  O3B       11.5020   17.7210  -33.0970 O.3   1549  R1T1549    -0.1143
     27  CP1       21.7780   18.8860  -30.0920 C.3   1549  R1T1549     0.1799
     28  CP2       21.5650   19.9260  -31.2110 C.3   1549  R1T1549     0.0410
     29  OP1       21.4950   19.4670  -28.8260 O.3   1549  R1T1549    -0.2178
@<TRIPOS>BOND
     1    24    23    2
     2    25    23    1
     3    23    26    1
     4    23    22    1
     5    20    19    2
     6    22    19    1
     7    18    19    1
     8    18    17    1
     9    16    13    1
    10    16    17    1
    11    19    21    1
    12    28    27    1
    13    13    12   ar
    14    13    14   ar
    15    12    11   ar
    16    15    14    1
    17    14    10   ar
    18    27    11    1
    19    27    29    1
    20    11    10   ar
    21    10     9    1
    22     9     7    1
    23     7     8    2
    24     7     5    1
    25     8     1    1
    26     6     5    1
    27     5     4    2
    28     1     2    2
    29     4     2    2
    30     2     3    1
