@<TRIPOS>MOLECULE
2vbi_TPP_A_1.pdb
 26 27 0 0 0
SMALL
GASTEIGER

@<TRIPOS>ATOM
      1  N1'      -42.6760  -21.4150   -5.4940 N.2   2000  TPP2000    -0.1861
      2  C2'      -43.8150  -20.7540   -5.9170 C.1   2000  TPP2000     0.0663
      3  CM2      -44.1670  -19.4330   -5.3090 C.3   2000  TPP2000     0.1291
      4  N3'      -44.6310  -21.3060   -6.8930 N.2   2000  TPP2000    -0.3368
      5  C4'      -44.3000  -22.5270   -7.4460 C.2   2000  TPP2000     0.2292
      6  N4'      -45.0920  -23.0210   -8.3880 N.pl3 2000  TPP2000    -0.0925
      7  C5'      -43.1490  -23.2050   -7.0220 C.2   2000  TPP2000     0.0654
      8  C6'      -42.3400  -22.6360   -6.0420 C.2   2000  TPP2000     0.1115
      9  C7'      -42.7340  -24.5450   -7.5930 C.3   2000  TPP2000     0.1237
     10  N3       -43.7090  -25.5740   -7.3110 N.pl3 2000  TPP2000    -0.2970
     11  C2       -44.6290  -25.9950   -8.2480 C.3   2000  TPP2000     0.1543
     12  S1       -45.6110  -27.1320   -7.6980 S.3   2000  TPP2000    -0.0951
     13  C5       -44.9180  -27.1540   -6.2580 C.2   2000  TPP2000     0.0164
     14  C4       -43.8620  -26.2560   -6.1360 C.2   2000  TPP2000     0.0279
     15  CM4      -43.0500  -26.0880   -4.8800 C.3   2000  TPP2000     0.0473
     16  C6       -45.4940  -28.1570   -5.2900 C.3   2000  TPP2000     0.0661
     17  C7       -46.8790  -27.8470   -4.7320 C.3   2000  TPP2000     0.1544
     18  O7       -47.1980  -28.8920   -3.8300 O.3   2000  TPP2000    -0.3134
     19  PA       -48.6600  -29.1300   -3.1740 P.3   2000  TPP2000     0.2230
     20  O1A      -48.4820  -29.9170   -1.9010 O.3   2000  TPP2000    -0.4370
     21  O2A      -49.3590  -27.8290   -2.8690 O.2   2000  TPP2000    -0.5169
     22  O3A      -49.5190  -29.9820   -4.2310 O.3   2000  TPP2000    -0.2261
     23  PB       -49.2580  -31.5460   -4.5260 P.3   2000  TPP2000     0.5373
     24  O1B      -48.1760  -31.7420   -5.5720 O.2   2000  TPP2000    -0.2221
     25  O2B      -50.5570  -32.1300   -5.0510 O.3   2000  TPP2000    -0.1143
     26  O3B      -48.8280  -32.2860   -3.2800 O.3   2000  TPP2000    -0.1143
@<TRIPOS>BOND
     1     6     5    1
     2    11    12    1
     3    11    10    1
     4    12    13    1
     5     9    10    1
     6     9     7    1
     7     5     7    1
     8     5     4    2
     9    10    14    1
    10     7     8    2
    11     4     2    2
    12    13    14    2
    13    13    16    1
    14    14    15    1
    15     8     1    1
    16     2     1    2
    17     2     3    1
    18    24    23    2
    19    16    17    1
    20    25    23    1
    21    17    18    1
    22    23    22    1
    23    23    26    1
    24    22    19    1
    25    18    19    1
    26    19    21    2
    27    19    20    1
