@<TRIPOS>MOLECULE
2vbp_VB1_A_1.pdb
 23 22 0 0 0
SMALL
GASTEIGER

@<TRIPOS>ATOM
      1  C1         5.9780    3.9320    8.3990 C.2   1333  VB11333     0.3819
      2  C2         6.8780    2.7960    8.9520 C.3   1333  VB11333     0.1943
      3  C3         6.1970    1.5600    8.3190 C.3   1333  VB11333     0.0311
      4  CAV       11.1070   -5.4100    9.3810 C.3   1333  VB11333     0.1978
      5  C4         6.8740    0.2690    8.8150 C.3   1333  VB11333     0.0117
      6  C7         6.1330   -0.8790    8.1330 C.3   1333  VB11333     0.0869
      7  C10        6.6860   -2.2100    8.6290 C.2   1333  VB11333     0.2418
      8  N11        7.1990   -2.9660    7.7060 N.am  1333  VB11333    -0.1968
      9  C12        7.7430   -4.3220    8.0670 C.3   1333  VB11333     0.1843
     10  C13        9.1590   -4.1930    8.5450 C.2   1333  VB11333     0.2626
     11  N14        6.8300    2.7570   10.4430 N.3   1333  VB11333    -0.1208
     12  O15        6.7090   -2.5690    9.8060 O.2   1333  VB11333    -0.2733
     13  C16        7.7630   -5.1930    6.7970 C.3   1333  VB11333     0.0997
     14  S17        8.5130   -4.3630    5.3210 S.3   1333  VB11333    -0.0797
     15  O18        9.7440   -3.1220    8.5880 O.2   1333  VB11333    -0.2714
     16  O19        6.0360    4.2020    7.1690 O.co2 1333  VB11333    -0.2441
     17  O20        5.3010    4.5110    9.2920 O.co2 1333  VB11333    -0.2441
     18  N29        9.7300   -5.3640    8.9040 N.am  1333  VB11333    -0.1941
     19  C31       11.9950   -6.1700    8.3290 C.2   1333  VB11333     0.3842
     20  C32       10.6780   -4.8500   11.8550 C.3   1333  VB11333     0.0024
     21  C33       11.1650   -5.9030   10.8480 C.3   1333  VB11333     0.0333
     22  O42       11.3990   -6.5100    7.2590 O.co2 1333  VB11333    -0.2437
     23  O43       13.2330   -6.3390    8.5510 O.co2 1333  VB11333    -0.2437
@<TRIPOS>BOND
     1    14    13    1
     2    13     9    1
     3    16     1   ar
     4    22    19   ar
     5     8     9    1
     6     8     7   am
     7     9    10    1
     8     6     7    1
     9     6     5    1
    10     3     5    1
    11     3     2    1
    12    19    23   ar
    13    19     4    1
    14     1     2    1
    15     1    17   ar
    16    10    15    2
    17    10    18   am
    18     7    12    2
    19    18     4    1
    20     2    11    1
    21     4    21    1
    22    21    20    1
