@<TRIPOS>MOLECULE
2vbt_CDP_A_1.pdb
 25 26 0 0 0
SMALL
GASTEIGER

@<TRIPOS>ATOM
      1  O3B      -33.2540    8.4110   -4.6020 O.3   1137  CDP1137    -0.1143
      2  PB       -33.0230    7.0360   -4.1720 P.3   1137  CDP1137     0.5373
      3  O1B      -32.1140    6.3420   -5.0850 O.2   1137  CDP1137    -0.2221
      4  O2B      -34.1970    6.2760   -3.7150 O.3   1137  CDP1137    -0.1143
      5  O3A      -32.2160    7.1670   -2.8100 O.3   1137  CDP1137    -0.2261
      6  PA       -32.5800    8.0620   -1.5360 P.3   1137  CDP1137     0.2231
      7  O1A      -33.0490    7.1710   -0.4710 O.3   1137  CDP1137    -0.4370
      8  O2A      -33.3890    9.2270   -1.8840 O.2   1137  CDP1137    -0.5169
      9  O5'      -31.2050    8.6680   -1.1150 O.3   1137  CDP1137    -0.3111
     10  C5'      -30.9740   10.0330   -1.3420 C.3   1137  CDP1137     0.1813
     11  C4'      -29.9460   10.1970   -2.4350 C.3   1137  CDP1137     0.1799
     12  O4'      -28.6680   10.0280   -1.8820 O.3   1137  CDP1137    -0.3320
     13  C3'      -30.0900    9.1180   -3.4620 C.3   1137  CDP1137     0.2158
     14  O3'      -29.8180    9.7190   -4.7130 O.3   1137  CDP1137    -0.2175
     15  C2'      -28.9660    8.1680   -3.2020 C.3   1137  CDP1137     0.2319
     16  O2'      -28.5270    7.6990   -4.4620 O.3   1137  CDP1137    -0.2157
     17  C1'      -27.9260    9.0610   -2.5860 C.3   1137  CDP1137     0.2400
     18  N1       -27.1990    8.3590   -1.5630 N.am  1137  CDP1137    -0.1778
     19  C2       -25.8270    8.2590   -1.5720 C.1   1137  CDP1137     0.2756
     20  O2       -25.1870    8.7690   -2.4760 O.2   1137  CDP1137    -0.1925
     21  N3       -25.1850    7.6180   -0.6120 N.2   1137  CDP1137    -0.3024
     22  C4       -25.8720    7.0750    0.3770 C.2   1137  CDP1137     0.2346
     23  N4       -25.2470    6.4280    1.3540 N.pl3 1137  CDP1137    -0.0921
     24  C5       -27.2230    7.1650    0.4100 C.2   1137  CDP1137     0.0687
     25  C6       -27.8820    7.8280   -0.5860 C.2   1137  CDP1137     0.0836
@<TRIPOS>BOND
     1     3     2    2
     2    14    13    1
     3     1     2    1
     4    16    15    1
     5     2     4    1
     6     2     5    1
     7    13    15    1
     8    13    11    1
     9    15    17    1
    10     5     6    1
    11    17    12    1
    12    17    18    1
    13    20    19    2
    14    11    12    1
    15    11    10    1
    16     8     6    2
    17    19    18   am
    18    19    21    2
    19    18    25    1
    20     6     9    1
    21     6     7    1
    22    10     9    1
    23    21    22    2
    24    25    24    2
    25    22    24    1
    26    22    23    1
