@<TRIPOS>MOLECULE
2vbu_CDP_A_1.pdb
 25 26 0 0 0
SMALL
GASTEIGER

@<TRIPOS>ATOM
      1  O3B       -8.6970    3.0300   -4.2860 O.3   1133  CDP1133    -0.1143
      2  PB        -9.2710    3.1980   -5.6770 P.3   1133  CDP1133     0.5373
      3  O1B       -9.6480    4.6140   -6.0120 O.3   1133  CDP1133    -0.1143
      4  O2B      -10.3670    2.2090   -6.0250 O.2   1133  CDP1133    -0.2221
      5  O3A       -8.0770    2.9050   -6.7320 O.3   1133  CDP1133    -0.2261
      6  PA        -7.4920    1.5080   -7.2230 P.3   1133  CDP1133     0.2231
      7  O1A       -8.2960    0.3890   -6.6540 O.3   1133  CDP1133    -0.4370
      8  O2A       -6.0330    1.4390   -6.9430 O.2   1133  CDP1133    -0.5169
      9  O5'       -7.7210    1.4950   -8.8130 O.3   1133  CDP1133    -0.3111
     10  C5'       -7.0690    2.4690   -9.6330 C.3   1133  CDP1133     0.1813
     11  C4'       -8.0850    3.1960  -10.5050 C.3   1133  CDP1133     0.1799
     12  O4'       -8.6930    2.3180  -11.4560 O.3   1133  CDP1133    -0.3320
     13  C3'       -9.2380    3.7730   -9.7020 C.3   1133  CDP1133     0.2158
     14  O3'       -9.6220    5.0220  -10.3110 O.3   1133  CDP1133    -0.2175
     15  C2'      -10.3410    2.7370   -9.8660 C.3   1133  CDP1133     0.2319
     16  O2'      -11.6810    3.2110   -9.7920 O.3   1133  CDP1133    -0.2157
     17  C1'      -10.1430    2.3180  -11.2790 C.3   1133  CDP1133     0.2400
     18  N1       -10.4600    0.9920  -11.7540 N.am  1133  CDP1133    -0.1778
     19  C2       -11.1150    0.8800  -13.0020 C.1   1133  CDP1133     0.2756
     20  O2       -11.5520    1.8870  -13.5950 O.2   1133  CDP1133    -0.1925
     21  N3       -11.3240   -0.3280  -13.5380 N.2   1133  CDP1133    -0.3024
     22  C4       -10.8540   -1.4120  -12.9240 C.2   1133  CDP1133     0.2346
     23  N4       -11.0270   -2.6050  -13.4740 N.pl3 1133  CDP1133    -0.0921
     24  C5       -10.1970   -1.3260  -11.7110 C.2   1133  CDP1133     0.0687
     25  C6       -10.0000   -0.1110  -11.1300 C.2   1133  CDP1133     0.0836
@<TRIPOS>BOND
     1    20    19    2
     2    21    19    2
     3    21    22    2
     4    23    22    1
     5    19    18   am
     6    22    24    1
     7    18    17    1
     8    18    25    1
     9    24    25    2
    10    12    17    1
    11    12    11    1
    12    17    15    1
    13    11    13    1
    14    11    10    1
    15    14    13    1
    16    15    16    1
    17    15    13    1
    18    10     9    1
    19     9     6    1
    20     6     8    2
    21     6     5    1
    22     6     7    1
    23     5     2    1
    24     4     2    2
    25     3     2    1
    26     2     1    1
