@<TRIPOS>MOLECULE
2vbv_CDP_A_1.pdb
 25 26 0 0 0
SMALL
GASTEIGER

@<TRIPOS>ATOM
      1  O3B      -16.2810  -11.3780    5.6480 O.3   1135  CDP1135    -0.1143
      2  PB       -15.6150  -10.0740    5.9420 P.3   1135  CDP1135     0.5373
      3  O1B      -15.9460   -9.4610    7.2830 O.3   1135  CDP1135    -0.1143
      4  O2B      -15.7400   -9.0630    4.8260 O.2   1135  CDP1135    -0.2221
      5  O3A      -14.1020  -10.4440    6.0050 O.3   1135  CDP1135    -0.2261
      6  PA       -13.0740  -10.0870    4.8270 P.3   1135  CDP1135     0.2231
      7  O1A      -13.8410   -9.7220    3.5690 O.2   1135  CDP1135    -0.5169
      8  O2A      -12.0020  -11.0900    4.8380 O.3   1135  CDP1135    -0.4370
      9  O5'      -12.3360   -8.7360    5.2640 O.3   1135  CDP1135    -0.3111
     10  C5'      -11.3670   -8.6690    6.3030 C.3   1135  CDP1135     0.1813
     11  C4'      -11.8200   -7.5800    7.2130 C.3   1135  CDP1135     0.1799
     12  O4'      -11.4090   -6.4350    6.5830 O.3   1135  CDP1135    -0.3320
     13  C3'      -13.3190   -7.3890    7.2740 C.3   1135  CDP1135     0.2158
     14  O3'      -13.5920   -6.7850    8.5420 O.3   1135  CDP1135    -0.2175
     15  C2'      -13.6830   -6.3960    6.1670 C.3   1135  CDP1135     0.2319
     16  O2'      -14.9320   -5.7050    6.4300 O.3   1135  CDP1135    -0.2157
     17  C1'      -12.4790   -5.5240    6.2860 C.3   1135  CDP1135     0.2400
     18  N1       -11.9270   -4.8640    5.1350 N.am  1135  CDP1135    -0.1778
     19  C2       -11.5740   -3.5350    5.2310 C.1   1135  CDP1135     0.2756
     20  O2       -11.8370   -2.9580    6.2840 O.2   1135  CDP1135    -0.1925
     21  N3       -11.0140   -2.8890    4.1870 N.2   1135  CDP1135    -0.3024
     22  C4       -10.7190   -3.5510    3.0700 C.2   1135  CDP1135     0.2346
     23  N4       -10.1530   -2.9310    2.0410 N.pl3 1135  CDP1135    -0.0921
     24  C5       -11.0280   -4.8710    2.9620 C.2   1135  CDP1135     0.0687
     25  C6       -11.6140   -5.5180    4.0280 C.2   1135  CDP1135     0.0836
@<TRIPOS>BOND
     1    23    22    1
     2    24    22    1
     3    24    25    2
     4    22    21    2
     5     7     6    2
     6    25    18    1
     7    21    19    2
     8     4     2    2
     9     6     8    1
    10     6     9    1
    11     6     5    1
    12    18    19   am
    13    18    17    1
    14    19    20    2
    15     9    10    1
    16     1     2    1
    17     2     5    1
    18     2     3    1
    19    15    17    1
    20    15    16    1
    21    15    13    1
    22    17    12    1
    23    10    11    1
    24    12    11    1
    25    11    13    1
    26    13    14    1
