@<TRIPOS>MOLECULE
2vbv_FMN_A_1.pdb
 31 33 0 0 0
SMALL
GASTEIGER

@<TRIPOS>ATOM
      1  N1       -15.3680  -18.3690   -4.1720 N.2   1140  FMN1140    -0.2887
      2  C2       -15.2280  -19.6170   -4.7300 C.1   1140  FMN1140     0.3669
      3  O2       -16.0230  -20.4910   -4.3700 O.2   1140  FMN1140    -0.1744
      4  N3       -14.2420  -19.8740   -5.6660 N.2   1140  FMN1140    -0.2300
      5  C4       -13.4080  -18.8160   -6.0390 C.1   1140  FMN1140     0.2513
      6  O4       -12.5690  -18.9510   -6.9280 O.2   1140  FMN1140    -0.2057
      7  C4A      -13.5370  -17.5590   -5.4670 C.2   1140  FMN1140     0.2706
      8  N5       -12.6670  -16.5270   -5.8410 N.2   1140  FMN1140    -0.3841
      9  C5A      -12.8200  -15.2860   -5.2360 C.2   1140  FMN1140     0.1452
     10  C6       -11.9510  -14.2700   -5.5790 C.2   1140  FMN1140     0.0252
     11  C7       -12.0790  -13.0360   -5.0070 C.2   1140  FMN1140    -0.0375
     12  C7M      -11.0900  -11.9840   -5.4040 C.3   1140  FMN1140     0.0268
     13  C8       -13.0770  -12.8020   -4.0430 C.3   1140  FMN1140     0.0417
     14  C8M      -13.1040  -11.5650   -3.1490 C.3   1140  FMN1140     0.0091
     15  C9       -13.9410  -13.8260   -3.6770 C.2   1140  FMN1140    -0.0049
     16  C9A      -13.8250  -15.0780   -4.2720 C.2   1140  FMN1140     0.0795
     17  N10      -14.6920  -16.0960   -3.9380 N.pl3 1140  FMN1140    -0.2545
     18  C10      -14.5330  -17.3340   -4.5290 C.2   1140  FMN1140     0.2449
     19  C1'      -15.9310  -15.8290   -3.1280 C.3   1140  FMN1140     0.1336
     20  C2'      -15.7580  -16.3700   -1.7060 C.3   1140  FMN1140     0.2048
     21  O2'      -15.7140  -17.7980   -1.7340 O.3   1140  FMN1140    -0.2185
     22  C3'      -16.9090  -16.0260   -0.7840 C.3   1140  FMN1140     0.2165
     23  O3'      -18.1310  -16.2920   -1.4060 O.3   1140  FMN1140    -0.2175
     24  C4'      -16.9820  -14.5780   -0.3780 C.3   1140  FMN1140     0.2147
     25  O4'      -17.0420  -13.7280   -1.5070 O.3   1140  FMN1140    -0.2176
     26  C5'      -15.7770  -14.2220    0.4770 C.3   1140  FMN1140     0.1892
     27  O5'      -15.9230  -12.9400    1.0330 O.3   1140  FMN1140    -0.2674
     28  P        -16.6000  -12.7090    2.4820 P.3   1140  FMN1140     0.5327
     29  O1P      -16.2780  -11.2420    2.6910 O.3   1140  FMN1140    -0.1145
     30  O2P      -18.0840  -12.8450    2.4480 O.2   1140  FMN1140    -0.2224
     31  O3P      -16.0280  -13.6230    3.5650 O.3   1140  FMN1140    -0.1145
@<TRIPOS>BOND
     1     6     5    2
     2     5     4    2
     3     5     7    1
     4     8     7    2
     5     8     9    2
     6     4     2    2
     7    10     9    1
     8    10    11    2
     9     7    18    1
    10    12    11    1
    11     9    16    1
    12    11    13    1
    13     2     3    2
    14     2     1    2
    15    18     1    2
    16    18    17    1
    17    16    17    1
    18    16    15    2
    19    13    15    1
    20    13    14    1
    21    17    19    1
    22    19    20    1
    23    21    20    1
    24    20    22    1
    25    25    24    1
    26    23    22    1
    27    22    24    1
    28    24    26    1
    29    26    27    1
    30    27    28    1
    31    30    28    2
    32    28    29    1
    33    28    31    1
