@<TRIPOS>MOLECULE
2vbw_PHE_A_1.pdb
 12 12 0 0 0
SMALL
GASTEIGER

@<TRIPOS>ATOM
      1  N          2.7980   14.3290    0.8380 N.3   1153  PHE1153    -0.1205
      2  CA         2.8990   15.3850   -0.2160 C.3   1153  PHE1153     0.1986
      3  C          3.8120   14.9180   -1.3570 C.2   1153  PHE1153     0.3822
      4  O          3.8680   15.5710   -2.4020 O.co2 1153  PHE1153    -0.2440
      5  CB         3.4100   16.7360    0.3500 C.3   1153  PHE1153     0.0569
      6  CG         2.4070   17.4570    1.2340 C.ar  1153  PHE1153    -0.0202
      7  CD1        1.2290   18.0150    0.6840 C.ar  1153  PHE1153    -0.0042
      8  CD2        2.6420   17.6000    2.6040 C.ar  1153  PHE1153    -0.0042
      9  CE1        0.2750   18.7050    1.5040 C.ar  1153  PHE1153    -0.0003
     10  CE2        1.7310   18.2460    3.4280 C.ar  1153  PHE1153    -0.0003
     11  CZ         0.5260   18.8280    2.8710 C.ar  1153  PHE1153    -0.0000
     12  OXT        4.4850   13.8600   -1.2810 O.co2 1153  PHE1153    -0.2440
@<TRIPOS>BOND
     1     4     3   ar
     2     3    12   ar
     3     3     2    1
     4     2     5    1
     5     2     1    1
     6     5     6    1
     7     7     6   ar
     8     7     9   ar
     9     6     8   ar
    10     9    11   ar
    11     8    10   ar
    12    11    10   ar
