@<TRIPOS>MOLECULE
2vbx_HIS_A_1.pdb
 11 11 0 0 0
SMALL
GASTEIGER

@<TRIPOS>ATOM
      1  N          2.2240   14.9590    0.8340 N.3   1151  HIS1151    -0.1204
      2  CA         2.8390   15.6920   -0.2920 C.3   1151  HIS1151     0.1999
      3  C          3.8110   14.8210   -1.1410 C.2   1151  HIS1151     0.3822
      4  O          4.3380   13.8090   -0.7160 O.co2 1151  HIS1151    -0.2440
      5  CB         3.5830   16.9240    0.2520 C.3   1151  HIS1151     0.0740
      6  CG         2.8630   17.6440    1.3410 C.2   1151  HIS1151     0.0651
      7  ND1        1.5000   17.8820    1.3050 N.2   1151  HIS1151    -0.2310
      8  CD2        3.3140   18.1810    2.4980 C.3   1151  HIS1151     0.1683
      9  CE1        1.1420   18.5300    2.3990 C.2   1151  HIS1151     0.1939
     10  NE2        2.2230   18.7230    3.1370 N.2   1151  HIS1151    -0.2440
     11  OXT        4.1530   15.0970   -2.2900 O.co2 1151  HIS1151    -0.2440
@<TRIPOS>BOND
     1    11     3   ar
     2     3     4   ar
     3     3     2    1
     4     2     5    1
     5     2     1    1
     6     5     6    1
     7     7     6    2
     8     7     9    1
     9     6     8    1
    10     9    10    2
    11     8    10    1
