@<TRIPOS>MOLECULE
2vby_TYR_A_1.pdb
 13 13 0 0 0
SMALL
GASTEIGER

@<TRIPOS>ATOM
      1  N          2.6250   14.3090    0.6230 N.3   1153  TYR1153    -0.1205
      2  CA         3.1090   15.2280   -0.4550 C.3   1153  TYR1153     0.1986
      3  C          4.0800   14.6570   -1.4720 C.2   1153  TYR1153     0.3822
      4  O          4.8370   13.7220   -1.2560 O.co2 1153  TYR1153    -0.2440
      5  CB         3.7620   16.4760    0.1320 C.3   1153  TYR1153     0.0569
      6  CG         2.8410   17.2650    0.9540 C.ar  1153  TYR1153    -0.0200
      7  CD1        3.2140   17.7060    2.2040 C.ar  1153  TYR1153    -0.0009
      8  CD2        1.5660   17.5380    0.5050 C.ar  1153  TYR1153    -0.0009
      9  CE1        2.3510   18.4310    2.9860 C.ar  1153  TYR1153     0.0417
     10  CE2        0.6880   18.2800    1.2900 C.ar  1153  TYR1153     0.0417
     11  CZ         1.0910   18.7090    2.5230 C.ar  1153  TYR1153     0.1957
     12  OH         0.2010   19.4210    3.2760 O.3   1153  TYR1153    -0.2866
     13  OXT        4.1460   15.2260   -2.5630 O.co2 1153  TYR1153    -0.2440
@<TRIPOS>BOND
     1    13     3   ar
     2     3     4   ar
     3     3     2    1
     4     2     5    1
     5     2     1    1
     6     5     6    1
     7     8     6   ar
     8     8    10   ar
     9     6     7   ar
    10    10    11   ar
    11     7     9   ar
    12    11     9   ar
    13    11    12    1
