@<TRIPOS>MOLECULE
2vbz_TRP_A_1.pdb
 15 16 0 0 0
SMALL
GASTEIGER

@<TRIPOS>ATOM
      1  N          2.6180   14.2100    0.9100 N.3   1151  TRP1151    -0.1205
      2  CA         2.7540   15.2590   -0.1280 C.3   1151  TRP1151     0.1984
      3  C          3.6400   14.7320   -1.2540 C.2   1151  TRP1151     0.3822
      4  O          4.4450   13.8460   -1.0550 O.co2 1151  TRP1151    -0.2440
      5  CB         3.4510   16.4880    0.4330 C.3   1151  TRP1151     0.0549
      6  CG         2.7550   17.2940    1.4380 C.2   1151  TRP1151    -0.0138
      7  CD1        3.3310   17.8820    2.5440 C.2   1151  TRP1151     0.0907
      8  CD2        1.3440   17.6520    1.4710 C.3   1151  TRP1151     0.0819
      9  NE1        2.3850   18.5730    3.2540 N.2   1151  TRP1151    -0.2482
     10  CE2        1.1570   18.4740    2.6310 C.2   1151  TRP1151     0.0665
     11  CE3        0.2080   17.3570    0.6420 C.2   1151  TRP1151    -0.0164
     12  CZ2       -0.1320   19.0450    2.9820 C.2   1151  TRP1151     0.0153
     13  CZ3       -1.1120   17.9220    1.0190 C.2   1151  TRP1151    -0.0038
     14  CH2       -1.2360   18.7490    2.1780 C.2   1151  TRP1151     0.0009
     15  OXT        3.6140   15.2210   -2.3880 O.co2 1151  TRP1151    -0.2440
@<TRIPOS>BOND
     1    15     3   ar
     2     3     4   ar
     3     3     2    1
     4     2     5    1
     5     2     1    1
     6     5     6    1
     7    11    13    2
     8    11     8    1
     9    13    14    1
    10     6     8    1
    11     6     7    2
    12     8    10    1
    13    14    12    2
    14     7     9    1
    15    10    12    1
    16    10     9    2
