@<TRIPOS>MOLECULE
2vc2_180_B_1.pdb
 34 37 0 0 0
SMALL
GASTEIGER

@<TRIPOS>ATOM
      1  O1        96.7460   39.1000   85.0020 O.co2 1477  1801477    -0.2440
      2  C1        97.2660   39.6720   84.0190 C.2   1477  1801477     0.3840
      3  O2        98.1390   40.5580   84.0860 O.co2 1477  1801477    -0.2440
      4  C3        97.5630   37.9860   82.2190 C.3   1477  1801477     0.1463
      5  N1        96.8930   37.3930   81.0590 N.am  1477  1801477    -0.1991
      6  C4        95.7600   36.7110   81.1810 C.2   1477  1801477     0.2709
      7  O3        95.1810   36.5290   82.2510 O.2   1477  1801477    -0.2678
      8  C5        95.1720   36.1530   79.8910 C.ar  1477  1801477     0.0849
      9  C6        95.7940   35.9350   78.7300 C.ar  1477  1801477     0.0121
     10  C7        95.0200   35.4270   77.7330 C.ar  1477  1801477     0.0128
     11  C8        95.1630   35.0540   76.4360 C.ar  1477  1801477     0.0032
     12  C9        94.0710   34.5890   75.8200 C.ar  1477  1801477     0.0078
     13  C10       93.8880   34.0850   74.4000 C.3   1477  1801477     0.0330
     14  C11       93.6240   32.5750   74.4130 C.3   1477  1801477     0.0053
     15  C12       93.8430   31.9930   73.0230 C.3   1477  1801477     0.0032
     16  C13       92.6730   32.3970   72.1190 C.3   1477  1801477     0.0189
     17  C14       92.7420   31.6970   70.7720 C.3   1477  1801477     0.0887
     18  N2        92.7730   30.2520   71.0060 N.3   1477  1801477    -0.2181
     19  C15       94.0390   29.8970   71.6700 C.3   1477  1801477     0.0887
     20  C16       94.0320   30.4770   73.0820 C.3   1477  1801477     0.0189
     21  S1        92.8240   34.6190   76.8890 S.2   1477  1801477    -0.0847
     22  C17       93.6900   35.2360   78.1630 C.ar  1477  1801477     0.0585
     23  S2        93.5970   35.7120   79.7410 S.2   1477  1801477    -0.0758
     24  N3        97.0300   40.2640   81.6010 N.3   1477  1801477    -0.0658
     25  S3        95.6560   40.8670   81.0260 S.O2  1477  1801477     0.0789
     26  O4        95.9150   42.2700   80.5980 O.2   1477  1801477    -0.1515
     27  O5        94.6050   40.8810   82.0880 O.2   1477  1801477    -0.1515
     28  C18       95.0660   39.9900   79.6590 C.ar  1477  1801477     0.1426
     29  C19       93.8030   39.4180   79.6920 C.ar  1477  1801477     0.0231
     30  C20       93.3510   38.7290   78.5710 C.ar  1477  1801477     0.0221
     31  C21       94.1810   38.6390   77.4580 C.ar  1477  1801477     0.0990
     32  N4        95.3810   39.2020   77.4650 N.ar  1477  1801477    -0.2409
     33  C22       95.8390   39.8670   78.5150 C.ar  1477  1801477     0.1188
     34  C2        96.7930   39.2330   82.6250 C.3   1477  1801477     0.2216
@<TRIPOS>BOND
     1    17    18    1
     2    17    16    1
     3    18    19    1
     4    19    20    1
     5    16    15    1
     6    15    20    1
     7    15    14    1
     8    13    14    1
     9    13    12    1
    10    12    11   ar
    11    12    21   ar
    12    11    10   ar
    13    21    22   ar
    14    31    32   ar
    15    31    30   ar
    16    32    33   ar
    17    10    22   ar
    18    10     9   ar
    19    22    23   ar
    20    33    28   ar
    21    30    29   ar
    22     9     8   ar
    23    28    29   ar
    24    28    25    1
    25    23     8   ar
    26     8     6    1
    27    26    25    2
    28    25    24    1
    29    25    27    2
    30     5     6   am
    31     5     4    1
    32     6     7    2
    33    24    34    1
    34     4    34    1
    35    34     2    1
    36     2     3   ar
    37     2     1   ar
