@<TRIPOS>MOLECULE
2vc7_HT5_A_1.pdb
 18 18 0 0 0
SMALL
GASTEIGER

@<TRIPOS>ATOM
      1  O1        16.2390  -18.2480  -10.7330 O.2   1335  HT51335    -0.2733
      2  C10       16.4700  -17.8790  -11.8370 C.2   1335  HT51335     0.2417
      3  N2        17.2520  -16.8250  -12.0570 N.am  1335  HT51335    -0.1987
      4  SD        19.5510  -14.4730  -10.9680 S.3   1335  HT51335    -0.0754
      5  C11       17.7450  -16.2830  -10.8190 C.3   1335  HT51335     0.1635
      6  C12       18.0400  -14.8100  -10.7200 C.2   1335  HT51335     0.2184
      7  O2        17.3430  -13.8940  -10.4630 O.2   1335  HT51335    -0.2827
      8  C13       19.0790  -17.0090  -10.7800 C.3   1335  HT51335     0.0422
      9  C14       20.1830  -16.0730  -11.2340 C.3   1335  HT51335     0.0673
     10  C9        15.8300  -18.6480  -12.9040 C.3   1335  HT51335     0.0868
     11  C2        14.3610  -18.5950  -12.4910 C.3   1335  HT51335     0.0096
     12  C1        14.0640  -19.4780  -11.3010 C.3   1335  HT51335     0.0005
     13  C50       14.3630  -20.9520  -11.5230 C.3   1335  HT51335     0.0000
     14  C8        14.8050  -25.0710  -13.7690 C.3   1335  HT51335     0.0000
     15  C6        13.3340  -24.8520  -13.5360 C.3   1335  HT51335     0.0000
     16  C3        13.9860  -21.4720  -12.9090 C.3   1335  HT51335     0.0000
     17  C4        12.8360  -22.4500  -12.8640 C.3   1335  HT51335     0.0000
     18  C5        12.8580  -23.4760  -13.9820 C.3   1335  HT51335     0.0000
@<TRIPOS>BOND
     1    18    15    1
     2    18    17    1
     3    14    15    1
     4    16    17    1
     5    16    13    1
     6    10    11    1
     7    10     2    1
     8    11    12    1
     9     3     2   am
    10     3     5    1
    11     2     1    2
    12    13    12    1
    13     9     4    1
    14     9     8    1
    15     4     6    1
    16     5     8    1
    17     5     6    1
    18     6     7    2
