@<TRIPOS>MOLECULE
2vc9_NOK_A_1.pdb
 14 14 0 0 0
SMALL
GASTEIGER

@<TRIPOS>ATOM
      1  C8        14.7340   -6.4840    8.8170 C.3   1909  NOK1909     0.0964
      2  C7        15.9560   -5.9140    8.1160 C.2   1909  NOK1909     0.2419
      3  O7        16.2130   -6.2660    6.9700 O.2   1909  NOK1909    -0.2733
      4  N2        16.6820   -5.0530    8.8330 N.am  1909  NOK1909    -0.2030
      5  C2        17.8820   -4.3870    8.3060 C.3   1909  NOK1909     0.1455
      6  C1        17.6880   -2.8710    8.4320 C.3   1909  NOK1909     0.1131
      7  N5        18.8510   -2.1770    7.8300 N.3   1909  NOK1909    -0.2122
      8  C5        20.1760   -2.5420    8.4040 C.3   1909  NOK1909     0.1386
      9  C6        21.2920   -1.9070    7.5630 C.3   1909  NOK1909     0.2020
     10  O6        21.3240   -2.4800    6.2570 O.3   1909  NOK1909    -0.2188
     11  C4        20.3850   -4.0670    8.4870 C.3   1909  NOK1909     0.2023
     12  O4        21.5660   -4.3060    9.2740 O.3   1909  NOK1909    -0.2188
     13  C3        19.1490   -4.8010    9.0610 C.3   1909  NOK1909     0.2047
     14  O3        19.3150   -6.2210    9.0160 O.3   1909  NOK1909    -0.2185
@<TRIPOS>BOND
     1    10     9    1
     2     3     2    2
     3     9     8    1
     4     7     8    1
     5     7     6    1
     6     2     1    1
     7     2     4   am
     8     5     6    1
     9     5     4    1
    10     5    13    1
    11     8    11    1
    12    11    13    1
    13    11    12    1
    14    14    13    1
