@<TRIPOS>MOLECULE
2vca_NAG_A_1.pdb
 15 15 0 0 0
SMALL
GASTEIGER

@<TRIPOS>ATOM
      1  C1       -11.4340  -14.5700    8.7060 C.3   1912  NAG1912     0.2917
      2  C2       -12.6950  -13.7410    8.6210 C.3   1912  NAG1912     0.1871
      3  C3       -13.8090  -14.4270    9.3890 C.3   1912  NAG1912     0.2095
      4  C4       -14.0200  -15.8650    8.9010 C.3   1912  NAG1912     0.2136
      5  C5       -12.6990  -16.6120    8.7880 C.3   1912  NAG1912     0.1835
      6  C6       -12.6950  -17.9640    8.0760 C.3   1912  NAG1912     0.2142
      7  C7       -12.7490  -11.3550    8.4050 C.2   1912  NAG1912     0.2421
      8  C8       -12.4630  -10.0350    9.0420 C.3   1912  NAG1912     0.0964
      9  N2       -12.4640  -12.4050    9.1200 N.am  1912  NAG1912    -0.1991
     10  O1       -10.4520  -14.1550    7.8510 O.3   1912  NAG1912    -0.1879
     11  O3       -14.9810  -13.7130    9.3410 O.3   1912  NAG1912    -0.2183
     12  O4       -14.8420  -16.5850    9.7290 O.3   1912  NAG1912    -0.2176
     13  O5       -11.6130  -15.8870    8.3810 O.3   1912  NAG1912    -0.3242
     14  O6       -12.9800  -17.8770    6.7460 O.3   1912  NAG1912    -0.2176
     15  O7       -13.2000  -11.4000    7.3070 O.2   1912  NAG1912    -0.2733
@<TRIPOS>BOND
     1    14     6    1
     2    15     7    2
     3    10     1    1
     4     6     5    1
     5    13     1    1
     6    13     5    1
     7     7     8    1
     8     7     9   am
     9     2     1    1
    10     2     9    1
    11     2     3    1
    12     5     4    1
    13     4     3    1
    14     4    12    1
    15    11     3    1
