@<TRIPOS>MOLECULE
2vcb_OAN_A_1.pdb
 25 26 0 0 0
SMALL
GASTEIGER

@<TRIPOS>ATOM
      1  CAH       12.3370  -10.0420   -9.0340 C.3   1911  OAN1911     0.0964
      2  CAG       12.6830  -11.3980   -8.4270 C.2   1911  OAN1911     0.2423
      3  OAN       13.4360  -11.4470   -7.4470 O.2   1911  OAN1911    -0.2733
      4  NAI       12.1170  -12.4630   -9.0340 N.am  1911  OAN1911    -0.1948
      5  CAB       12.3560  -13.8500   -8.5660 C.3   1911  OAN1911     0.2065
      6  CAC       13.4360  -14.5470   -9.3820 C.3   1911  OAN1911     0.2146
      7  OAJ       14.6360  -13.7710   -9.3550 O.3   1911  OAN1911    -0.2179
      8  CAD       13.6830  -15.9410   -8.7830 C.3   1911  OAN1911     0.2266
      9  OAK       14.6850  -16.6270   -9.5140 O.3   1911  OAN1911    -0.2163
     10  CAE       12.4060  -16.7930   -8.7790 C.3   1911  OAN1911     0.2328
     11  CAF       12.6330  -18.0320   -7.8980 C.3   1911  OAN1911     0.2281
     12  OAM       12.5050  -17.6800   -6.5130 O.3   1911  OAN1911    -0.2163
     13  OAL       11.2520  -16.0910   -8.2460 O.2   1911  OAN1911    -0.4583
     14  CAA       11.1230  -14.7750   -8.6070 C.2   1911  OAN1911     0.2599
     15  NAY        9.9160  -14.3730   -8.9560 N.2   1911  OAN1911    -0.0369
     16  OAQ        8.9580  -15.3360   -8.9250 O.3   1911  OAN1911    -0.2944
     17  CAP        7.7260  -14.7910   -8.8220 C.2   1911  OAN1911     0.4504
     18  OAR        7.2850  -14.3720   -7.7500 O.2   1911  OAN1911    -0.2218
     19  NAO        7.0250  -14.7440   -9.9520 N.am  1911  OAN1911    -0.1406
     20  CAS        7.0680  -14.6290  -10.9310 C.ar  1911  OAN1911     0.0768
     21  CAT        8.0800  -15.3940  -11.4970 C.ar  1911  OAN1911     0.0167
     22  CAU        8.1650  -15.5080  -12.8850 C.ar  1911  OAN1911     0.0013
     23  CAV        7.2510  -14.8630  -13.7170 C.ar  1911  OAN1911     0.0001
     24  CAW        6.2370  -14.0900  -13.1720 C.ar  1911  OAN1911     0.0013
     25  CAX        6.1560  -13.9780  -11.7820 C.ar  1911  OAN1911     0.0167
@<TRIPOS>BOND
     1    23    24   ar
     2    23    22   ar
     3    24    25   ar
     4    22    21   ar
     5    25    20   ar
     6    21    20   ar
     7    20    19    1
     8    19    17   am
     9     9     8    1
    10     6     7    1
    11     6     8    1
    12     6     5    1
    13     4     5    1
    14     4     2   am
    15     1     2    1
    16    15    16    1
    17    15    14    2
    18    16    17    1
    19    17    18    2
    20     8    10    1
    21    10    13    1
    22    10    11    1
    23    14     5    1
    24    14    13    1
    25     2     3    2
    26    11    12    1
