@<TRIPOS>MOLECULE
2vce_U2F_A_1.pdb
 36 38 0 0 0
SMALL
GASTEIGER

@<TRIPOS>ATOM
      1  C1        10.8310   29.3120   25.0540 C.3   1477  U2F1477     0.2764
      2  O1         9.7110   28.9550   24.1710 O.3   1477  U2F1477    -0.2856
      3  PB         9.0840   29.6920   22.9390 P.3   1477  U2F1477     0.2208
      4  O1B        8.6210   30.9920   23.3280 O.3   1477  U2F1477    -0.4371
      5  O2B        9.9350   29.5180   21.7370 O.2   1477  U2F1477    -0.5170
      6  O3A        7.8130   28.6220   22.7140 O.3   1477  U2F1477    -0.2703
      7  PA         6.4700   28.2720   23.6290 P.3   1477  U2F1477     0.2189
      8  O1A        6.8390   27.8000   24.9970 O.3   1477  U2F1477    -0.4371
      9  O2A        5.7350   27.3260   22.7350 O.2   1477  U2F1477    -0.5170
     10  O5'        5.7790   29.6840   23.7670 O.3   1477  U2F1477    -0.3112
     11  C5'        5.1220   30.2760   22.6900 C.3   1477  U2F1477     0.1813
     12  C4'        4.0440   31.1890   23.2160 C.3   1477  U2F1477     0.1799
     13  O4'        3.7860   32.1770   22.1280 O.3   1477  U2F1477    -0.3320
     14  C1'        2.5140   31.9140   21.5960 C.3   1477  U2F1477     0.2401
     15  C2'        2.2160   30.4520   21.9280 C.3   1477  U2F1477     0.2319
     16  C3'        2.8330   30.2880   23.3500 C.3   1477  U2F1477     0.2158
     17  O3'        1.9300   30.8190   24.3380 O.3   1477  U2F1477    -0.2175
     18  O2'        0.7870   30.3290   21.9660 O.3   1477  U2F1477    -0.2157
     19  N1         2.6600   32.0780   20.1340 N.am  1477  U2F1477    -0.1766
     20  C6'        1.6190   32.6870   19.4230 C.1   1477  U2F1477     0.2845
     21  O6'        0.5700   33.1020   19.9470 O.2   1477  U2F1477    -0.1918
     22  N3         1.7710   32.8030   18.0450 N.2   1477  U2F1477    -0.2452
     23  C7'        2.9340   32.3240   17.3690 C.1   1477  U2F1477     0.2182
     24  O7'        2.9980   32.4720   16.1490 O.2   1477  U2F1477    -0.2085
     25  C8'        3.9600   31.7050   18.0730 C.2   1477  U2F1477     0.1242
     26  C9'        3.8380   31.5830   19.4650 C.2   1477  U2F1477     0.0929
     27  C2        11.8510   28.1880   24.8360 C.3   1477  U2F1477     0.2498
     28  F1        12.3550   28.2220   23.5400 F     1477  U2F1477    -0.2290
     29  C3        11.1750   26.8320   24.9890 C.3   1477  U2F1477     0.2220
     30  O3        12.1840   25.8560   24.7460 O.3   1477  U2F1477    -0.2172
     31  C4        10.5690   26.7220   26.4090 C.3   1477  U2F1477     0.2146
     32  O4         9.9270   25.4410   26.6530 O.3   1477  U2F1477    -0.2176
     33  C5         9.6680   27.9350   26.7390 C.3   1477  U2F1477     0.1835
     34  C6         9.2400   28.0410   28.1970 C.3   1477  U2F1477     0.2142
     35  O6        10.4530   27.9830   29.0060 O.3   1477  U2F1477    -0.2176
     36  O5        10.3990   29.2160   26.4010 O.3   1477  U2F1477    -0.3253
@<TRIPOS>BOND
     1    24    23    2
     2    23    22    2
     3    23    25    1
     4    22    20    2
     5    25    26    2
     6    20    21    2
     7    20    19   am
     8    26    19    1
     9    19    14    1
    10    14    15    1
    11    14    13    1
    12     5     3    2
    13    15    18    1
    14    15    16    1
    15    13    12    1
    16    11    12    1
    17    11    10    1
    18     6     3    1
    19     6     7    1
    20     9     7    2
    21     3     4    1
    22     3     2    1
    23    12    16    1
    24    16    17    1
    25    28    27    1
    26     7    10    1
    27     7     8    1
    28     2     1    1
    29    30    29    1
    30    27    29    1
    31    27     1    1
    32    29    31    1
    33     1    36    1
    34    36    33    1
    35    31    32    1
    36    31    33    1
    37    33    34    1
    38    34    35    1
