@<TRIPOS>MOLECULE
2vce_TC7_A_1.pdb
 10 10 0 0 0
SMALL
GASTEIGER

@<TRIPOS>ATOM
      1  C1        15.0430   26.6550   28.8460 C.ar  1478  TC71478     0.0714
      2  C2        13.9210   27.4510   28.9400 C.ar  1478  TC71478     0.0551
      3  C3        13.8870   28.6260   28.2130 C.ar  1478  TC71478     0.2070
      4  C4        14.9890   28.9800   27.4160 C.ar  1478  TC71478     0.0974
      5  C5        16.1250   28.2100   27.3380 C.ar  1478  TC71478     0.0269
      6  C6        16.1130   27.0340   28.0730 C.ar  1478  TC71478     0.0692
      7 CL1        15.0900   30.4660   26.4710 Cl    1478  TC71478    -0.0789
      8 CL3        17.5780   26.0400   27.9330 Cl    1478  TC71478    -0.0813
      9  O1        12.7700   29.3850   28.2970 O.3   1478  TC71478    -0.2856
     10 CL5        15.1090   25.1600   29.7970 Cl    1478  TC71478    -0.0813
@<TRIPOS>BOND
     1     7     4    1
     2     5     4   ar
     3     5     6   ar
     4     4     3   ar
     5     8     6    1
     6     6     1   ar
     7     3     9    1
     8     3     2   ar
     9     1     2   ar
    10     1    10    1
