@<TRIPOS>MOLECULE
2vcf_HEM_X_1.pdb
 43 50 0 0 0
SMALL
GASTEIGER

@<TRIPOS>ATOM
      1 FE         14.3680   54.7750   18.9880 Fe    1254  HEM1254     0.0000
      2  CHA       13.2910   57.7990   20.2820 C.2   1254  HEM1254     0.0000
      3  CHB       12.2730   55.1750   16.2800 C.2   1254  HEM1254     0.0000
      4  CHC       15.5180   51.8620   17.6690 C.2   1254  HEM1254     0.0000
      5  CHD       16.7090   54.5580   21.4730 C.2   1254  HEM1254     0.0000
      6  NA        13.0360   56.2190   18.3940 N.ar  1254  HEM1254     0.0000
      7  C1A       12.7360   57.3800   19.0780 C.ar  1254  HEM1254     0.0000
      8  C2A       11.7460   58.1010   18.3140 C.ar  1254  HEM1254     0.0000
      9  C3A       11.4570   57.3890   17.2020 C.ar  1254  HEM1254     0.0000
     10  C4A       12.2620   56.1760   17.2370 C.ar  1254  HEM1254     0.0000
     11  CMA       10.4500   57.7630   16.0860 C.3   1254  HEM1254     0.0000
     12  CAA       11.1640   59.4630   18.7180 C.3   1254  HEM1254     0.0000
     13  CBA       12.1220   60.6040   18.3420 C.3   1254  HEM1254     0.0000
     14  CGA       11.4340   61.8610   18.8620 C.2   1254  HEM1254     0.0000
     15  O1A       11.9490   62.5810   19.7620 O.co2 1254  HEM1254     0.0000
     16  O2A       10.3280   62.1460   18.3750 O.co2 1254  HEM1254     0.0000
     17  NB        14.0000   53.7370   17.2710 N.2   1254  HEM1254     0.0000
     18  C1B       13.0210   54.0220   16.3310 C.2   1254  HEM1254     0.0000
     19  C2B       12.9300   52.8860   15.4260 C.2   1254  HEM1254     0.0000
     20  C3B       13.8230   51.9710   15.8190 C.2   1254  HEM1254     0.0000
     21  C4B       14.5010   52.4930   16.9950 C.2   1254  HEM1254     0.0000
     22  CMB       11.9730   52.7870   14.2320 C.3   1254  HEM1254     0.0000
     23  CAB       14.1210   50.5950   15.2260 C.2   1254  HEM1254     0.0000
     24  CBB       13.9760   49.5270   16.0220 C.2   1254  HEM1254     0.0000
     25  NC        15.8060   53.4570   19.4890 N.ar  1254  HEM1254     0.0000
     26  C1C       16.2080   52.3790   18.7390 C.ar  1254  HEM1254     0.0000
     27  C2C       17.4350   51.8460   19.3000 C.ar  1254  HEM1254     0.0000
     28  C3C       17.7610   52.5820   20.3630 C.ar  1254  HEM1254     0.0000
     29  C4C       16.7360   53.6020   20.4990 C.ar  1254  HEM1254     0.0000
     30  CMC       18.1780   50.6400   18.6910 C.3   1254  HEM1254     0.0000
     31  CAC       18.9800   52.4550   21.3090 C.2   1254  HEM1254     0.0000
     32  CBC       19.4040   51.2500   21.7170 C.2   1254  HEM1254     0.0000
     33  ND        14.9560   56.0180   20.5790 N.2   1254  HEM1254     0.0000
     34  C1D       15.8340   55.6040   21.5730 C.2   1254  HEM1254     0.0000
     35  C2D       15.6880   56.4480   22.7420 C.2   1254  HEM1254     0.0000
     36  C3D       14.6250   57.4630   22.3600 C.2   1254  HEM1254     0.0000
     37  C4D       14.2310   57.1180   21.0070 C.2   1254  HEM1254     0.0000
     38  CMD       16.4560   56.3470   24.0810 C.3   1254  HEM1254     0.0000
     39  CAD       14.0360   58.6040   23.1890 C.3   1254  HEM1254     0.0000
     40  CBD       14.8450   59.8690   22.9430 C.3   1254  HEM1254     0.0000
     41  CGD       14.3260   60.9980   23.8000 C.2   1254  HEM1254     0.0000
     42  O1D       14.5670   62.1650   23.4100 O.co2 1254  HEM1254     0.0000
     43  O2D       13.6720   60.7480   24.8470 O.co2 1254  HEM1254     0.0000
@<TRIPOS>BOND
     1    22    19    1
     2    23    20    1
     3    23    24    2
     4    19    20    2
     5    19    18    1
     6    20    21    1
     7    11     9    1
     8     3    18    1
     9     3    10    2
    10    18    17    2
    11    21    17    1
    12    21     4    2
    13     9    10   ar
    14     9     8   ar
    15    10     6   ar
    16    17     1    1
    17     4    26    1
    18     8    12    1
    19     8     7   ar
    20    13    12    1
    21    13    14    1
    22    16    14   ar
    23     6     1    1
    24     6     7   ar
    25    30    27    1
    26    26    27   ar
    27    26    25   ar
    28    14    15   ar
    29     1    25    1
    30     1    33    1
    31     7     2    2
    32    27    28   ar
    33    25    29   ar
    34     2    37    1
    35    28    29   ar
    36    28    31    1
    37    29     5    1
    38    33    37    2
    39    33    34    1
    40    37    36    1
    41    31    32    2
    42     5    34    2
    43    34    35    1
    44    36    35    2
    45    36    39    1
    46    35    38    1
    47    40    39    1
    48    40    41    1
    49    42    41   ar
    50    41    43   ar
