@<TRIPOS>MOLECULE
2vcf_ISZ_X_1.pdb
 10 10 0 0 0
SMALL
GASTEIGER

@<TRIPOS>ATOM
      1  C2        12.2960   60.5400   12.4580 C.ar  1252  ISZ1252     0.0253
      2  C4        12.1420   61.9270   12.4200 C.ar  1252  ISZ1252     0.0990
      3  N1        12.5760   62.6860   13.4450 N.ar  1252  ISZ1252    -0.2423
      4  C5        13.1520   62.1410   14.5310 C.ar  1252  ISZ1252     0.0990
      5  C3        13.3210   60.7540   14.6190 C.ar  1252  ISZ1252     0.0253
      6  C1        12.8960   59.9420   13.5730 C.ar  1252  ISZ1252     0.0595
      7  C6        13.0800   58.4490   13.6560 C.2   1252  ISZ1252     0.2823
      8  O1        14.1300   57.9910   14.0830 O.2   1252  ISZ1252    -0.2669
      9  N2        12.0750   57.6490   13.3030 N.am  1252  ISZ1252    -0.0886
     10  N3        12.2100   56.6450   12.3460 N.3   1252  ISZ1252     0.0074
@<TRIPOS>BOND
     1    10     9    1
     2     2     1   ar
     3     2     3   ar
     4     1     6   ar
     5     9     7   am
     6     3     4   ar
     7     6     7    1
     8     6     5   ar
     9     7     8    2
    10     4     5   ar
