@<TRIPOS>MOLECULE
2vcg_S17_A_1.pdb
 26 26 0 0 0
SMALL
GASTEIGER

@<TRIPOS>ATOM
      1  CD1       -7.9200   -4.7190   34.1180 C.ar  1378  S171378    -0.0037
      2  CE1       -8.3870   -3.7720   35.0200 C.ar  1378  S171378     0.0064
      3  CZ        -8.7080   -4.1520   36.3220 C.ar  1378  S171378     0.0345
      4 BR1        -9.3360   -2.8370   37.5290 Br    1378  S171378    -0.0490
      5  CE2       -8.5750   -5.4820   36.7280 C.ar  1378  S171378     0.0064
      6  CD2       -8.1130   -6.4330   35.8200 C.ar  1378  S171378    -0.0037
      7  CG        -7.7750   -6.0440   34.5190 C.ar  1378  S171378    -0.0199
      8  CB        -7.2810   -7.0610   33.4940 C.3   1378  S171378     0.0594
      9  CA        -5.7900   -7.4490   33.5930 C.3   1378  S171378     0.1977
     10  C         -4.8750   -6.2760   33.1670 C.2   1378  S171378     0.3374
     11  O         -3.7930   -6.0940   33.7240 O.2   1378  S171378    -0.2482
     12  OAT       -5.2510   -5.4330   32.1560 O.3   1378  S171378    -0.4432
     13  CAA       -4.1740   -5.1190   31.2530 C.3   1378  S171378     0.2557
     14  N         -5.4240   -7.9620   34.9410 N.am  1378  S171378    -0.1954
     15  CAV       -5.9390   -9.0580   35.5270 C.2   1378  S171378     0.2418
     16  OAC       -6.8040   -9.7900   35.0440 O.2   1378  S171378    -0.2733
     17  CAP       -5.3710   -9.3640   36.9180 C.3   1378  S171378     0.0868
     18  CAN       -5.1270  -10.8560   37.1570 C.3   1378  S171378     0.0096
     19  CAL       -3.7690  -11.0820   37.8280 C.3   1378  S171378     0.0005
     20  CAK       -3.8200  -10.9460   39.3570 C.3   1378  S171378     0.0004
     21  CAM       -4.3170  -12.2160   40.0610 C.3   1378  S171378     0.0067
     22  CAO       -3.2630  -13.3130   40.0540 C.3   1378  S171378     0.0512
     23  CAU       -3.0110  -13.9380   41.4360 C.2   1378  S171378     0.0868
     24  OAB       -1.8990  -14.3290   41.7500 O.2   1378  S171378    -0.5396
     25  NAR       -4.0460  -14.0240   42.2470 N.am  1378  S171378    -0.2030
     26  OAE       -3.8690  -14.5640   43.4570 O.3   1378  S171378    -0.4026
@<TRIPOS>BOND
     1    13    12    1
     2    12    10    1
     3    10     9    1
     4    10    11    2
     5     8     9    1
     6     8     7    1
     7     9    14    1
     8     1     7   ar
     9     1     2   ar
    10     7     6   ar
    11    14    15   am
    12     2     3   ar
    13    16    15    2
    14    15    17    1
    15     6     5   ar
    16     3     5   ar
    17     3     4    1
    18    17    18    1
    19    18    19    1
    20    19    20    1
    21    20    21    1
    22    22    21    1
    23    22    23    1
    24    23    24    2
    25    23    25   am
    26    25    26    1
