@<TRIPOS>MOLECULE
2vch_UDP_A_1.pdb
 25 26 0 0 0
SMALL
GASTEIGER

@<TRIPOS>ATOM
      1  N1         2.7810   31.8770   20.4340 N.am  1477  UDP1477    -0.1766
      2  C2         1.7700   32.5510   19.7660 C.1   1477  UDP1477     0.2845
      3  N3         1.8800   32.7170   18.4300 N.2   1477  UDP1477    -0.2452
      4  C4         2.9240   32.2070   17.6750 C.1   1477  UDP1477     0.2182
      5  C5         3.9550   31.5240   18.3420 C.2   1477  UDP1477     0.1242
      6  C6         3.8570   31.4020   19.7370 C.2   1477  UDP1477     0.0929
      7  O2         0.7940   32.9840   20.3630 O.2   1477  UDP1477    -0.1918
      8  O4         2.9590   32.4420   16.4640 O.2   1477  UDP1477    -0.2085
      9  C1'        2.6660   31.6790   21.8900 C.3   1477  UDP1477     0.2401
     10  C2'        2.3010   30.2270   22.2240 C.3   1477  UDP1477     0.2319
     11  O2'        0.8990   30.0910   22.2370 O.3   1477  UDP1477    -0.2157
     12  C3'        2.9940   29.9830   23.5690 C.3   1477  UDP1477     0.2158
     13  C4'        4.2040   30.8880   23.4580 C.3   1477  UDP1477     0.1799
     14  O4'        3.9580   31.8800   22.4560 O.3   1477  UDP1477    -0.3320
     15  O3'        2.1900   30.5170   24.6540 O.3   1477  UDP1477    -0.2175
     16  C5'        5.4890   30.1400   23.0540 C.3   1477  UDP1477     0.1813
     17  O5'        5.9560   29.4700   24.2110 O.3   1477  UDP1477    -0.3111
     18  PA         6.6510   28.0290   24.1380 P.3   1477  UDP1477     0.2231
     19  O1A        6.9370   27.6060   25.5380 O.3   1477  UDP1477    -0.4370
     20  O2A        5.8410   27.0810   23.3040 O.2   1477  UDP1477    -0.5169
     21  O3A        8.0020   28.2030   23.3200 O.3   1477  UDP1477    -0.2261
     22  PB         9.1420   29.3780   23.2870 P.3   1477  UDP1477     0.5373
     23  O1B        9.4610   29.7280   24.7200 O.3   1477  UDP1477    -0.1143
     24  O2B        8.5930   30.4500   22.4970 O.2   1477  UDP1477    -0.2221
     25  O3B       10.2530   28.6460   22.6120 O.3   1477  UDP1477    -0.1143
@<TRIPOS>BOND
     1     8     4    2
     2     4     5    1
     3     4     3    2
     4     5     6    2
     5     3     2    2
     6     6     1    1
     7     2     7    2
     8     2     1   am
     9     1     9    1
    10     9    10    1
    11     9    14    1
    12    10    11    1
    13    10    12    1
    14    14    13    1
    15    24    22    2
    16    25    22    1
    17    16    13    1
    18    16    17    1
    19    22    21    1
    20    22    23    1
    21    20    18    2
    22    21    18    1
    23    13    12    1
    24    12    15    1
    25    18    17    1
    26    18    19    1
