@<TRIPOS>MOLECULE
2vci_2GJ_A_1.pdb
 34 37 0 0 0
SMALL
GASTEIGER

@<TRIPOS>ATOM
      1  C25       35.4870    4.9960   21.3240 C.3   1225  2GJ1225     0.1049
      2  C26       35.9860    3.5600   21.0790 C.3   1225  2GJ1225     0.1595
      3  O27       36.8710    3.2020   22.1750 O.3   1225  2GJ1225    -0.3508
      4  C28       36.1890    3.1500   23.4720 C.3   1225  2GJ1225     0.1595
      5  C29       35.6590    4.5420   23.8420 C.3   1225  2GJ1225     0.1049
      6  N24       34.9570    5.2020   22.7050 N.3   1225  2GJ1225    -0.2646
      7  C23       35.1460    6.6380   22.9490 C.3   1225  2GJ1225     0.0993
      8  C20       34.0970    7.1990   23.8990 C.ar  1225  2GJ1225    -0.0061
      9  C21       32.7330    7.0520   23.5820 C.ar  1225  2GJ1225    -0.0029
     10  C22       31.7720    7.5550   24.4550 C.ar  1225  2GJ1225    -0.0001
     11  C19       34.5160    7.8380   25.0770 C.ar  1225  2GJ1225    -0.0029
     12  C18       33.5580    8.3410   25.9530 C.ar  1225  2GJ1225    -0.0001
     13  C7        32.1880    8.2030   25.6380 C.ar  1225  2GJ1225     0.0047
     14  C3        31.1920    8.7610   26.4740 C.ar  1225  2GJ1225     0.0626
     15  C2        30.8160    8.3590   27.7390 C.ar  1225  2GJ1225     0.1776
     16  C8        31.4670    7.2140   28.5180 C.2   1225  2GJ1225     0.2858
     17  O9        32.0850    6.3470   27.8920 O.2   1225  2GJ1225    -0.2666
     18  N10       31.3180    7.3320   29.8730 N.am  1225  2GJ1225    -0.2003
     19  C11       31.8070    6.4480   30.9560 C.3   1225  2GJ1225     0.1156
     20  C12       33.0170    5.6360   30.4970 C.3   1225  2GJ1225     0.0253
     21  N1        29.8220    9.1600   28.1590 N.ar  1225  2GJ1225    -0.0723
     22  O5        29.5230   10.1560   27.1500 O.2   1225  2GJ1225    -0.3531
     23  C4        30.3810    9.8760   26.1290 C.ar  1225  2GJ1225     0.1800
     24  C6        30.4470   10.5530   24.9090 C.ar  1225  2GJ1225     0.0760
     25  C13       31.7250   10.8640   24.5100 C.ar  1225  2GJ1225     0.0052
     26  C14       31.9690   11.5150   23.3220 C.ar  1225  2GJ1225     0.0167
     27  C30       33.3810   11.9070   22.9720 C.3   1225  2GJ1225     0.0255
     28  C32       33.4370   13.2730   23.6870 C.3   1225  2GJ1225     0.0048
     29  C31       34.4610   10.9450   23.4980 C.3   1225  2GJ1225     0.0048
     30  C15       30.8980   11.8950   22.5190 C.ar  1225  2GJ1225     0.1949
     31  O34       31.1360   12.5340   21.3480 O.3   1225  2GJ1225    -0.2868
     32  C16       29.5950   11.5770   22.9210 C.ar  1225  2GJ1225     0.0838
     33  C17       29.3470   10.9020   24.1020 C.ar  1225  2GJ1225     0.2018
     34  O33       28.0580   10.6360   24.4290 O.3   1225  2GJ1225    -0.2864
@<TRIPOS>BOND
     1     2     1    1
     2     2     3    1
     3     1     6    1
     4    31    30    1
     5     3     4    1
     6    30    32   ar
     7    30    26   ar
     8     6     7    1
     9     6     5    1
    10    32    33   ar
    11     7     8    1
    12    27    26    1
    13    27    29    1
    14    27    28    1
    15    26    25   ar
    16     4     5    1
    17     9     8   ar
    18     9    10   ar
    19     8    11   ar
    20    33    34    1
    21    33    24   ar
    22    10    13   ar
    23    25    24   ar
    24    24    23    1
    25    11    12   ar
    26    13    12   ar
    27    13    14    1
    28    23    14   ar
    29    23    22   ar
    30    14    15   ar
    31    22    21   ar
    32    15    21   ar
    33    15    16    1
    34    17    16    2
    35    16    18   am
    36    18    19    1
    37    20    19    1
