@<TRIPOS>MOLECULE
2vck_BLA_A_1.pdb
 43 46 0 0 0
SMALL
GASTEIGER

@<TRIPOS>ATOM
      1  CHA       -5.4260    8.8130    6.2470 C.3   1234  BLA1234     0.1170
      2  NA        -4.7060    7.1220    7.9180 N.2   1234  BLA1234    -0.4104
      3  C1A       -5.4160    8.2200    7.4830 C.2   1234  BLA1234     0.1114
      4  C2A       -6.1830    8.7160    8.5680 C.2   1234  BLA1234     0.0024
      5  C3A       -5.9280    7.9050    9.6450 C.2   1234  BLA1234     0.0021
      6  C4A       -5.0190    6.9090    9.1960 C.2   1234  BLA1234     0.1114
      7  CMA       -6.5030    7.9960   11.0210 C.3   1234  BLA1234     0.0331
      8  CAA       -7.1270    9.9370    8.5360 C.3   1234  BLA1234     0.0402
      9  CBA       -8.5110    9.4710    8.0640 C.3   1234  BLA1234     0.1188
     10  CGA       -9.4980   10.5990    8.0350 C.2   1234  BLA1234     0.3652
     11  O1A      -10.2780   10.6490    7.0470 O.co2 1234  BLA1234    -0.2456
     12  O2A       -9.4790   11.4010    9.0050 O.co2 1234  BLA1234    -0.2456
     13  CHB       -4.5080    5.8660   10.1000 C.3   1234  BLA1234     0.1181
     14  NB        -3.5150    4.2050    8.5630 N.2   1234  BLA1234    -0.3372
     15  C1B       -3.8080    4.7410    9.8260 C.2   1234  BLA1234     0.1257
     16  C2B       -3.2680    3.8130   10.8640 C.2   1234  BLA1234     0.0168
     17  C3B       -2.6630    2.8020   10.2030 C.2   1234  BLA1234     0.0929
     18  C4B       -2.8360    3.0460    8.7740 C.1   1234  BLA1234     0.2041
     19  CMB       -3.3560    4.0170   12.3160 C.3   1234  BLA1234     0.0342
     20  OB        -2.4270    2.3030    7.8830 O.2   1234  BLA1234    -0.2093
     21  CAB       -1.9630    1.6430   10.7870 C.2   1234  BLA1234     0.0124
     22  CBB       -1.3320    0.6830   10.2070 C.2   1234  BLA1234     0.0008
     23  NC        -1.2260    6.0120    4.1900 N.2   1234  BLA1234    -0.3371
     24  C1C       -0.2910    5.0050    4.2270 C.1   1234  BLA1234     0.2003
     25  C2C       -0.1990    4.4340    2.8470 C.2   1234  BLA1234     0.0749
     26  C3C       -1.0490    5.1320    2.0460 C.2   1234  BLA1234     0.0347
     27  C4C       -1.7500    6.1090    2.9330 C.2   1234  BLA1234     0.1293
     28  CMC        0.6500    3.3020    2.4040 C.3   1234  BLA1234     0.0448
     29  OC         0.3590    4.6310    5.2050 O.2   1234  BLA1234    -0.2096
     30  CAC       -1.2580    4.8180    0.5910 C.2   1234  BLA1234     0.0027
     31  CBC       -2.1440    5.1480   -0.2590 C.2   1234  BLA1234     0.0001
     32  CHD       -2.6550    7.0390    2.5340 C.3   1234  BLA1234     0.1184
     33  ND        -3.8790    7.5670    4.6160 N.2   1234  BLA1234    -0.4104
     34  C1D       -3.5520    7.7920    3.3400 C.2   1234  BLA1234     0.1115
     35  C2D       -4.2070    9.0390    2.9010 C.2   1234  BLA1234     0.0021
     36  C3D       -4.9540    9.4850    3.9440 C.2   1234  BLA1234     0.0024
     37  C4D       -4.7890    8.5910    5.0280 C.2   1234  BLA1234     0.1114
     38  CMD       -4.0980    9.6920    1.5670 C.3   1234  BLA1234     0.0331
     39  CAD       -5.8510   10.7510    4.0780 C.3   1234  BLA1234     0.0402
     40  CBD       -7.3050   10.3870    3.9040 C.3   1234  BLA1234     0.1188
     41  CGD       -8.2190   11.5150    4.2670 C.2   1234  BLA1234     0.3652
     42  O1D       -7.7170   12.6320    4.5620 O.co2 1234  BLA1234    -0.2456
     43  O2D       -9.4370   11.2350    4.3040 O.co2 1234  BLA1234    -0.2456
@<TRIPOS>BOND
     1    31    30    2
     2    30    26    1
     3    38    35    1
     4    26    25    2
     5    26    27    1
     6    28    25    1
     7    32    27    1
     8    32    34    1
     9    25    24    1
    10    35    34    1
    11    35    36    2
    12    27    23    2
    13    34    33    2
    14    40    39    1
    15    40    41    1
    16    36    39    1
    17    36    37    1
    18    23    24    2
    19    24    29    2
    20    41    43   ar
    21    41    42   ar
    22    33    37    2
    23    37     1    1
    24     1     3    1
    25    11    10   ar
    26     3     2    2
    27     3     4    1
    28    20    18    2
    29     2     6    2
    30    10     9    1
    31    10    12   ar
    32     9     8    1
    33     8     4    1
    34    14    18    2
    35    14    15    2
    36     4     5    2
    37    18    17    1
    38     6     5    1
    39     6    13    1
    40     5     7    1
    41    15    13    1
    42    15    16    1
    43    17    21    1
    44    17    16    2
    45    22    21    2
    46    16    19    1
