@<TRIPOS>MOLECULE
2vcm_M11_A_1.pdb
 25 24 0 0 0
SMALL
GASTEIGER

@<TRIPOS>ATOM
      1  O43       12.3860   -6.4250    9.0180 O.co2 1333  M111333    -0.2416
      2  C31       12.8960   -6.0300    7.9240 C.2   1333  M111333     0.4041
      3  O42       14.1460   -6.1450    7.6630 O.co2 1333  M111333    -0.2416
      4  C30       11.9010   -5.3560    6.9620 C.3   1333  M111333     0.2704
      5  O29       10.6000   -5.2970    7.6360 O.3   1333  M111333    -0.4393
      6  C13        9.9260   -4.0210    7.7250 C.2   1333  M111333     0.3383
      7  O18       10.5590   -2.9320    7.6290 O.2   1333  M111333    -0.2482
      8  C12        8.4400   -4.0570    7.9700 C.3   1333  M111333     0.2040
      9  S17        8.3240   -4.4770    5.2370 S.3   1333  M111333    -0.0807
     10  C25        6.8650   -5.8790    7.3850 C.3   1333  M111333     0.0149
     11  N11        7.7230   -2.8100    7.7600 N.am  1333  M111333    -0.1948
     12  C10        7.0330   -2.2500    8.7250 C.2   1333  M111333     0.2418
     13  O15        7.0330   -2.6920    9.8820 O.2   1333  M111333    -0.2733
     14  C7         6.3150   -1.0110    8.2760 C.3   1333  M111333     0.0869
     15  C4         7.0460    0.1380    8.9380 C.3   1333  M111333     0.0117
     16  C3         6.3620    1.4220    8.5120 C.3   1333  M111333     0.0311
     17  C2         6.9310    2.6500    9.1870 C.3   1333  M111333     0.1943
     18  N14        6.8740    2.5760   10.6480 N.3   1333  M111333    -0.1208
     19  C1         6.0780    3.7720    8.6780 C.2   1333  M111333     0.3819
     20  O20        6.1410    4.0610    7.4260 O.co2 1333  M111333    -0.2441
     21  O19        5.2770    4.3470    9.4730 O.co2 1333  M111333    -0.2441
     22  C32       11.7070   -5.9270    5.4850 C.3   1333  M111333     0.0515
     23  C37       10.6890   -7.0830    5.1480 C.3   1333  M111333     0.0043
     24  C33       13.0440   -6.1960    4.7770 C.3   1333  M111333     0.0043
     25  CAV        7.5250   -4.6050    6.8850 C.3   1333  M111333     0.0888
@<TRIPOS>BOND
     1    24    22    1
     2    23    22    1
     3     9    25    1
     4    22     4    1
     5    25    10    1
     6    25     8    1
     7     4     5    1
     8     4     2    1
     9    20    19   ar
    10     7     6    2
    11     5     6    1
    12     3     2   ar
    13     6     8    1
    14    11     8    1
    15    11    12   am
    16     2     1   ar
    17    14    12    1
    18    14    15    1
    19    16    15    1
    20    16    17    1
    21    19    17    1
    22    19    21   ar
    23    12    13    2
    24    17    18    1
