@<TRIPOS>MOLECULE
2vcn_ISZ_A_1.pdb
 10 10 0 0 0
SMALL
GASTEIGER

@<TRIPOS>ATOM
      1  C2        19.6730   54.4970   15.6840 C.ar  1254  ISZ1254     0.0253
      2  C4        20.3460   53.7340   14.7380 C.ar  1254  ISZ1254     0.0990
      3  N1        19.8860   52.5270   14.3800 N.ar  1254  ISZ1254    -0.2423
      4  C5        18.7640   52.0210   14.9260 C.ar  1254  ISZ1254     0.0990
      5  C3        18.0450   52.7440   15.8770 C.ar  1254  ISZ1254     0.0253
      6  C1        18.5170   53.9950   16.2610 C.ar  1254  ISZ1254     0.0595
      7  C6        17.8000   54.8120   17.2790 C.2   1254  ISZ1254     0.2823
      8  O1        18.3830   55.2080   18.2750 O.2   1254  ISZ1254    -0.2669
      9  N2        16.5190   55.0760   17.0790 N.am  1254  ISZ1254    -0.0886
     10  N3        15.8470   55.6840   18.1270 N.3   1254  ISZ1254     0.0074
@<TRIPOS>BOND
     1     3     2   ar
     2     3     4   ar
     3     2     1   ar
     4     4     5   ar
     5     1     6   ar
     6     5     6   ar
     7     6     7    1
     8     9     7   am
     9     9    10    1
    10     7     8    2
