@<TRIPOS>MOLECULE
2vcn_HEM_A_1.pdb
 43 50 0 0 0
SMALL
GASTEIGER

@<TRIPOS>ATOM
      1 FE         14.5130   54.6940   19.0650 Fe    1251  HEM1251     0.0000
      2  CHA       13.3400   57.6120   20.3500 C.2   1251  HEM1251     0.0000
      3  CHB       12.4060   55.0150   16.3740 C.2   1251  HEM1251     0.0000
      4  CHC       15.6290   51.7420   17.8510 C.2   1251  HEM1251     0.0000
      5  CHD       16.8210   54.5140   21.6020 C.2   1251  HEM1251     0.0000
      6  NA        13.1980   56.0000   18.5160 N.ar  1251  HEM1251     0.0000
      7  C1A       12.8630   57.1900   19.1510 C.ar  1251  HEM1251     0.0000
      8  C2A       11.8540   57.8910   18.3900 C.ar  1251  HEM1251     0.0000
      9  C3A       11.6040   57.1770   17.2900 C.ar  1251  HEM1251     0.0000
     10  C4A       12.4220   55.9790   17.3510 C.ar  1251  HEM1251     0.0000
     11  CMA       10.6130   57.4980   16.1450 C.3   1251  HEM1251     0.0000
     12  CAA       11.2580   59.2590   18.7890 C.3   1251  HEM1251     0.0000
     13  CBA       12.1780   60.4440   18.4500 C.3   1251  HEM1251     0.0000
     14  CGA       11.4830   61.7140   18.9080 C.2   1251  HEM1251     0.0000
     15  O1A       10.3660   62.0600   18.3980 O.co2 1251  HEM1251     0.0000
     16  O2A       11.9910   62.3480   19.8510 O.co2 1251  HEM1251     0.0000
     17  NB        14.1020   53.5770   17.3720 N.2   1251  HEM1251     0.0000
     18  C1B       13.1410   53.8540   16.4410 C.2   1251  HEM1251     0.0000
     19  C2B       13.0150   52.6950   15.5940 C.2   1251  HEM1251     0.0000
     20  C3B       13.8940   51.7690   16.0010 C.2   1251  HEM1251     0.0000
     21  C4B       14.6000   52.3130   17.1410 C.2   1251  HEM1251     0.0000
     22  CMB       12.0250   52.5880   14.4290 C.3   1251  HEM1251     0.0000
     23  CAB       14.0930   50.3630   15.3970 C.2   1251  HEM1251     0.0000
     24  CBB       14.1910   49.3130   16.2280 C.2   1251  HEM1251     0.0000
     25  NC        15.8950   53.4250   19.6330 N.ar  1251  HEM1251     0.0000
     26  C1C       16.2810   52.2890   18.9180 C.ar  1251  HEM1251     0.0000
     27  C2C       17.5070   51.7460   19.4700 C.ar  1251  HEM1251     0.0000
     28  C3C       17.8430   52.4980   20.5280 C.ar  1251  HEM1251     0.0000
     29  C4C       16.8420   53.5430   20.6390 C.ar  1251  HEM1251     0.0000
     30  CMC       18.2470   50.5020   18.9130 C.3   1251  HEM1251     0.0000
     31  CAC       19.0470   52.3870   21.4960 C.2   1251  HEM1251     0.0000
     32  CBC       19.5200   51.2030   21.9230 C.2   1251  HEM1251     0.0000
     33  ND        15.0220   55.8790   20.6790 N.2   1251  HEM1251     0.0000
     34  C1D       15.9060   55.5270   21.6830 C.2   1251  HEM1251     0.0000
     35  C2D       15.7500   56.3710   22.8310 C.2   1251  HEM1251     0.0000
     36  C3D       14.6680   57.3280   22.4340 C.2   1251  HEM1251     0.0000
     37  C4D       14.2900   56.9760   21.0940 C.2   1251  HEM1251     0.0000
     38  CMD       16.4680   56.3350   24.1820 C.3   1251  HEM1251     0.0000
     39  CAD       14.1080   58.4530   23.3160 C.3   1251  HEM1251     0.0000
     40  CBD       14.7160   59.7980   22.9160 C.3   1251  HEM1251     0.0000
     41  CGD       14.2920   60.8970   23.8600 C.2   1251  HEM1251     0.0000
     42  O1D       14.5820   62.0690   23.4970 O.co2 1251  HEM1251     0.0000
     43  O2D       13.7470   60.6310   24.9620 O.co2 1251  HEM1251     0.0000
@<TRIPOS>BOND
     1    22    19    1
     2    23    20    1
     3    23    24    2
     4    19    20    2
     5    19    18    1
     6    20    21    1
     7    11     9    1
     8     3    18    1
     9     3    10    2
    10    18    17    2
    11    21    17    1
    12    21     4    2
    13     9    10   ar
    14     9     8   ar
    15    10     6   ar
    16    17     1    1
    17     4    26    1
    18     8    12    1
    19     8     7   ar
    20    15    14   ar
    21    13    12    1
    22    13    14    1
    23     6     1    1
    24     6     7   ar
    25    14    16   ar
    26    30    27    1
    27    26    27   ar
    28    26    25   ar
    29     1    25    1
    30     1    33    1
    31     7     2    2
    32    27    28   ar
    33    25    29   ar
    34     2    37    1
    35    28    29   ar
    36    28    31    1
    37    29     5    1
    38    33    37    2
    39    33    34    1
    40    37    36    1
    41    31    32    2
    42     5    34    2
    43    34    35    1
    44    36    35    2
    45    36    39    1
    46    35    38    1
    47    40    39    1
    48    40    41    1
    49    42    41   ar
    50    41    43   ar
