@<TRIPOS>MOLECULE
2vco_MAN_A_1.pdb
 11 11 0 0 0
SMALL
GASTEIGER

@<TRIPOS>ATOM
      1  C1        47.4340   42.9580    9.3050 C.3   1161  MAN1161     0.1777
      2  C2        47.8640   41.6590    8.6380 C.3   1161  MAN1161     0.2141
      3  C3        47.8580   41.8420    7.1290 C.3   1161  MAN1161     0.2173
      4  C4        46.4920   42.3290    6.6800 C.3   1161  MAN1161     0.2142
      5  C5        46.0800   43.5760    7.4650 C.3   1161  MAN1161     0.1810
      6  C6        44.6650   44.0050    7.0990 C.3   1161  MAN1161     0.2141
      7  O2        46.9550   40.6360    8.9820 O.3   1161  MAN1161    -0.2176
      8  O3        48.1620   40.6220    6.4990 O.3   1161  MAN1161    -0.2175
      9  O4        46.5260   42.6170    5.2990 O.3   1161  MAN1161    -0.2176
     10  O5        46.1390   43.3190    8.8570 O.3   1161  MAN1161    -0.3481
     11  O6        43.7510   43.0080    7.5100 O.3   1161  MAN1161    -0.2176
@<TRIPOS>BOND
     1     9     4    1
     2     8     3    1
     3     4     3    1
     4     4     5    1
     5     6     5    1
     6     6    11    1
     7     3     2    1
     8     5    10    1
     9     2     7    1
    10     2     1    1
    11    10     1    1
