@<TRIPOS>MOLECULE
2vcp_ATP_A_1.pdb
 31 33 0 0 0
SMALL
GASTEIGER

@<TRIPOS>ATOM
      1  PG       -32.8580   35.6800   48.9820 P.3   1376  ATP1376     0.5373
      2  O1G      -33.6340   34.4230   48.8030 O.3   1376  ATP1376    -0.1143
      3  O2G      -33.1480   36.7370   48.0160 O.2   1376  ATP1376    -0.2221
      4  O3G      -32.7820   36.1190   50.4260 O.3   1376  ATP1376    -0.1143
      5  PB       -30.5440   33.8600   48.8260 P.3   1376  ATP1376     0.2277
      6  O1B      -30.2630   33.2790   47.4840 O.2   1376  ATP1376    -0.5168
      7  O2B      -31.2700   33.0380   49.7930 O.3   1376  ATP1376    -0.4368
      8  O3B      -31.3560   35.2520   48.5470 O.3   1376  ATP1376    -0.2258
      9  PA       -28.1810   34.1340   50.6210 P.3   1376  ATP1376     0.2189
     10  O1A      -28.7950   34.6140   51.8610 O.3   1376  ATP1376    -0.4371
     11  O2A      -27.5780   32.7830   50.5810 O.2   1376  ATP1376    -0.5170
     12  O3A      -29.1810   34.3910   49.3780 O.3   1376  ATP1376    -0.2700
     13  O5'      -27.0680   35.1360   50.2870 O.3   1376  ATP1376    -0.3112
     14  C5'      -26.2430   34.9970   49.1170 C.3   1376  ATP1376     0.1813
     15  C4'      -25.5130   36.2740   48.8930 C.3   1376  ATP1376     0.1821
     16  O4'      -24.6150   36.4230   50.0290 O.3   1376  ATP1376    -0.3135
     17  C3'      -24.6450   36.2730   47.6950 C.3   1376  ATP1376     0.2184
     18  O3'      -24.7440   37.5390   47.0240 O.3   1376  ATP1376    -0.2174
     19  C2'      -23.3030   36.0140   48.2610 C.3   1376  ATP1376     0.2570
     20  O2'      -22.2310   36.5070   47.4830 O.3   1376  ATP1376    -0.2130
     21  C1'      -23.3520   36.8130   49.5750 C.3   1376  ATP1376     0.3186
     22  N9       -22.3000   36.4050   50.5510 N.pl3 1376  ATP1376    -0.1439
     23  C8       -21.9130   35.1400   50.9270 C.3   1376  ATP1376     0.3377
     24  N7       -20.9500   35.0840   51.8030 N.2   1376  ATP1376    -0.2095
     25  C5       -20.6740   36.4220   52.0350 C.2   1376  ATP1376     0.2526
     26  C6       -19.7190   37.0930   52.8950 C.2   1376  ATP1376     0.4393
     27  N6       -18.8580   36.4130   53.6680 N.pl3 1376  ATP1376     0.2180
     28  N1       -19.7030   38.4550   52.8970 N.2   1376  ATP1376     0.0021
     29  C2       -20.5780   39.1270   52.1100 C.3   1376  ATP1376     0.5254
     30  N3       -21.5110   38.6250   51.2620 N.2   1376  ATP1376    -0.0055
     31  C4       -21.5150   37.2430   51.2880 C.2   1376  ATP1376     0.3518
@<TRIPOS>BOND
     1    18    17    1
     2    20    19    1
     3     6     5    2
     4    17    19    1
     5    17    15    1
     6     3     1    2
     7    19    21    1
     8     8     5    1
     9     8     1    1
    10     2     1    1
    11     5    12    1
    12     5     7    1
    13    15    14    1
    14    15    16    1
    15     1     4    1
    16    14    13    1
    17    12     9    1
    18    21    16    1
    19    21    22    1
    20    13     9    1
    21    22    23    1
    22    22    31    1
    23    11     9    2
    24     9    10    1
    25    23    24    1
    26    30    31    2
    27    30    29    1
    28    31    25    1
    29    24    25    2
    30    25    26    1
    31    29    28    1
    32    26    28    2
    33    26    27    1
