@<TRIPOS>MOLECULE
2vcq_D25_A_1.pdb
 16 18 0 0 0
SMALL
GASTEIGER

@<TRIPOS>ATOM
      1  C1       -32.9180   17.9360   24.5560 C.ar  1201  D251201     0.0466
      2  C2       -32.8340   16.5610   24.2410 C.ar  1201  D251201     0.1415
      3  C3       -32.0590   15.5510   24.9970 C.ar  1201  D251201     0.1962
      4  C4       -32.0240   14.1950   24.8070 C.ar  1201  D251201     0.0642
      5  C6       -33.7160   18.5300   23.6410 C.ar  1201  D251201     0.1239
      6  O10      -31.2380   15.8120   26.0330 O.2   1201  D251201    -0.3518
      7  N11      -30.7400   14.8050   26.4690 N.ar  1201  D251201    -0.0769
      8  C12      -31.1300   13.7400   25.8160 C.ar  1201  D251201     0.1231
      9  C13      -30.6900   12.3490   26.1040 C.ar  1201  D251201     0.0209
     10  C14      -29.4100   12.1290   26.6320 C.ar  1201  D251201     0.0016
     11  C15      -28.9700   10.8480   26.9130 C.ar  1201  D251201     0.0000
     12  C16      -29.8080    9.7770   26.6730 C.ar  1201  D251201     0.0000
     13  C17      -31.0750    9.9880   26.1530 C.ar  1201  D251201     0.0000
     14  C18      -31.5320   11.2630   25.8640 C.ar  1201  D251201     0.0016
     15  N6       -33.5690   16.3500   23.1680 N.ar  1201  D251201    -0.1447
     16  N10      -34.1330   17.5750   22.7770 N.ar  1201  D251201    -0.1463
@<TRIPOS>BOND
     1    16    15   ar
     2    16     5   ar
     3    15     2   ar
     4     5     1   ar
     5     2     1   ar
     6     2     3    1
     7     4     3   ar
     8     4     8   ar
     9     3     6   ar
    10     8     9    1
    11     8     7   ar
    12    14     9   ar
    13    14    13   ar
    14     6     7   ar
    15     9    10   ar
    16    13    12   ar
    17    10    11   ar
    18    12    11   ar
