@<TRIPOS>MOLECULE
2vcq_GSH_A_1.pdb
 20 19 0 0 0
SMALL
GASTEIGER

@<TRIPOS>ATOM
      1  N1       -33.6750    6.5670   19.4510 N.3   1200  GSH1200    -0.1208
      2  CA1      -33.0930    7.4540   18.4640 C.3   1200  GSH1200     0.1948
      3  C1       -31.5930    7.4860   18.6070 C.2   1200  GSH1200     0.3819
      4  O11      -30.8850    7.7690   17.6210 O.co2 1200  GSH1200    -0.2441
      5  O12      -31.0610    7.2110   19.7140 O.co2 1200  GSH1200    -0.2441
      6  CB1      -33.6560    8.8550   18.6780 C.3   1200  GSH1200     0.0402
      7  CG1      -33.4760    9.6900   17.4170 C.3   1200  GSH1200     0.0889
      8  CD1      -34.0960   11.0380   17.6780 C.2   1200  GSH1200     0.2418
      9  OE1      -35.3730   11.1000   18.2640 O.2   1200  GSH1200    -0.2733
     10  N2       -33.3910   12.1210   17.3420 N.am  1200  GSH1200    -0.1968
     11  CA2      -33.8660   13.4590   17.6970 C.3   1200  GSH1200     0.1843
     12  C2       -34.3980   14.1930   16.5100 C.2   1200  GSH1200     0.2627
     13  O2       -33.7970   14.0240   15.2560 O.2   1200  GSH1200    -0.2714
     14  CB2      -32.7790   14.3200   18.3390 C.3   1200  GSH1200     0.0997
     15  SG2      -32.3250   13.7870   20.0100 S.3   1200  GSH1200    -0.0797
     16  N3       -35.4230   15.0140   16.7460 N.am  1200  GSH1200    -0.1917
     17  CA3      -35.7280   16.1580   15.9000 C.3   1200  GSH1200     0.2285
     18  C3       -36.6260   15.7230   14.7670 C.2   1200  GSH1200     0.3865
     19  O31      -36.9230   16.5020   13.8290 O.co2 1200  GSH1200    -0.2437
     20  O32      -37.0750   14.5550   14.7560 O.co2 1200  GSH1200    -0.2437
@<TRIPOS>BOND
     1    19    18   ar
     2    20    18   ar
     3    18    17    1
     4    13    12    2
     5    17    16    1
     6    12    16   am
     7    12    11    1
     8    10     8   am
     9    10    11    1
    10     7     8    1
    11     7     6    1
    12     4     3   ar
    13     8     9    2
    14    11    14    1
    15    14    15    1
    16     2     3    1
    17     2     6    1
    18     2     1    1
    19     3     5   ar
