@<TRIPOS>MOLECULE
2vcs_HEM_A_1.pdb
 43 50 0 0 0
SMALL
GASTEIGER

@<TRIPOS>ATOM
      1 FE         14.5240   54.4450   19.0110 Fe    1251  HEM1251     0.0000
      2  CHA       13.3690   57.4710   20.2490 C.2   1251  HEM1251     0.0000
      3  CHB       12.3860   54.8320   16.2730 C.2   1251  HEM1251     0.0000
      4  CHC       15.7750   51.6570   17.6450 C.2   1251  HEM1251     0.0000
      5  CHD       16.8080   54.2850   21.5190 C.2   1251  HEM1251     0.0000
      6  NA        13.1470   55.8950   18.3660 N.ar  1251  HEM1251     0.0000
      7  C1A       12.8340   57.0460   19.0450 C.ar  1251  HEM1251     0.0000
      8  C2A       11.8380   57.7530   18.2860 C.ar  1251  HEM1251     0.0000
      9  C3A       11.5480   57.0420   17.1780 C.ar  1251  HEM1251     0.0000
     10  C4A       12.3670   55.8440   17.2210 C.ar  1251  HEM1251     0.0000
     11  CMA       10.5330   57.4100   16.0660 C.3   1251  HEM1251     0.0000
     12  CAA       11.2490   59.1070   18.7170 C.3   1251  HEM1251     0.0000
     13  CBA       12.1420   60.2890   18.3540 C.3   1251  HEM1251     0.0000
     14  CGA       11.4400   61.4930   18.9320 C.2   1251  HEM1251     0.0000
     15  O1A       10.3300   61.8180   18.4440 O.co2 1251  HEM1251     0.0000
     16  O2A       11.9460   62.1040   19.9160 O.co2 1251  HEM1251     0.0000
     17  NB        14.1890   53.4780   17.2360 N.2   1251  HEM1251     0.0000
     18  C1B       13.1570   53.6920   16.3380 C.2   1251  HEM1251     0.0000
     19  C2B       13.0540   52.5330   15.4720 C.2   1251  HEM1251     0.0000
     20  C3B       13.9860   51.6480   15.8520 C.2   1251  HEM1251     0.0000
     21  C4B       14.7070   52.2300   16.9950 C.2   1251  HEM1251     0.0000
     22  CMB       12.0250   52.4070   14.3290 C.3   1251  HEM1251     0.0000
     23  CAB       14.2640   50.2490   15.2630 C.2   1251  HEM1251     0.0000
     24  CBB       14.2800   49.1810   16.0880 C.2   1251  HEM1251     0.0000
     25  NC        16.0430   53.1960   19.4870 N.ar  1251  HEM1251     0.0000
     26  C1C       16.4450   52.1180   18.7450 C.ar  1251  HEM1251     0.0000
     27  C2C       17.6250   51.5360   19.3540 C.ar  1251  HEM1251     0.0000
     28  C3C       17.9170   52.2750   20.4520 C.ar  1251  HEM1251     0.0000
     29  C4C       16.9090   53.3260   20.5410 C.ar  1251  HEM1251     0.0000
     30  CMC       18.3550   50.3090   18.7800 C.3   1251  HEM1251     0.0000
     31  CAC       19.0780   52.1230   21.4720 C.2   1251  HEM1251     0.0000
     32  CBC       19.5070   50.9200   21.8900 C.2   1251  HEM1251     0.0000
     33  ND        15.0400   55.7170   20.6090 N.2   1251  HEM1251     0.0000
     34  C1D       15.9240   55.3290   21.6090 C.2   1251  HEM1251     0.0000
     35  C2D       15.7530   56.1930   22.7640 C.2   1251  HEM1251     0.0000
     36  C3D       14.6830   57.1880   22.3500 C.2   1251  HEM1251     0.0000
     37  C4D       14.3100   56.8210   21.0010 C.2   1251  HEM1251     0.0000
     38  CMD       16.4840   56.1160   24.1190 C.3   1251  HEM1251     0.0000
     39  CAD       14.0930   58.3250   23.1920 C.3   1251  HEM1251     0.0000
     40  CBD       14.8210   59.6420   22.9330 C.3   1251  HEM1251     0.0000
     41  CGD       14.3060   60.6950   23.8900 C.2   1251  HEM1251     0.0000
     42  O1D       13.7160   60.3560   24.9590 O.co2 1251  HEM1251     0.0000
     43  O2D       14.4860   61.8900   23.5670 O.co2 1251  HEM1251     0.0000
@<TRIPOS>BOND
     1    22    19    1
     2    23    20    1
     3    23    24    2
     4    19    20    2
     5    19    18    1
     6    20    21    1
     7    11     9    1
     8     3    18    1
     9     3    10    2
    10    18    17    2
    11    21    17    1
    12    21     4    2
    13     9    10   ar
    14     9     8   ar
    15    10     6   ar
    16    17     1    1
    17     4    26    1
    18     8    12    1
    19     8     7   ar
    20    13    12    1
    21    13    14    1
    22     6     1    1
    23     6     7   ar
    24    15    14   ar
    25    26    27   ar
    26    26    25   ar
    27    30    27    1
    28    14    16   ar
    29     1    25    1
    30     1    33    1
    31     7     2    2
    32    27    28   ar
    33    25    29   ar
    34     2    37    1
    35    28    29   ar
    36    28    31    1
    37    29     5    1
    38    33    37    2
    39    33    34    1
    40    37    36    1
    41    31    32    2
    42     5    34    2
    43    34    35    1
    44    36    35    2
    45    36    39    1
    46    35    38    1
    47    40    39    1
    48    40    41    1
    49    43    41   ar
    50    41    42   ar
