@<TRIPOS>MOLECULE
2vcs_ISZ_A_1.pdb
 10 10 0 0 0
SMALL
GASTEIGER

@<TRIPOS>ATOM
      1  C2        14.3370   56.6410   14.0060 C.ar  1252  ISZ1252     0.0253
      2  C4        15.1820   55.7400   14.6650 C.ar  1252  ISZ1252     0.0990
      3  N1        15.6970   56.0430   15.8810 N.ar  1252  ISZ1252    -0.2423
      4  C5        15.4340   57.2210   16.4870 C.ar  1252  ISZ1252     0.0990
      5  C3        14.6140   58.1570   15.8540 C.ar  1252  ISZ1252     0.0253
      6  C1        14.0540   57.8740   14.6050 C.ar  1252  ISZ1252     0.0595
      7  C6        13.1570   58.8800   13.9210 C.2   1252  ISZ1252     0.2823
      8  O1        12.7850   59.8720   14.5370 O.2   1252  ISZ1252    -0.2669
      9  N2        12.7740   58.6720   12.6590 N.am  1252  ISZ1252    -0.0886
     10  N3        11.9650   59.6150   11.9880 N.3   1252  ISZ1252     0.0074
@<TRIPOS>BOND
     1    10     9    1
     2     9     7   am
     3     7     8    2
     4     7     6    1
     5     1     6   ar
     6     1     2   ar
     7     6     5   ar
     8     2     3   ar
     9     5     4   ar
    10     3     4   ar
