@<TRIPOS>MOLECULE
2vct_ASD_A_1.pdb
 21 24 0 0 0
SMALL
GASTEIGER

@<TRIPOS>ATOM
      1  C1        -8.4540  -56.8240    3.0530 C.3   1223  ASD1223     0.0118
      2  C10       -7.8180  -57.9300    2.2050 C.3   1223  ASD1223     0.0157
      3  C11       -6.5140  -56.2000    0.7870 C.3   1223  ASD1223     0.0007
      4  C12       -6.2930  -55.5880   -0.6070 C.3   1223  ASD1223     0.0069
      5  C13       -5.7930  -56.6590   -1.5710 C.3   1223  ASD1223     0.0515
      6  C14       -6.7940  -57.8160   -1.5550 C.3   1223  ASD1223     0.0070
      7  C15       -6.5380  -58.6360   -2.8370 C.3   1223  ASD1223     0.0082
      8  C16       -6.2260  -57.5430   -3.8760 C.3   1223  ASD1223     0.0645
      9  C17       -5.8940  -56.3260   -3.0320 C.2   1223  ASD1223     0.1498
     10  C18       -4.3250  -57.0320   -1.2890 C.3   1223  ASD1223     0.0073
     11  C19       -6.5720  -58.4250    2.9550 C.3   1223  ASD1223     0.0041
     12  C2        -9.0340  -57.3780    4.3510 C.3   1223  ASD1223     0.0694
     13  C3       -10.1620  -58.2810    3.9180 C.2   1223  ASD1223     0.1725
     14  C4        -9.8930  -59.2350    2.8280 C.2   1223  ASD1223     0.0289
     15  C5        -8.7860  -59.1000    2.0610 C.2   1223  ASD1223    -0.0420
     16  C6        -8.5300  -60.1790    1.0360 C.3   1223  ASD1223     0.0221
     17  C7        -7.9630  -59.6450   -0.2880 C.3   1223  ASD1223     0.0044
     18  C8        -6.9760  -58.4850   -0.1850 C.3   1223  ASD1223     0.0010
     19  C9        -7.4700  -57.4030    0.7930 C.3   1223  ASD1223     0.0035
     20  O1       -11.2700  -58.2090    4.4370 O.2   1223  ASD1223    -0.2914
     21  O2        -5.7380  -55.1970   -3.4730 O.2   1223  ASD1223    -0.2961
@<TRIPOS>BOND
     1     8     9    1
     2     8     7    1
     3    21     9    2
     4     9     5    1
     5     7     6    1
     6     5     6    1
     7     5    10    1
     8     5     4    1
     9     6    18    1
    10     4     3    1
    11    17    18    1
    12    17    16    1
    13    18    19    1
    14     3    19    1
    15    19     2    1
    16    16    15    1
    17    15     2    1
    18    15    14    2
    19     2    11    1
    20     2     1    1
    21    14    13    1
    22     1    12    1
    23    13    12    1
    24    13    20    2
