@<TRIPOS>MOLECULE
2vcv_ASD_A_1.pdb
 21 24 0 0 0
SMALL
GASTEIGER

@<TRIPOS>ATOM
      1  C1       -36.4140   10.8940    7.6970 C.3   1224  ASD1224     0.0118
      2  C10      -36.6290   11.8900    6.5430 C.3   1224  ASD1224     0.0157
      3  C11      -38.0980   10.2740    5.1580 C.3   1224  ASD1224     0.0007
      4  C12      -38.2490    9.4560    3.8660 C.3   1224  ASD1224     0.0069
      5  C13      -38.0700   10.3480    2.6380 C.3   1224  ASD1224     0.0515
      6  C14      -36.7180   11.0410    2.7270 C.3   1224  ASD1224     0.0070
      7  C15      -36.4040   11.5780    1.3280 C.3   1224  ASD1224     0.0082
      8  C16      -36.9500   10.4870    0.3960 C.3   1224  ASD1224     0.0645
      9  C17      -37.8380    9.6670    1.3130 C.2   1224  ASD1224     0.1498
     10  C18      -39.2560   11.3100    2.4910 C.3   1224  ASD1224     0.0073
     11  C19      -37.8920   12.7030    6.8620 C.3   1224  ASD1224     0.0041
     12  C2       -35.8420   11.4890    8.9910 C.3   1224  ASD1224     0.0694
     13  C3       -34.6420   12.3560    8.6820 C.2   1224  ASD1224     0.1725
     14  C4       -34.6430   13.1510    7.4500 C.2   1224  ASD1224     0.0289
     15  C5       -35.4460   12.8560    6.4170 C.2   1224  ASD1224    -0.0420
     16  C6       -35.1090   13.5710    5.1230 C.3   1224  ASD1224     0.0221
     17  C7       -35.2290   12.6390    3.9350 C.3   1224  ASD1224     0.0044
     18  C8       -36.5860   11.9520    3.9460 C.3   1224  ASD1224     0.0010
     19  C9       -36.7950   11.1010    5.2220 C.3   1224  ASD1224     0.0035
     20  O1       -33.6750   12.4110    9.4240 O.2   1224  ASD1224    -0.2914
     21  O2       -38.2910    8.5780    0.9920 O.2   1224  ASD1224    -0.2961
@<TRIPOS>BOND
     1     8     9    1
     2     8     7    1
     3    21     9    2
     4     9     5    1
     5     7     6    1
     6    10     5    1
     7     5     6    1
     8     5     4    1
     9     6    18    1
    10     4     3    1
    11    17    18    1
    12    17    16    1
    13    18    19    1
    14    16    15    1
    15     3    19    1
    16    19     2    1
    17    15     2    1
    18    15    14    2
    19     2    11    1
    20     2     1    1
    21    14    13    1
    22     1    12    1
    23    13    12    1
    24    13    20    2
