@<TRIPOS>MOLECULE
2vcv_GSH_A_1.pdb
 20 19 0 0 0
SMALL
GASTEIGER

@<TRIPOS>ATOM
      1  O12      -36.6100   21.3950   10.7010 O.co2 1223  GSH1223    -0.2441
      2  C1       -37.5640   20.7250   11.1720 C.2   1223  GSH1223     0.3819
      3  O11      -38.7190   21.0380   10.8440 O.co2 1223  GSH1223    -0.2441
      4  CA1      -37.3930   19.5510   12.1120 C.3   1223  GSH1223     0.1948
      5  N1       -37.6070   19.9330   13.4980 N.3   1223  GSH1223    -0.1208
      6  CB1      -36.0370   18.8670   11.9610 C.3   1223  GSH1223     0.0402
      7  CG1      -35.9860   18.1160   10.6380 C.3   1223  GSH1223     0.0889
      8  CD1      -34.7350   17.2780   10.5770 C.2   1223  GSH1223     0.2418
      9  OE1      -34.5220   16.3040   11.5630 O.2   1223  GSH1223    -0.2733
     10  N2       -33.8900   17.5160    9.5760 N.am  1223  GSH1223    -0.1968
     11  CA2      -33.2440   16.4470    8.8280 C.3   1223  GSH1223     0.1843
     12  CB2      -33.6620   16.4950    7.3480 C.3   1223  GSH1223     0.0997
     13  SG2      -35.4500   16.7140    7.0290 S.3   1223  GSH1223    -0.0797
     14  C2       -31.7400   16.4830    9.0170 C.2   1223  GSH1223     0.2627
     15  O2       -30.9540   17.5510    8.5370 O.2   1223  GSH1223    -0.2714
     16  N3       -31.1940   15.4640    9.6790 N.am  1223  GSH1223    -0.1917
     17  CA3      -29.7550   15.3380    9.8660 C.3   1223  GSH1223     0.2285
     18  C3       -29.3870   15.2030   11.3340 C.2   1223  GSH1223     0.3865
     19  O31      -28.1940   15.2870   11.7010 O.co2 1223  GSH1223    -0.2437
     20  O32      -30.2670   15.0070   12.2050 O.co2 1223  GSH1223    -0.2437
@<TRIPOS>BOND
     1    13    12    1
     2    12    11    1
     3    15    14    2
     4    11    14    1
     5    11    10    1
     6    14    16   am
     7    10     8   am
     8    16    17    1
     9    17    18    1
    10     8     7    1
    11     8     9    2
    12     7     6    1
    13     1     2   ar
    14     3     2   ar
    15     2     4    1
    16    18    19   ar
    17    18    20   ar
    18     6     4    1
    19     4     5    1
