@<TRIPOS>MOLECULE
2vcw_ZZA_B_1.pdb
 14 15 0 0 0
SMALL
GASTEIGER

@<TRIPOS>ATOM
      1  O1         4.6820   12.1750    4.9050 O.co2 1201  ZZA1201    -0.2404
      2  C2         4.3740   13.4150    4.4810 C.2   1201  ZZA1201     0.3908
      3  O3         3.9540   14.2240    5.2830 O.co2 1201  ZZA1201    -0.2404
      4  C4         4.5440   13.7930    3.0610 C.ar  1201  ZZA1201     0.1197
      5  C5         5.0770   12.9880    2.0230 C.ar  1201  ZZA1201     0.1286
      6  N6         5.0630   13.6930    0.9160 N.ar  1201  ZZA1201    -0.1632
      7  N7         4.5230   14.9660    1.1840 N.ar  1201  ZZA1201    -0.2279
      8  C8         4.2210   15.0180    2.4980 C.ar  1201  ZZA1201     0.1086
      9  C9         4.3520   16.0200    0.2550 C.ar  1201  ZZA1201     0.0829
     10  C10        3.3860   17.0100    0.4670 C.ar  1201  ZZA1201     0.0191
     11  C11        3.2450   18.0460   -0.4400 C.ar  1201  ZZA1201     0.0015
     12  C12        4.0530   18.1100   -1.5670 C.ar  1201  ZZA1201     0.0001
     13  C13        5.0100   17.1320   -1.7910 C.ar  1201  ZZA1201     0.0015
     14  C14        5.1620   16.0940   -0.8800 C.ar  1201  ZZA1201     0.0191
@<TRIPOS>BOND
     1    13    12   ar
     2    13    14   ar
     3    12    11   ar
     4    14     9   ar
     5    11    10   ar
     6     9    10   ar
     7     9     7    1
     8     6     7   ar
     9     6     5   ar
    10     7     8   ar
    11     5     4   ar
    12     8     4   ar
    13     4     2    1
    14     2     1   ar
    15     2     3   ar
