@<TRIPOS>MOLECULE
2vcw_GSH_A_1.pdb
 20 19 0 0 0
SMALL
GASTEIGER

@<TRIPOS>ATOM
      1  N1        -6.8900   27.3780   -2.7750 N.3   1200  GSH1200    -0.1208
      2  CA1       -7.7000   27.8420   -3.8890 C.3   1200  GSH1200     0.1948
      3  C1        -7.8440   29.3350   -3.8000 C.2   1200  GSH1200     0.3819
      4  O11       -8.1440   30.0280   -4.8090 O.co2 1200  GSH1200    -0.2441
      5  O12       -7.6490   29.8790   -2.6930 O.co2 1200  GSH1200    -0.2441
      6  CB1       -9.0560   27.1690   -3.7890 C.3   1200  GSH1200     0.0402
      7  CG1       -9.9980   27.4720   -4.9490 C.3   1200  GSH1200     0.0889
      8  CD1      -11.2880   26.7060   -4.7220 C.2   1200  GSH1200     0.2418
      9  OE1      -11.2470   25.3400   -4.3590 O.2   1200  GSH1200    -0.2733
     10  N2       -12.4330   27.3740   -4.8720 N.am  1200  GSH1200    -0.1968
     11  CA2      -13.7170   26.7670   -4.5630 C.3   1200  GSH1200     0.1843
     12  C2       -14.3980   26.2990   -5.8160 C.2   1200  GSH1200     0.2627
     13  O2       -14.2230   27.0010   -7.0150 O.2   1200  GSH1200    -0.2714
     14  CB2      -14.6420   27.7460   -3.8360 C.3   1200  GSH1200     0.0997
     15  SG2      -14.0050   28.2950   -2.2280 S.3   1200  GSH1200    -0.0797
     16  N3       -15.1730   25.2280   -5.7090 N.am  1200  GSH1200    -0.1917
     17  CA3      -16.2840   24.9920   -6.6220 C.3   1200  GSH1200     0.2285
     18  C3       -15.8620   23.9340   -7.6080 C.2   1200  GSH1200     0.3865
     19  O31      -16.6480   23.5400   -8.5040 O.co2 1200  GSH1200    -0.2437
     20  O32      -14.7040   23.4430   -7.5080 O.co2 1200  GSH1200    -0.2437
@<TRIPOS>BOND
     1    19    18   ar
     2    18    20   ar
     3    18    17    1
     4    13    12    2
     5    17    16    1
     6    12    16   am
     7    12    11    1
     8     7     8    1
     9     7     6    1
    10    10     8   am
    11    10    11    1
    12     4     3   ar
    13     8     9    2
    14    11    14    1
    15     2     3    1
    16     2     6    1
    17     2     1    1
    18    14    15    1
    19     3     5   ar
