@<TRIPOS>MOLECULE
2vcx_D26_B_1.pdb
 16 18 0 0 0
SMALL
GASTEIGER

@<TRIPOS>ATOM
      1  C1        11.6920    4.7080   21.5450 C.ar  1201  D261201     0.0440
      2  C2        13.0510    4.6450   21.8940 C.ar  1201  D261201     0.1120
      3  C3        13.6230    4.7270   23.2410 C.ar  1201  D261201     0.0694
      4  C6        11.6380    4.5640   20.2000 C.ar  1201  D261201     0.1238
      5  N11       13.9290    5.1210   25.4830 N.ar  1201  D261201    -0.2368
      6  C12       15.1310    4.5530   25.4130 C.ar  1201  D261201     0.1108
      7  C13       16.1890    4.3560   26.4250 C.ar  1201  D261201     0.0238
      8  C14       16.1520    5.0500   27.6340 C.ar  1201  D261201     0.0020
      9  C15       17.1790    4.8820   28.5390 C.ar  1201  D261201     0.0001
     10  C16       18.2400    4.0420   28.2490 C.ar  1201  D261201     0.0000
     11  C17       18.2930    3.3590   27.0460 C.ar  1201  D261201     0.0001
     12  C18       17.2660    3.5160   26.1290 C.ar  1201  D261201     0.0020
     13  N6        13.7800    4.4460   20.8170 N.ar  1201  D261201    -0.1473
     14  S3        15.2290    4.1080   23.6930 S.2   1201  D261201    -0.0649
     15  C4        13.1500    5.2200   24.4330 C.ar  1201  D261201     0.1075
     16  N10       12.9040    4.3990   19.7370 N.ar  1201  D261201    -0.1463
@<TRIPOS>BOND
     1    16     4   ar
     2    16    13   ar
     3     4     1   ar
     4    13     2   ar
     5     1     2   ar
     6     2     3    1
     7     3    14   ar
     8     3    15   ar
     9    14     6   ar
    10    15     5   ar
    11     6     5   ar
    12     6     7    1
    13    12     7   ar
    14    12    11   ar
    15     7     8   ar
    16    11    10   ar
    17     8     9   ar
    18    10     9   ar
