@<TRIPOS>MOLECULE
2vcx_GSH_A_1.pdb
 20 19 0 0 0
SMALL
GASTEIGER

@<TRIPOS>ATOM
      1  N1        27.2920   -6.6690   29.1520 N.3   1201  GSH1201    -0.1208
      2  CA1       27.8440   -7.6460   30.0840 C.3   1201  GSH1201     0.1948
      3  C1        29.3290   -7.7410   29.9350 C.2   1201  GSH1201     0.3819
      4  O11       30.0300   -8.0430   30.9300 O.co2 1201  GSH1201    -0.2441
      5  O12       29.8430   -7.5110   28.8140 O.co2 1201  GSH1201    -0.2441
      6  CB1       27.2560   -9.0210   29.8230 C.3   1201  GSH1201     0.0402
      7  CG1       27.6790  -10.0530   30.8740 C.3   1201  GSH1201     0.0889
      8  CD1       26.9720  -11.3650   30.6050 C.2   1201  GSH1201     0.2418
      9  OE1       25.6890  -11.3890   30.0340 O.2   1201  GSH1201    -0.2733
     10  N2        27.6080  -12.4810   30.9130 N.am  1201  GSH1201    -0.1968
     11  CA2       27.0590  -13.7700   30.5470 C.3   1201  GSH1201     0.1843
     12  C2        26.3160  -14.3920   31.6880 C.2   1201  GSH1201     0.2627
     13  O2        26.7630  -14.2490   33.0090 O.2   1201  GSH1201    -0.2714
     14  CB2       28.1750  -14.7090   30.0770 C.3   1201  GSH1201     0.0997
     15  SG2       28.6150  -14.4320   28.3470 S.3   1201  GSH1201    -0.0797
     16  N3        25.2330  -15.0880   31.3640 N.am  1201  GSH1201    -0.1917
     17  CA3       24.8190  -16.2910   32.0830 C.3   1201  GSH1201     0.2285
     18  C3        23.9830  -15.9190   33.2850 C.2   1201  GSH1201     0.3865
     19  O31       23.5660  -16.7900   34.0880 O.co2 1201  GSH1201    -0.2437
     20  O32       23.7120  -14.7140   33.4880 O.co2 1201  GSH1201    -0.2437
@<TRIPOS>BOND
     1    15    14    1
     2     5     3   ar
     3     1     2    1
     4     6     2    1
     5     6     7    1
     6     3     2    1
     7     3     4   ar
     8     9     8    2
     9    14    11    1
    10    11    10    1
    11    11    12    1
    12     8     7    1
    13     8    10   am
    14    16    12   am
    15    16    17    1
    16    12    13    2
    17    17    18    1
    18    18    20   ar
    19    18    19   ar
