@<TRIPOS>MOLECULE
2vcz_GSH_A_1.pdb
 20 19 0 0 0
SMALL
GASTEIGER

@<TRIPOS>ATOM
      1  N1        89.0150   55.0870    6.7540 N.3   1200  GSH1200    -0.1208
      2  CA1       89.4310   54.1400    7.7850 C.3   1200  GSH1200     0.1948
      3  C1        90.9230   53.9440    7.7150 C.2   1200  GSH1200     0.3819
      4  O11       91.5960   53.6040    8.7210 O.co2 1200  GSH1200    -0.2441
      5  O12       91.5090   54.1510    6.6310 O.co2 1200  GSH1200    -0.2441
      6  CB1       88.6870   52.8270    7.5750 C.3   1200  GSH1200     0.0402
      7  CG1       88.8950   51.8550    8.7400 C.3   1200  GSH1200     0.0889
      8  CD1       88.2780   50.5170    8.3710 C.2   1200  GSH1200     0.2418
      9  OE1       87.0280   50.4690    7.7130 O.2   1200  GSH1200    -0.2733
     10  N2        88.9500   49.4140    8.6870 N.am  1200  GSH1200    -0.1968
     11  CA2       88.3840   48.1040    8.3910 C.3   1200  GSH1200     0.1843
     12  C2        87.8150   47.4870    9.6390 C.2   1200  GSH1200     0.2627
     13  O2        88.5800   47.4540   10.8170 O.2   1200  GSH1200    -0.2714
     14  CB2       89.4220   47.1700    7.7720 C.3   1200  GSH1200     0.0997
     15  SG2       89.9410   47.6440    6.0950 S.3   1200  GSH1200    -0.0797
     16  N3        86.5840   47.0030    9.5580 N.am  1200  GSH1200    -0.1917
     17  CA3       86.2140   45.7170   10.1380 C.3   1200  GSH1200     0.2285
     18  C3        85.8150   45.8600   11.5910 C.2   1200  GSH1200     0.3865
     19  O31       85.1220   44.9920   12.1680 O.co2 1200  GSH1200    -0.2437
     20  O32       86.1780   46.8580   12.2450 O.co2 1200  GSH1200    -0.2437
@<TRIPOS>BOND
     1    15    14    1
     2     5     3   ar
     3     1     2    1
     4     6     2    1
     5     6     7    1
     6     9     8    2
     7     3     2    1
     8     3     4   ar
     9    14    11    1
    10     8    10   am
    11     8     7    1
    12    11    10    1
    13    11    12    1
    14    16    12   am
    15    16    17    1
    16    12    13    2
    17    17    18    1
    18    18    19   ar
    19    18    20   ar
