@<TRIPOS>MOLECULE
2vcz_VC3_B_1.pdb
 14 15 0 0 0
SMALL
GASTEIGER

@<TRIPOS>ATOM
      1  N1        73.8930   66.7500    0.8870 N.pl3 1200  VC31200     0.0577
      2  N2        79.1200   65.9070    4.7810 N.2   1200  VC31200    -0.1523
      3  C3        78.6770   65.3520    3.6760 C.2   1200  VC31200     0.0865
      4  N4        80.3420   65.3070    5.1010 N.2   1200  VC31200    -0.1510
      5  C5        75.1230   66.4010    1.6190 C.ar  1200  VC31200     0.1429
      6  C6        79.6210   64.3930    3.2590 C.3   1200  VC31200     0.0964
      7  O7        73.8490   66.6590   -0.3280 O.2   1200  VC31200    -0.1261
      8  O8        72.9130   67.1130    1.4960 O.2   1200  VC31200    -0.1261
      9  C9        77.4230   65.7070    2.9740 C.ar  1200  VC31200     0.0158
     10  C10       80.6320   64.3940    4.1540 C.2   1200  VC31200     0.1021
     11  C11       76.1490   65.7530    0.9430 C.ar  1200  VC31200     0.0241
     12  C12       75.2350   66.7080    2.9680 C.ar  1200  VC31200     0.0241
     13  C13       77.3020   65.4070    1.6150 C.ar  1200  VC31200     0.0029
     14  C14       76.3900   66.3690    3.6460 C.ar  1200  VC31200     0.0029
@<TRIPOS>BOND
     1     7     1    2
     2     1     8    2
     3     1     5    1
     4    11    13   ar
     5    11     5   ar
     6    13     9   ar
     7     5    12   ar
     8    12    14   ar
     9     9    14   ar
    10     9     3    1
    11     6     3    1
    12     6    10    1
    13     3     2    2
    14    10     4    2
    15     2     4    1
