@<TRIPOS>MOLECULE
2vd0_GSH_A_1.pdb
 20 19 0 0 0
SMALL
GASTEIGER

@<TRIPOS>ATOM
      1  N1       117.2450   27.4480   -6.9180 N.3   1200  GSH1200    -0.1208
      2  CA1      116.3150   27.8650   -7.9370 C.3   1200  GSH1200     0.1948
      3  C1       116.1070   29.3520   -7.8410 C.2   1200  GSH1200     0.3819
      4  O11      115.7650   30.0240   -8.8330 O.co2 1200  GSH1200    -0.2441
      5  O12      116.2880   29.9230   -6.7410 O.co2 1200  GSH1200    -0.2441
      6  CB1      115.0000   27.1280   -7.7350 C.3   1200  GSH1200     0.0402
      7  CG1      114.0300   27.4280   -8.8790 C.3   1200  GSH1200     0.0889
      8  CD1      112.6740   26.8420   -8.5510 C.2   1200  GSH1200     0.2418
      9  OE1      112.5590   25.4980   -8.1150 O.2   1200  GSH1200    -0.2733
     10  N2       111.6200   27.6380   -8.6880 N.am  1200  GSH1200    -0.1968
     11  CA2      110.2890   27.1120   -8.4390 C.3   1200  GSH1200     0.1843
     12  C2       109.7260   26.4600   -9.6770 C.2   1200  GSH1200     0.2627
     13  O2       109.7220   27.1140  -10.9290 O.2   1200  GSH1200    -0.2714
     14  CB2      109.3540   28.1760   -7.8550 C.3   1200  GSH1200     0.0997
     15  SG2      109.7830   28.5920   -6.1380 S.3   1200  GSH1200    -0.0797
     16  N3       109.2560   25.2320   -9.4980 N.am  1200  GSH1200    -0.1917
     17  CA3      108.0190   24.7880  -10.1140 C.3   1200  GSH1200     0.2285
     18  C3       108.2960   24.0820  -11.4210 C.2   1200  GSH1200     0.3865
     19  O31      107.3530   23.7990  -12.1960 O.co2 1200  GSH1200    -0.2437
     20  O32      109.4720   23.7740  -11.7380 O.co2 1200  GSH1200    -0.2437
@<TRIPOS>BOND
     1    19    18   ar
     2    20    18   ar
     3    18    17    1
     4    13    12    2
     5    17    16    1
     6    12    16   am
     7    12    11    1
     8     7     8    1
     9     7     6    1
    10     4     3   ar
    11    10     8   am
    12    10    11    1
    13     8     9    2
    14    11    14    1
    15     2     3    1
    16     2     6    1
    17     2     1    1
    18    14    15    1
    19     3     5   ar
