@<TRIPOS>MOLECULE
2vd0_D27_B_1.pdb
 24 25 0 0 0
SMALL
GASTEIGER

@<TRIPOS>ATOM
      1  C1       127.6440   17.1120   -4.1000 C.ar  1200  D271200     0.0951
      2  C2       128.4440   15.9430   -4.1890 C.ar  1200  D271200     0.0800
      3  C3       126.7620   17.3720   -2.9450 C.2   1200  D271200     0.3890
      4  N4       128.5030   15.0220   -3.1240 N.am  1200  D271200    -0.1752
      5  C5       129.1950   13.8360   -3.1030 C.2   1200  D271200     0.2691
      6  C6       129.2280   13.0100   -1.8970 C.2   1200  D271200     0.0598
      7  C7       128.3330   12.8030    2.8950 C.ar  1200  D271200     0.1724
      8  C8       128.5960   13.4150   -0.7750 C.2   1200  D271200     0.0048
      9  C9       128.5360   11.4150    3.0060 C.ar  1200  D271200     0.1724
     10  C10      128.3710   13.4130    1.6550 C.ar  1200  D271200     0.0400
     11  O11      126.6760   16.5770   -2.0340 O.co2 1200  D271200    -0.2405
     12  O12      129.8130   13.4120   -4.0640 O.2   1200  D271200    -0.2680
     13  C13      128.5980   12.6640    0.4930 C.ar  1200  D271200     0.0034
     14  C14      128.7790   10.6580    1.8410 C.ar  1200  D271200     0.0400
     15  O15      126.0130   18.4920   -2.9050 O.co2 1200  D271200    -0.2405
     16  C16      128.8080   11.2670    0.5900 C.ar  1200  D271200     0.0033
     17  O17      128.1150   13.5690    4.0050 O.3   1200  D271200    -0.4684
     18  C18      127.6500   18.0400   -5.1450 C.ar  1200  D271200     0.0079
     19  O19      128.5230   10.8450    4.2600 O.3   1200  D271200    -0.4684
     20  C20      129.2380   15.7860   -5.3330 C.ar  1200  D271200     0.0168
     21  C21      126.7770   14.0940    3.9840 C.3   1200  D271200     0.2526
     22  C22      127.5950    9.7480    4.3480 C.3   1200  D271200     0.2526
     23  C23      128.4370   17.8440   -6.2680 C.ar  1200  D271200     0.0003
     24  C24      129.2330   16.7130   -6.3680 C.ar  1200  D271200     0.0013
@<TRIPOS>BOND
     1    24    23   ar
     2    24    20   ar
     3    23    18   ar
     4    20     2   ar
     5    18     1   ar
     6     2     1   ar
     7     2     4    1
     8     1     3    1
     9    12     5    2
    10     4     5   am
    11     5     6    1
    12     3    15   ar
    13     3    11   ar
    14     6     8    2
    15     8    13    1
    16    13    16   ar
    17    13    10   ar
    18    16    14   ar
    19    10     7   ar
    20    14     9   ar
    21     7     9   ar
    22     7    17    1
    23     9    19    1
    24    21    17    1
    25    19    22    1
