@<TRIPOS>MOLECULE
2vd1_D28_B_1.pdb
 24 26 0 0 0
SMALL
GASTEIGER

@<TRIPOS>ATOM
      1  C1        14.7390    4.6710   -1.4930 C.2   1200  D281200     0.1225
      2  C2        15.8880    4.3030   -0.6330 C.ar  1200  D281200     0.0262
      3  N3        14.8590    4.5200   -2.8080 N.2   1200  D281200    -0.3825
      4  C4        13.5770    5.1600   -0.9770 C.3   1200  D281200     0.1247
      5  C5        16.2260    5.0590    0.4910 C.ar  1200  D281200     0.0002
      6  C6        16.6530    3.1900   -0.9770 C.ar  1200  D281200     0.0045
      7  C7        13.8870    4.8170   -3.6490 C.2   1200  D281200     0.2306
      8  S8        12.6560    5.3960   -2.4900 S.3   1200  D281200    -0.0577
      9  C9        17.3070    4.7170    1.2680 C.ar  1200  D281200     0.0057
     10  C10       17.7340    2.8520   -0.1920 C.ar  1200  D281200     0.0294
     11  N11       13.9100    4.6900   -5.0410 N.pl3 1200  D281200    -0.1781
     12  C12       18.0590    3.6110    0.9200 C.ar  1200  D281200     0.1361
     13  C13       17.6610    5.5360    2.4800 C.3   1200  D281200     0.0334
     14  C14       12.8480    4.6520   -5.9580 C.ar  1200  D281200     0.0768
     15  F15       19.1160    3.2450    1.6680 F     1200  D281200    -0.2045
     16  C16       13.2070    4.7840   -7.2980 C.ar  1200  D281200     0.0588
     17  C17       11.4960    4.4950   -5.6150 C.ar  1200  D281200     0.0170
     18  C18       12.2500    4.7660   -8.2970 C.ar  1200  D281200     0.2033
     19  C19       10.5310    4.4760   -6.5940 C.ar  1200  D281200     0.0112
     20  C20       10.8900    4.6090   -7.9560 C.ar  1200  D281200     0.1186
     21  O21       12.6260    4.9010   -9.5980 O.3   1200  D281200    -0.2863
     22  C22        9.8830    4.5890   -9.0440 C.2   1200  D281200     0.3909
     23  O23        9.5450    5.7440   -9.6630 O.co2 1200  D281200    -0.2404
     24  O24        9.3660    3.5390   -9.4000 O.co2 1200  D281200    -0.2404
@<TRIPOS>BOND
     1    23    22   ar
     2    21    18    1
     3    24    22   ar
     4    22    20    1
     5    18    20   ar
     6    18    16   ar
     7    20    19   ar
     8    16    14   ar
     9    19    17   ar
    10    14    17   ar
    11    14    11    1
    12    11     7    1
    13     7     3    2
    14     7     8    1
    15     3     1    2
    16     8     4    1
    17     1     4    1
    18     1     2    1
    19     6     2   ar
    20     6    10   ar
    21     2     5   ar
    22    10    12   ar
    23     5     9   ar
    24    12     9   ar
    25    12    15    1
    26     9    13    1
