@<TRIPOS>MOLECULE
2vd1_GSH_A_1.pdb
 20 19 0 0 0
SMALL
GASTEIGER

@<TRIPOS>ATOM
      1  N1        27.3070   -6.6080    2.7590 N.3   1200  GSH1200    -0.1208
      2  CA1       27.7980   -7.6330    3.6630 C.3   1200  GSH1200     0.1948
      3  C1        29.2880   -7.7250    3.5780 C.2   1200  GSH1200     0.3819
      4  O11       29.9430   -8.0960    4.5870 O.co2 1200  GSH1200    -0.2441
      5  O12       29.8600   -7.4290    2.4920 O.co2 1200  GSH1200    -0.2441
      6  CB1       27.2290   -9.0050    3.3280 C.3   1200  GSH1200     0.0402
      7  CG1       27.5230   -9.9690    4.4850 C.3   1200  GSH1200     0.0889
      8  CD1       26.8100  -11.2860    4.2780 C.2   1200  GSH1200     0.2418
      9  OE1       25.4730  -11.2860    3.8180 O.2   1200  GSH1200    -0.2733
     10  N2        27.4970  -12.3890    4.5720 N.am  1200  GSH1200    -0.1968
     11  CA2       26.9330  -13.7070    4.3330 C.3   1200  GSH1200     0.1843
     12  C2        26.2260  -14.3100    5.5280 C.2   1200  GSH1200     0.2627
     13  O2        26.8000  -14.3060    6.8040 O.2   1200  GSH1200    -0.2714
     14  CB2       28.0440  -14.6180    3.8200 C.3   1200  GSH1200     0.0997
     15  SG2       28.4910  -14.1610    2.1320 S.3   1200  GSH1200    -0.0797
     16  N3        25.0410  -14.8610    5.3200 N.am  1200  GSH1200    -0.1917
     17  CA3       24.7060  -16.1490    5.9170 C.3   1200  GSH1200     0.2285
     18  C3        24.0080  -15.9510    7.2410 C.2   1200  GSH1200     0.3865
     19  O31       23.7990  -16.9050    8.0330 O.co2 1200  GSH1200    -0.2437
     20  O32       23.6310  -14.7970    7.5570 O.co2 1200  GSH1200    -0.2437
@<TRIPOS>BOND
     1    15    14    1
     2     5     3   ar
     3     1     2    1
     4     6     2    1
     5     6     7    1
     6     3     2    1
     7     3     4   ar
     8     9     8    2
     9    14    11    1
    10     8     7    1
    11     8    10   am
    12    11    10    1
    13    11    12    1
    14    16    12   am
    15    16    17    1
    16    12    13    2
    17    17    18    1
    18    18    20   ar
    19    18    19   ar
