@<TRIPOS>MOLECULE
2vd3_HIS_A_1.pdb
 11 11 0 0 0
SMALL
GASTEIGER

@<TRIPOS>ATOM
      1  N         47.4560   93.6660  109.9860 N.3   1290  HIS1290    -0.1204
      2  CA        47.0810   94.2940  108.6750 C.3   1290  HIS1290     0.1999
      3  C         45.7940   93.6970  108.1210 C.2   1290  HIS1290     0.3822
      4  O         45.2120   94.2280  107.1770 O.co2 1290  HIS1290    -0.2440
      5  CB        48.2090   94.1310  107.6510 C.3   1290  HIS1290     0.0740
      6  CG        48.6440   92.7120  107.4490 C.2   1290  HIS1290     0.0651
      7  ND1       49.8980   92.2600  107.8050 N.2   1290  HIS1290    -0.2310
      8  CD2       47.9930   91.6450  106.9290 C.3   1290  HIS1290     0.1683
      9  CE1       49.9990   90.9740  107.5140 C.2   1290  HIS1290     0.1939
     10  NE2       48.8540   90.5770  106.9850 N.2   1290  HIS1290    -0.2440
     11  OXT       45.3070   92.6630  108.5990 O.co2 1290  HIS1290    -0.2440
@<TRIPOS>BOND
     1     8    10    1
     2     8     6    1
     3    10     9    2
     4     4     3   ar
     5     6     5    1
     6     6     7    2
     7     9     7    1
     8     5     2    1
     9     3    11   ar
    10     3     2    1
    11     2     1    1
