@<TRIPOS>MOLECULE
2vd4_P21_A_1.pdb
 29 31 0 0 0
SMALL
GASTEIGER

@<TRIPOS>ATOM
      1 CL15       69.2520   32.7850   34.1010 Cl    1454  P211454    -0.0822
      2  C11       69.4180   31.4710   35.2740 C.ar  1454  P211454     0.0577
      3  C14       68.2850   30.7890   35.6920 C.ar  1454  P211454     0.0115
      4  C9        68.4340   29.7540   36.6000 C.ar  1454  P211454     0.0054
      5  C13       70.6850   31.1710   35.7430 C.ar  1454  P211454     0.0115
      6  C8        70.8320   30.1440   36.6560 C.ar  1454  P211454     0.0054
      7  C5        69.7070   29.4580   37.0720 C.ar  1454  P211454     0.0536
      8  C1        69.8870   28.3470   38.0310 C.2   1454  P211454     0.2490
      9  O7        69.9920   27.2560   37.4990 O.2   1454  P211454    -0.2699
     10  N2        69.9350   28.5470   39.3450 N.am  1454  P211454    -0.2763
     11  C12       70.2470   27.4900   40.3290 C.3   1454  P211454     0.0963
     12  C19       71.3560   26.5690   39.8100 C.3   1454  P211454     0.0536
     13  C3        69.6060   29.8780   39.9030 C.3   1454  P211454     0.0916
     14  C6        70.8970   30.5180   40.4410 C.3   1454  P211454     0.0921
     15  N4        70.6230   31.7670   41.1680 N.3   1454  P211454    -0.2710
     16  C18       69.5240   31.7710   42.1480 C.3   1454  P211454     0.0722
     17  C21       68.2570   31.1390   41.5450 C.3   1454  P211454     0.0191
     18  C20       68.5520   29.7460   41.0070 C.3   1454  P211454     0.0227
     19  C10       71.8710   32.4550   41.5610 C.3   1454  P211454     0.0768
     20  C16       71.6860   33.9440   41.8400 C.3   1454  P211454     0.0437
     21  C17       73.0640   34.5690   41.9290 C.ar  1454  P211454    -0.0208
     22  C24       73.7990   34.5160   43.1180 C.ar  1454  P211454    -0.0042
     23  C28       75.0750   35.0870   43.1780 C.ar  1454  P211454    -0.0003
     24  C29       75.6150   35.7070   42.0520 C.ar  1454  P211454    -0.0000
     25  C27       74.8820   35.7510   40.8720 C.ar  1454  P211454    -0.0003
     26  C25       73.6160   35.1840   40.8090 C.ar  1454  P211454    -0.0042
     27  C23       72.1750   25.9490   40.9420 C.3   1454  P211454     0.1440
     28  O22       71.3300   25.2210   41.8340 O.3   1454  P211454    -0.3510
     29  C26       72.0610   24.4040   42.7530 C.3   1454  P211454     0.1741
@<TRIPOS>BOND
     1     1     2    1
     2     2     3   ar
     3     2     5   ar
     4     3     4   ar
     5     5     6   ar
     6     4     7   ar
     7     6     7   ar
     8     7     8    1
     9     9     8    2
    10     8    10   am
    11    10    13    1
    12    10    11    1
    13    12    11    1
    14    12    27    1
    15    13    14    1
    16    13    18    1
    17    14    15    1
    18    26    25   ar
    19    26    21   ar
    20    25    24   ar
    21    27    28    1
    22    18    17    1
    23    15    19    1
    24    15    16    1
    25    17    16    1
    26    19    20    1
    27    28    29    1
    28    20    21    1
    29    21    22   ar
    30    24    23   ar
    31    22    23   ar
