@<TRIPOS>MOLECULE
2vd6_AMP_A_1.pdb
 23 25 0 0 0
SMALL
GASTEIGER

@<TRIPOS>ATOM
      1  P         26.1820    5.8000   36.8050 P.3   1000  AMP1000     0.5327
      2  O1P       25.0350    6.6860   36.4030 O.3   1000  AMP1000    -0.1145
      3  O2P       27.1230    5.4330   35.6960 O.2   1000  AMP1000    -0.2224
      4  O3P       25.8280    4.6160   37.6520 O.3   1000  AMP1000    -0.1145
      5  O5'       27.1030    6.6860   37.7930 O.3   1000  AMP1000    -0.2675
      6  C5'       27.6120    7.9550   37.3830 C.3   1000  AMP1000     0.1860
      7  C4'       28.8580    8.2660   38.2040 C.3   1000  AMP1000     0.1823
      8  O4'       29.5460    9.4160   37.6930 O.3   1000  AMP1000    -0.3135
      9  C3'       28.4910    8.5990   39.6370 C.3   1000  AMP1000     0.2184
     10  O3'       29.5120    8.1110   40.4950 O.3   1000  AMP1000    -0.2174
     11  C2'       28.4310   10.1070   39.6250 C.3   1000  AMP1000     0.2570
     12  O2'       28.5830   10.7370   40.8960 O.3   1000  AMP1000    -0.2130
     13  C1'       29.5990   10.4330   38.7090 C.3   1000  AMP1000     0.3186
     14  N9        29.4630   11.7790   38.1100 N.pl3 1000  AMP1000    -0.1439
     15  C8        28.6090   12.7530   38.4780 C.3   1000  AMP1000     0.3377
     16  N7        28.7670   13.8390   37.6880 N.2   1000  AMP1000    -0.2095
     17  C5        29.7430   13.5490   36.8030 C.2   1000  AMP1000     0.2526
     18  C6        30.4010   14.2590   35.6950 C.2   1000  AMP1000     0.4393
     19  N6        29.9880   15.5080   35.4170 N.pl3 1000  AMP1000     0.2180
     20  N1        31.3720   13.6260   35.0050 N.2   1000  AMP1000     0.0021
     21  C2        31.7530   12.3670   35.3110 C.3   1000  AMP1000     0.5254
     22  N3        31.1910   11.6560   36.3150 N.2   1000  AMP1000    -0.0055
     23  C4        30.2070   12.1960   37.0810 C.2   1000  AMP1000     0.3518
@<TRIPOS>BOND
     1    20    21    1
     2    20    18    2
     3    21    22    1
     4    19    18    1
     5    18    17    1
     6     3     1    2
     7    22    23    2
     8     2     1    1
     9    17    23    1
    10    17    16    2
    11     1     4    1
    12     1     5    1
    13    23    14    1
    14     6     5    1
    15     6     7    1
    16    16    15    1
    17     8     7    1
    18     8    13    1
    19    14    15    1
    20    14    13    1
    21     7     9    1
    22    13    11    1
    23    11     9    1
    24    11    12    1
    25     9    10    1
