@<TRIPOS>MOLECULE
2vd6_2SA_B_1.pdb
 31 33 0 0 0
SMALL
GASTEIGER

@<TRIPOS>ATOM
      1  PA         6.5880   -6.4050   -4.1680 P.3   1002  2SA1002     0.5327
      2  O1A        5.2110   -5.7630   -4.0990 O.3   1002  2SA1002    -0.1145
      3  O2A        7.6990   -5.3950   -4.1230 O.2   1002  2SA1002    -0.2224
      4  O3A        6.7920   -7.5610   -3.2340 O.3   1002  2SA1002    -0.1145
      5  O5'        6.5900   -7.0880   -5.6260 O.3   1002  2SA1002    -0.2675
      6  C5'        7.7570   -7.7500   -6.1130 C.3   1002  2SA1002     0.1860
      7  C4'        7.7430   -7.7760   -7.6320 C.3   1002  2SA1002     0.1823
      8  O4'        8.9660   -8.3570   -8.1060 O.3   1002  2SA1002    -0.3135
      9  C1'        8.6580   -9.4120   -9.0140 C.3   1002  2SA1002     0.3186
     10  N9         9.6900  -10.4850   -9.0500 N.pl3 1002  2SA1002    -0.1439
     11  C4        10.9960  -10.2730   -9.2140 C.2   1002  2SA1002     0.3517
     12  N3        11.7130   -9.1360   -9.3300 N.2   1002  2SA1002    -0.0055
     13  C2        13.0450   -9.2040   -9.4570 C.3   1002  2SA1002     0.5253
     14  N1        13.6860  -10.3860   -9.4920 N.2   1002  2SA1002    -0.0020
     15  C6        13.0200  -11.5440   -9.3700 C.2   1002  2SA1002     0.3859
     16  N6        13.7320  -12.6720   -9.5420 N.pl3 1002  2SA1002    -0.0218
     17  C61       13.2030  -13.8400  -10.2230 C.3   1002  2SA1002     0.3175
     18  C62       13.8230  -15.1230   -9.7750 C.2   1002  2SA1002     0.4115
     19  C63       13.5500  -13.7180  -11.7180 C.3   1002  2SA1002     0.1768
     20  C64       12.9040  -12.5540  -12.4580 C.2   1002  2SA1002     0.3697
     21  O65       13.1080  -16.1440   -9.8330 O.co2 1002  2SA1002    -0.2410
     22  O66       15.0160  -15.1250   -9.3840 O.co2 1002  2SA1002    -0.2410
     23  O67       11.6610  -12.5030  -12.5940 O.co2 1002  2SA1002    -0.2455
     24  O68       13.6430  -11.6840  -12.9480 O.co2 1002  2SA1002    -0.2455
     25  C5        11.6340  -11.5060   -9.2450 C.2   1002  2SA1002     0.2478
     26  N7        10.6820  -12.4490   -9.1190 N.2   1002  2SA1002    -0.2097
     27  C8         9.4870  -11.8110   -9.0040 C.3   1002  2SA1002     0.3377
     28  C2'        7.2870   -9.9140   -8.5940 C.3   1002  2SA1002     0.2570
     29  O2'        6.6190  -10.6050   -9.6490 O.3   1002  2SA1002    -0.2130
     30  C3'        6.6090   -8.6310   -8.1760 C.3   1002  2SA1002     0.2184
     31  O3'        6.0370   -7.9570   -9.2830 O.3   1002  2SA1002    -0.2174
@<TRIPOS>BOND
     1    24    20   ar
     2    23    20   ar
     3    20    19    1
     4    19    17    1
     5    17    18    1
     6    17    16    1
     7    21    18   ar
     8    18    22   ar
     9    29    28    1
    10    16    15    1
    11    14    13    1
    12    14    15    2
    13    13    12    1
    14    15    25    1
    15    12    11    2
    16    31    30    1
    17    25    11    1
    18    25    26    2
    19    11    10    1
    20    26    27    1
    21    10     9    1
    22    10    27    1
    23     9    28    1
    24     9     8    1
    25    28    30    1
    26    30     7    1
    27     8     7    1
    28     7     6    1
    29     6     5    1
    30     5     1    1
    31     1     3    2
    32     1     2    1
    33     1     4    1
