@<TRIPOS>MOLECULE
2vd7_PD2_A_1.pdb
 12 12 0 0 0
SMALL
GASTEIGER

@<TRIPOS>ATOM
      1  O42       26.6950  -22.5790  -25.5080 O.co2 1356  PD21356    -0.2406
      2  C41       26.6720  -21.7280  -24.6190 C.2   1356  PD21356     0.3879
      3  O41       27.6840  -21.0530  -24.3600 O.co2 1356  PD21356    -0.2406
      4  C4        25.3860  -21.5660  -23.8820 C.ar  1356  PD21356     0.0830
      5  C5        24.3490  -22.4500  -24.2020 C.ar  1356  PD21356     0.0273
      6  C6        23.1370  -22.3500  -23.5400 C.ar  1356  PD21356     0.0993
      7  C3        25.2130  -20.5830  -22.9020 C.ar  1356  PD21356     0.0325
      8  C2        23.9550  -20.5410  -22.2800 C.ar  1356  PD21356     0.1610
      9  N1        22.9650  -21.4140  -22.5980 N.ar  1356  PD21356    -0.2372
     10  C21       23.6310  -19.5380  -21.2330 C.2   1356  PD21356     0.4051
     11  O21       22.4740  -19.5600  -20.7670 O.co2 1356  PD21356    -0.2388
     12  O22       24.4830  -18.7240  -20.8790 O.co2 1356  PD21356    -0.2388
@<TRIPOS>BOND
     1     1     2   ar
     2     2     3   ar
     3     2     4    1
     4     5     4   ar
     5     5     6   ar
     6     4     7   ar
     7     6     9   ar
     8     7     8   ar
     9     9     8   ar
    10     8    10    1
    11    10    12   ar
    12    10    11   ar
