@<TRIPOS>MOLECULE
2vd9_EPC_A_1.pdb
 22 22 0 0 0
SMALL
GASTEIGER

@<TRIPOS>ATOM
      1  C         -4.2800   17.5400  -50.3660 C.3   1395  EPC1395     0.1247
      2  N2        -4.4000   16.7480  -51.6160 N.3   1395  EPC1395    -0.2073
      3  N1        -3.5530   15.3390  -56.3060 N.ar  1395  EPC1395    -0.2452
      4  C2        -2.5560   15.6670  -55.4650 C.ar  1395  EPC1395     0.0978
      5  C2A       -1.1100   15.3010  -55.8390 C.3   1395  EPC1395     0.0555
      6  C3        -2.8500   16.3380  -54.2720 C.ar  1395  EPC1395     0.2062
      7  O1        -1.8550   16.6700  -53.4080 O.3   1395  EPC1395    -0.2856
      8  C4        -4.1770   16.6560  -53.9680 C.ar  1395  EPC1395     0.0353
      9  C4A       -4.5150   17.3250  -52.7940 C.3   1395  EPC1395     0.1185
     10  C5        -5.1790   16.3030  -54.8640 C.ar  1395  EPC1395     0.0275
     11  C6        -4.8180   15.6320  -56.0330 C.ar  1395  EPC1395     0.0965
     12  C5A       -6.6610   16.5810  -54.6450 C.3   1395  EPC1395     0.1816
     13  O2        -6.9750   17.9690  -54.4870 O.3   1395  EPC1395    -0.2653
     14  P1        -8.5270   18.2480  -54.2100 P.3   1395  EPC1395     0.5329
     15  O3        -9.2590   17.7280  -55.5570 O.2   1395  EPC1395    -0.2224
     16  O4        -8.7020   19.8410  -54.1840 O.3   1395  EPC1395    -0.1145
     17  O5        -9.0020   17.5530  -52.9980 O.3   1395  EPC1395    -0.1145
     18  P2        -2.6520   18.4100  -50.3060 P.3   1395  EPC1395     0.1328
     19  O7        -1.5990   17.3150  -49.8010 O.3   1395  EPC1395    -0.3562
     20  O8        -2.7030   19.5170  -49.1440 O.3   1395  EPC1395    -0.3562
     21  O6        -2.2190   18.9800  -51.6060 O.2   1395  EPC1395    -0.4587
     22  CA        -5.4580   18.5160  -50.2050 C.3   1395  EPC1395     0.0267
@<TRIPOS>BOND
     1     3    11   ar
     2     3     4   ar
     3    11    10   ar
     4     5     4    1
     5    15    14    2
     6     4     6   ar
     7    10    12    1
     8    10     8   ar
     9    12    13    1
    10    13    14    1
    11     6     8   ar
    12     6     7    1
    13    14    16    1
    14    14    17    1
    15     8     9    1
    16     9     2    1
    17     2     1    1
    18    21    18    2
    19     1    18    1
    20     1    22    1
    21    18    19    1
    22    18    20    1
