@<TRIPOS>MOLECULE
2vd9_IN5_A_1.pdb
 22 22 0 0 0
SMALL
GASTEIGER

@<TRIPOS>ATOM
      1  C1        -4.6110   15.2040  -56.5520 C.2   1394  IN51394     0.0961
      2  C2        -2.3880   15.4400  -55.8560 C.2   1394  IN51394     0.0714
      3  C3        -2.8030   15.8990  -54.6070 C.3   1394  IN51394     0.2110
      4  O4        -8.5020   17.1030  -53.0810 O.3   1394  IN51394    -0.1145
      5  O5        -9.5170   17.3270  -55.4550 O.2   1394  IN51394    -0.2224
      6  C7        -6.6080   15.7320  -55.1390 C.3   1394  IN51394     0.1816
      7  C8        -4.6810   16.4590  -53.1150 C.2   1394  IN51394     0.0788
      8  C9        -4.2270   18.2420  -51.4940 C.3   1394  IN51394     0.1438
      9  C10       -5.5980   18.1150  -50.8190 C.3   1394  IN51394     0.0313
     10  N1        -3.3100   15.1120  -56.7760 N.2   1394  IN51394    -0.2499
     11  C4        -4.1780   16.0100  -54.3410 C.2   1394  IN51394     0.0291
     12  C5        -5.0950   15.6510  -55.3260 C.2   1394  IN51394     0.0270
     13  O1        -1.8600   16.2250  -53.6780 O.3   1394  IN51394    -0.2121
     14  C6        -0.8950   15.3050  -56.1950 C.3   1394  IN51394     0.0503
     15  O2        -7.0130   17.0850  -55.2020 O.3   1394  IN51394    -0.2653
     16  N2        -3.8910   16.9810  -52.1920 N.pl3 1394  IN51394    -0.2310
     17  P1        -8.3070   17.6480  -54.4350 P.3   1394  IN51394     0.5329
     18  O3        -8.1030   19.2410  -54.4330 O.3   1394  IN51394    -0.1145
     19  P2        -2.8930   18.5910  -50.2850 P.3   1394  IN51394     0.1367
     20  O6        -2.5140   17.1590  -49.6850 O.3   1394  IN51394    -0.3560
     21  O7        -1.7140   19.2010  -50.9100 O.2   1394  IN51394    -0.4584
     22  O8        -3.4580   19.4780  -49.0680 O.3   1394  IN51394    -0.3560
@<TRIPOS>BOND
     1    10     1    1
     2    10     2    2
     3     1    12    2
     4    14     2    1
     5     2     3    1
     6     5    17    2
     7    12     6    1
     8    12    11    1
     9    15     6    1
    10    15    17    1
    11     3    11    1
    12     3    13    1
    13    17    18    1
    14    17     4    1
    15    11     7    2
    16     7    16    1
    17    16     8    1
    18     8     9    1
    19     8    19    1
    20    21    19    2
    21    19    20    1
    22    19    22    1
