@<TRIPOS>MOLECULE
2vdb_DKA_A_1.pdb
 12 11 0 0 0
SMALL
GASTEIGER

@<TRIPOS>ATOM
      1  C1         9.8790   -3.5060   33.5010 C.2   1585  DKA1585     0.3649
      2  O1        11.0790   -3.8370   33.6030 O.co2 1585  DKA1585    -0.2457
      3  C2         8.9390   -4.6060   33.0630 C.3   1585  DKA1585     0.1141
      4  C3         9.5320   -5.9290   33.5390 C.3   1585  DKA1585     0.0118
      5  C4         8.7930   -7.1110   32.9320 C.3   1585  DKA1585     0.0006
      6  C5         9.7800   -8.1310   32.3850 C.3   1585  DKA1585     0.0000
      7  C6         9.3390   -8.6250   31.0140 C.3   1585  DKA1585     0.0000
      8  C7         9.8110  -10.0450   30.7040 C.3   1585  DKA1585     0.0000
      9  C8        10.5650  -10.1070   29.3730 C.3   1585  DKA1585     0.0000
     10  C9        10.6600  -11.5340   28.8290 C.3   1585  DKA1585     0.0000
     11  C10       11.5090  -11.5780   27.5770 C.3   1585  DKA1585     0.0000
     12  O2         9.4550   -2.3420   33.7390 O.co2 1585  DKA1585    -0.2457
@<TRIPOS>BOND
     1    11    10    1
     2    10     9    1
     3     9     8    1
     4     8     7    1
     5     7     6    1
     6     6     5    1
     7     5     4    1
     8     3     1    1
     9     3     4    1
    10     1     2   ar
    11     1    12   ar
