@<TRIPOS>MOLECULE
2vdb_NPS_A_1.pdb
 17 18 0 0 0
SMALL
GASTEIGER

@<TRIPOS>ATOM
      1  C1        15.2910   -5.2140   27.9360 C.ar  1591  NPS1591     0.1387
      2  O2        16.0220   -6.3350   27.7880 O.3   1591  NPS1591    -0.4714
      3  C2        15.5610   -4.0570   27.2550 C.ar  1591  NPS1591     0.0369
      4  C14       10.8420   -0.9840   29.7830 C.3   1591  NPS1591     0.1256
      5  C3        14.7710   -2.9430   27.4470 C.ar  1591  NPS1591     0.0031
      6  C4        13.7020   -2.9750   28.3200 C.ar  1591  NPS1591    -0.0001
      7  C5        13.4420   -4.2240   29.0230 C.ar  1591  NPS1591     0.0030
      8  C6        14.2460   -5.2920   28.8090 C.ar  1591  NPS1591     0.0369
      9  C7        12.8630   -1.9050   28.5630 C.ar  1591  NPS1591    -0.0037
     10  C8        11.8230   -2.0480   29.4710 C.ar  1591  NPS1591    -0.0118
     11  C10       10.2450   -0.4410   28.5070 C.3   1591  NPS1591     0.0166
     12  C13       12.4110   -4.3300   29.8980 C.ar  1591  NPS1591    -0.0002
     13  C11       11.6110   -3.2440   30.1000 C.ar  1591  NPS1591    -0.0037
     14  C12       17.0470   -6.3920   26.8530 C.3   1591  NPS1591     0.2525
     15  O         11.5310    1.2210   30.1270 O.co2 1591  NPS1591    -0.2453
     16  OXT       11.1800    0.0260   31.8540 O.co2 1591  NPS1591    -0.2453
     17  C15       11.2250    0.1560   30.6460 C.2   1591  NPS1591     0.3683
@<TRIPOS>BOND
     1    14     2    1
     2     3     5   ar
     3     3     1   ar
     4     5     6   ar
     5     2     1    1
     6     1     8   ar
     7     6     9   ar
     8     6     7   ar
     9    11     4    1
    10     9    10   ar
    11     8     7   ar
    12     7    12   ar
    13    10     4    1
    14    10    13   ar
    15     4    17    1
    16    12    13   ar
    17    15    17   ar
    18    17    16   ar
