@<TRIPOS>MOLECULE
2vdc_FMN_A_1.pdb
 31 33 0 0 0
SMALL
GASTEIGER

@<TRIPOS>ATOM
      1  N1       -10.1900  -37.4520  -39.7810 N.2   2474  FMN2474    -0.2887
      2  C2        -8.9580  -36.8520  -40.0030 C.1   2474  FMN2474     0.3669
      3  O2        -8.1570  -36.6430  -39.1230 O.2   2474  FMN2474    -0.1744
      4  N3        -8.5020  -36.4100  -41.2160 N.2   2474  FMN2474    -0.2300
      5  C4        -9.2870  -36.5980  -42.3180 C.1   2474  FMN2474     0.2513
      6  O4        -8.8780  -36.2250  -43.4230 O.2   2474  FMN2474    -0.2057
      7  C4A      -10.5220  -37.2100  -42.1410 C.2   2474  FMN2474     0.2703
      8  N5       -11.3050  -37.3640  -43.2470 N.2   2474  FMN2474    -0.3882
      9  C5A      -12.5840  -37.8120  -43.1630 C.2   2474  FMN2474     0.1277
     10  C6       -13.3970  -37.8940  -44.2820 C.3   2474  FMN2474     0.0820
     11  C7       -14.6580  -38.4230  -44.1700 C.2   2474  FMN2474    -0.0408
     12  C7M      -15.5420  -38.6250  -45.3270 C.3   2474  FMN2474     0.0265
     13  C8       -15.1160  -38.8610  -42.9690 C.2   2474  FMN2474    -0.0280
     14  C8M      -16.4920  -39.4100  -42.8690 C.3   2474  FMN2474     0.0304
     15  C9       -14.3120  -38.7590  -41.8510 C.2   2474  FMN2474     0.0123
     16  C9A      -13.0410  -38.2220  -41.9480 C.2   2474  FMN2474     0.0793
     17  N10      -12.2860  -38.0510  -40.8210 N.pl3 2474  FMN2474    -0.2545
     18  C10      -11.0020  -37.5730  -40.8940 C.2   2474  FMN2474     0.2449
     19  C1'      -13.0380  -38.1220  -39.5260 C.3   2474  FMN2474     0.1336
     20  C2'      -13.7410  -36.8490  -39.0860 C.3   2474  FMN2474     0.2048
     21  O2'      -12.7420  -35.8780  -39.0990 O.3   2474  FMN2474    -0.2185
     22  C3'      -14.3260  -36.9910  -37.6770 C.3   2474  FMN2474     0.2165
     23  O3'      -13.3750  -37.5110  -36.7840 O.3   2474  FMN2474    -0.2175
     24  C4'      -15.4820  -37.9470  -37.8140 C.3   2474  FMN2474     0.2147
     25  O4'      -15.7140  -37.6790  -39.1430 O.3   2474  FMN2474    -0.2176
     26  C5'      -16.8110  -37.4550  -37.3240 C.3   2474  FMN2474     0.1892
     27  O5'      -17.6580  -38.5570  -37.1780 O.3   2474  FMN2474    -0.2674
     28  P        -19.2170  -38.3950  -37.3530 P.3   2474  FMN2474     0.5327
     29  O1P      -18.9350  -38.6880  -38.8130 O.2   2474  FMN2474    -0.2224
     30  O2P      -20.1280  -39.4630  -36.9090 O.3   2474  FMN2474    -0.1145
     31  O3P      -19.8540  -37.0170  -37.5870 O.3   2474  FMN2474    -0.1145
@<TRIPOS>BOND
     1    12    11    1
     2    10    11    1
     3    10     9    1
     4    11    13    2
     5     6     5    2
     6     8     9    2
     7     8     7    2
     8     9    16    1
     9    13    14    1
    10    13    15    1
    11     5     7    1
    12     5     4    2
    13     7    18    1
    14    16    15    2
    15    16    17    1
    16     4     2    2
    17    18    17    1
    18    18     1    2
    19    17    19    1
    20     2     1    2
    21     2     3    2
    22    19    20    1
    23    25    24    1
    24    21    20    1
    25    20    22    1
    26    29    28    2
    27    24    22    1
    28    24    26    1
    29    22    23    1
    30    31    28    1
    31    28    27    1
    32    28    30    1
    33    26    27    1
