@<TRIPOS>MOLECULE
2vdc_OMT_A_1.pdb
 11 10 0 0 0
SMALL
GASTEIGER

@<TRIPOS>ATOM
      1  N          7.8660  -47.5220  -20.2950 N.3   2473  OMT2473    -0.1208
      2  CA         8.9910  -47.1320  -19.4750 C.3   2473  OMT2473     0.1961
      3  CB         9.9280  -46.0960  -20.0270 C.3   2473  OMT2473     0.0559
      4  CG         9.7040  -44.6960  -19.7340 C.3   2473  OMT2473     0.1530
      5  SD        10.2480  -43.6120  -20.9130 S.O2  2473  OMT2473    -0.0082
      6  CE        11.3190  -42.1880  -20.6860 C.3   2473  OMT2473     0.1760
      7  C          8.5580  -46.7010  -18.1140 C.2   2473  OMT2473     0.3819
      8  O          7.2530  -46.6530  -17.7980 O.co2 2473  OMT2473    -0.2441
      9  OXT        9.5200  -46.4690  -17.2190 O.co2 2473  OMT2473    -0.2441
     10  OD1       10.8470  -44.4000  -22.0930 O.2   2473  OMT2473    -0.1729
     11  OD2        8.9810  -42.8330  -21.3750 O.2   2473  OMT2473    -0.1729
@<TRIPOS>BOND
     1    10     5    2
     2    11     5    2
     3     5     6    1
     4     5     4    1
     5     1     2    1
     6     3     4    1
     7     3     2    1
     8     2     7    1
     9     7     8   ar
    10     7     9   ar
