@<TRIPOS>MOLECULE
2vdc_AKG_A_1.pdb
 10 9 0 0 0
SMALL
GASTEIGER

@<TRIPOS>ATOM
      1  C1       -10.6870  -40.9300  -44.5210 C.2   2475  AKG2475     0.3946
      2  O1       -11.1110  -42.0550  -43.9200 O.co2 2475  AKG2475    -0.2428
      3  O2       -11.5050  -39.9400  -44.7480 O.co2 2475  AKG2475    -0.2428
      4  C2        -9.2650  -40.6390  -45.0550 C.3   2475  AKG2475     0.2545
      5  O5        -8.3030  -41.4870  -44.6410 O.3   2475  AKG2475    -0.2109
      6  C3        -8.9870  -39.5090  -46.0620 C.3   2475  AKG2475     0.0565
      7  C4        -7.4890  -39.7320  -46.2790 C.3   2475  AKG2475     0.1173
      8  C5        -6.8690  -39.0450  -47.4560 C.2   2475  AKG2475     0.3650
      9  O3        -5.5330  -39.1870  -47.6520 O.co2 2475  AKG2475    -0.2457
     10  O4        -7.6750  -38.2660  -48.1870 O.co2 2475  AKG2475    -0.2457
@<TRIPOS>BOND
     1    10     8   ar
     2     9     8   ar
     3     8     7    1
     4     7     6    1
     5     6     4    1
     6     4     5    1
     7     4     1    1
     8     3     1   ar
     9     1     2   ar
