@<TRIPOS>MOLECULE
2vdg_NDP_A_1.pdb
 48 52 0 0 0
SMALL
GASTEIGER

@<TRIPOS>ATOM
      1  PA        53.8150   53.0730   20.0020 P.3   1321  NDP1321     0.2189
      2  O1A       53.2260   52.8230   21.3410 O.3   1321  NDP1321    -0.4371
      3  O2A       53.6850   52.0420   18.9880 O.2   1321  NDP1321    -0.5170
      4  O5B       55.4010   53.3430   20.2790 O.3   1321  NDP1321    -0.3112
      5  C5B       56.1430   54.1050   19.3590 C.3   1321  NDP1321     0.1813
      6  C4B       57.4970   54.4990   19.9620 C.3   1321  NDP1321     0.1820
      7  O4B       58.2530   53.3940   20.3820 O.3   1321  NDP1321    -0.3136
      8  C3B       58.3630   55.2000   18.9480 C.3   1321  NDP1321     0.2157
      9  O3B       59.1860   56.0330   19.7460 O.3   1321  NDP1321    -0.2175
     10  C2B       59.1180   54.0600   18.3100 C.3   1321  NDP1321     0.2314
     11  O2B       60.3300   54.5360   17.8480 O.3   1321  NDP1321    -0.2630
     12  C1B       59.3610   53.1810   19.5270 C.3   1321  NDP1321     0.3158
     13  N9A       59.4350   51.7540   19.1970 N.pl3 1321  NDP1321    -0.1439
     14  C8A       58.8130   51.1080   18.1590 C.3   1321  NDP1321     0.3377
     15  N7A       59.1300   49.8080   18.2290 N.2   1321  NDP1321    -0.2095
     16  C5A       59.9370   49.6160   19.2720 C.2   1321  NDP1321     0.2526
     17  C6A       60.5570   48.4650   19.7660 C.2   1321  NDP1321     0.4393
     18  N6A       60.0970   47.2540   19.4680 N.pl3 1321  NDP1321     0.2180
     19  N1A       61.3650   48.5890   20.8680 N.2   1321  NDP1321     0.0021
     20  C2A       61.5600   49.8150   21.4700 C.3   1321  NDP1321     0.5254
     21  N3A       60.9310   50.9560   20.9620 N.2   1321  NDP1321    -0.0055
     22  C4A       60.1250   50.8360   19.8880 C.2   1321  NDP1321     0.3518
     23  O3        53.5520   54.5060   19.3210 O.3   1321  NDP1321    -0.2703
     24  PN        52.2830   55.3770   18.8970 P.3   1321  NDP1321     0.2189
     25  O1N       52.6190   55.8550   17.5210 O.2   1321  NDP1321    -0.5170
     26  O2N       51.9700   56.3350   20.0020 O.3   1321  NDP1321    -0.4371
     27  O5D       51.0760   54.3620   18.7950 O.3   1321  NDP1321    -0.3112
     28  C5D       51.0170   53.4900   17.7030 C.3   1321  NDP1321     0.1813
     29  C4D       50.0040   53.9480   16.6590 C.3   1321  NDP1321     0.1799
     30  O4D       48.7100   54.0370   17.1990 O.3   1321  NDP1321    -0.3327
     31  C3D       50.2550   55.3180   16.0560 C.3   1321  NDP1321     0.2158
     32  O3D       51.3060   55.3300   15.1370 O.3   1321  NDP1321    -0.2175
     33  C2D       48.9210   55.5880   15.4170 C.3   1321  NDP1321     0.2309
     34  O2D       48.7970   54.7580   14.2980 O.3   1321  NDP1321    -0.2158
     35  C1D       47.9900   55.0320   16.4810 C.3   1321  NDP1321     0.2263
     36  N1N       47.5410   56.1070   17.3690 N.pl3 1321  NDP1321    -0.2787
     37  C2N       46.2300   56.5000   17.2710 C.3   1321  NDP1321     0.1244
     38  C3N       45.7750   57.5680   17.9690 C.2   1321  NDP1321     0.0544
     39  C7N       44.3300   57.9440   17.9150 C.2   1321  NDP1321     0.2818
     40  O7N       44.0310   59.1540   18.4850 O.2   1321  NDP1321    -0.2670
     41  N7N       43.3610   57.1640   17.4460 N.am  1321  NDP1321    -0.0839
     42  C4N       46.6450   58.4100   18.8710 C.2   1321  NDP1321     0.0033
     43  C5N       48.0550   57.9060   18.8950 C.2   1321  NDP1321     0.0157
     44  C6N       48.4150   56.7980   18.1560 C.2   1321  NDP1321     0.0633
     45  P2B       60.8920   54.2550   16.3600 P.3   1321  NDP1321     0.5328
     46  O1X       59.8950   54.7240   15.3500 O.2   1321  NDP1321    -0.2224
     47  O2X       62.1910   55.0070   16.2980 O.3   1321  NDP1321    -0.1145
     48  O3X       61.1300   52.7660   16.1760 O.3   1321  NDP1321    -0.1145
@<TRIPOS>BOND
     1    34    33    1
     2    32    31    1
     3    46    45    2
     4    33    31    1
     5    33    35    1
     6    31    29    1
     7    48    45    1
     8    47    45    1
     9    45    11    1
    10    35    30    1
    11    35    36    1
    12    29    30    1
    13    29    28    1
    14    37    36    1
    15    37    38    1
    16    36    44    1
    17    41    39   am
    18    25    24    2
    19    28    27    1
    20    11    10    1
    21    39    38    1
    22    39    40    2
    23    38    42    2
    24    44    43    2
    25    14    15    1
    26    14    13    1
    27    15    16    2
    28    10     8    1
    29    10    12    1
    30    27    24    1
    31    42    43    1
    32    24    23    1
    33    24    26    1
    34     8     9    1
    35     8     6    1
    36     3     1    2
    37    13    12    1
    38    13    22    1
    39    16    17    1
    40    16    22    1
    41    23     1    1
    42     5     6    1
    43     5     4    1
    44    18    17    1
    45    12     7    1
    46    17    19    2
    47    22    21    2
    48     6     7    1
    49     1     4    1
    50     1     2    1
    51    19    20    1
    52    21    20    1
