@<TRIPOS>MOLECULE
2vdh_CAP_A_1.pdb
 21 20 0 0 0
SMALL
GASTEIGER

@<TRIPOS>ATOM
      1  C1        12.6700    1.4120   63.9550 C.3   1477  CAP1477     0.1978
      2  C2        12.3020    0.9010   62.5630 C.3   1477  CAP1477     0.2763
      3  C3        13.2190   -0.2440   62.1200 C.3   1477  CAP1477     0.2253
      4  C4        13.0860   -1.4930   62.9890 C.3   1477  CAP1477     0.2152
      5  C5        13.4610   -2.7660   62.2520 C.3   1477  CAP1477     0.1892
      6  C         10.8370    0.4810   62.5030 C.2   1477  CAP1477     0.3967
      7  O1        11.9710    2.6100   64.2650 O.3   1477  CAP1477    -0.2669
      8  O2        12.4720    1.9810   61.5970 O.3   1477  CAP1477    -0.2086
      9  O3        12.9640   -0.5240   60.7660 O.3   1477  CAP1477    -0.2170
     10  O4        13.9550   -1.3160   64.0810 O.3   1477  CAP1477    -0.2176
     11  O5        13.6300   -3.8010   63.1870 O.3   1477  CAP1477    -0.2674
     12  O6        10.1810    0.1790   63.5270 O.co2 1477  CAP1477    -0.2428
     13  O7        10.2770    0.4630   61.3870 O.co2 1477  CAP1477    -0.2428
     14  P1        12.1570    3.2730   65.7010 P.3   1477  CAP1477     0.5327
     15  P2        14.9460   -4.7050   63.1790 P.3   1477  CAP1477     0.5327
     16  O1P       11.2480    4.4810   65.7610 O.2   1477  CAP1477    -0.2224
     17  O2P       11.8150    2.2790   66.7540 O.3   1477  CAP1477    -0.1145
     18  O3P       13.6050    3.7070   65.8000 O.3   1477  CAP1477    -0.1145
     19  O4P       14.8690   -5.6790   64.3400 O.3   1477  CAP1477    -0.1145
     20  O5P       16.1640   -3.8220   63.2640 O.3   1477  CAP1477    -0.1145
     21  O6P       15.0020   -5.5290   61.9130 O.2   1477  CAP1477    -0.2224
@<TRIPOS>BOND
     1     9     3    1
     2    13     6   ar
     3     8     2    1
     4    21    15    2
     5     3     2    1
     6     3     4    1
     7     5     4    1
     8     5    11    1
     9     6     2    1
    10     6    12   ar
    11     2     1    1
    12     4    10    1
    13    15    11    1
    14    15    20    1
    15    15    19    1
    16     1     7    1
    17     7    14    1
    18    14    16    2
    19    14    18    1
    20    14    17    1
