@<TRIPOS>MOLECULE
2vdi_CAP_A_1.pdb
 21 20 0 0 0
SMALL
GASTEIGER

@<TRIPOS>ATOM
      1  C1        20.4870   83.0150   97.4530 C.3   1477  CAP1477     0.1978
      2  C2        19.5410   83.5990   96.4020 C.3   1477  CAP1477     0.2763
      3  C3        18.7140   84.7810   96.9490 C.3   1477  CAP1477     0.2253
      4  C4        19.5380   86.0030   97.3450 C.3   1477  CAP1477     0.2152
      5  C5        18.7670   87.3070   97.1960 C.3   1477  CAP1477     0.1892
      6  C         20.2810   84.0010   95.1280 C.2   1477  CAP1477     0.3967
      7  O1        21.1610   81.8780   96.9610 O.3   1477  CAP1477    -0.2669
      8  O2        18.5860   82.5620   96.0360 O.3   1477  CAP1477    -0.2086
      9  O3        17.7120   85.1350   96.0180 O.3   1477  CAP1477    -0.2170
     10  O4        19.8590   85.8620   98.7120 O.3   1477  CAP1477    -0.2176
     11  O5        19.5160   88.3400   97.8120 O.3   1477  CAP1477    -0.2674
     12  O6        21.4940   84.3170   95.1240 O.co2 1477  CAP1477    -0.2428
     13  O7        19.6360   84.0120   94.0520 O.co2 1477  CAP1477    -0.2428
     14  P1        22.2940   81.1700   97.8700 P.3   1477  CAP1477     0.5327
     15  P2        18.8810   89.2270   98.9940 P.3   1477  CAP1477     0.5327
     16  O1P       22.7910   79.9260   97.1930 O.2   1477  CAP1477    -0.2224
     17  O2P       23.4150   82.1500   98.0960 O.3   1477  CAP1477    -0.1145
     18  O3P       21.6840   80.7780   99.2040 O.3   1477  CAP1477    -0.1145
     19  O4P       19.9670   90.1400   99.5080 O.3   1477  CAP1477    -0.1145
     20  O5P       18.3830   88.3200  100.0880 O.3   1477  CAP1477    -0.1145
     21  O6P       17.7540   90.0960   98.4800 O.2   1477  CAP1477    -0.2224
@<TRIPOS>BOND
     1    13     6   ar
     2    12     6   ar
     3     6     2    1
     4     9     3    1
     5     8     2    1
     6     2     3    1
     7     2     1    1
     8     3     4    1
     9     7     1    1
    10     7    14    1
    11    16    14    2
    12     5     4    1
    13     5    11    1
    14     4    10    1
    15    11    15    1
    16    14    17    1
    17    14    18    1
    18    21    15    2
    19    15    19    1
    20    15    20    1
