@<TRIPOS>MOLECULE
2vdm_AGG_B_1.pdb
 30 31 0 0 0
SMALL
GASTEIGER

@<TRIPOS>ATOM
      1  C1        92.7800   39.4850   78.0750 C.3   1462  AGG1462     0.0001
      2  C2        94.1740   39.1050   77.5540 C.3   1462  AGG1462     0.0019
      3  C3        95.2540   39.9700   78.2160 C.3   1462  AGG1462     0.0271
      4  C4        95.8070   39.3130   79.4960 C.3   1462  AGG1462     0.1705
      5  S1        95.5720   40.2890   81.0320 S.O2  1462  AGG1462     0.0578
      6  O1        95.6570   41.7460   80.7210 O.2   1462  AGG1462    -0.1561
      7  O2        94.2200   40.0060   81.6100 O.2   1462  AGG1462    -0.1561
      8  N         96.7470   39.9290   82.1100 N.3   1462  AGG1462    -0.0716
      9  CA        96.3700   38.8420   83.0580 C.3   1462  AGG1462     0.2041
     10  CB        96.9280   37.4930   82.6090 C.3   1462  AGG1462     0.0572
     11  CG        95.9760   36.7470   81.6830 C.ar  1462  AGG1462    -0.0200
     12  CD1       96.4670   36.1440   80.5310 C.ar  1462  AGG1462    -0.0011
     13  CE1       95.6120   35.4570   79.6770 C.ar  1462  AGG1462     0.0366
     14  CZ        94.2530   35.3740   79.9700 C.ar  1462  AGG1462     0.1385
     15  OH        93.3930   34.7060   79.1510 O.3   1462  AGG1462    -0.4755
     16  CE2       93.7630   35.9750   81.1250 C.ar  1462  AGG1462     0.0366
     17  CD2       94.6210   36.6630   81.9810 C.ar  1462  AGG1462    -0.0011
     18  C         96.9010   39.1150   84.4820 C.2   1462  AGG1462     0.3825
     19  O         97.9440   39.7960   84.6070 O.co2 1462  AGG1462    -0.2440
     20  OXT       96.2510   38.6230   85.4280 O.co2 1462  AGG1462    -0.2440
     21  C11       93.8950   34.5440   77.8160 C.3   1462  AGG1462     0.2054
     22  C12       92.8910   33.6650   77.0750 C.3   1462  AGG1462     0.0473
     23  C13       93.3470   33.3880   75.6430 C.3   1462  AGG1462     0.0038
     24  C14       93.2560   31.8910   75.3200 C.3   1462  AGG1462     0.0002
     25  C15       93.6560   31.6160   73.8720 C.3   1462  AGG1462     0.0029
     26  C16       94.1110   30.1570   73.7360 C.3   1462  AGG1462     0.0189
     27  C17       94.1570   29.7050   72.2790 C.3   1462  AGG1462     0.0887
     28  N18       92.8260   29.9230   71.7040 N.3   1462  AGG1462    -0.2181
     29  C18       92.6320   31.3690   71.5700 C.3   1462  AGG1462     0.0887
     30  C19       92.4660   31.9570   72.9660 C.3   1462  AGG1462     0.0189
@<TRIPOS>BOND
     1    29    28    1
     2    29    30    1
     3    28    27    1
     4    27    26    1
     5    30    25    1
     6    26    25    1
     7    25    24    1
     8    24    23    1
     9    23    22    1
    10    22    21    1
    11     2     1    1
    12     2     3    1
    13    21    15    1
    14     3     4    1
    15    15    14    1
    16     4     5    1
    17    13    14   ar
    18    13    12   ar
    19    14    16   ar
    20    12    11   ar
    21     6     5    2
    22     5     7    2
    23     5     8    1
    24    16    17   ar
    25    11    17   ar
    26    11    10    1
    27     8     9    1
    28    10     9    1
    29     9    18    1
    30    18    19   ar
    31    18    20   ar
