@<TRIPOS>MOLECULE
2vdv_SAM_E_1.pdb
 27 29 0 0 0
SMALL
GASTEIGER

@<TRIPOS>ATOM
      1  N          7.7130  -55.7820  -35.2420 N.3   1287  SAM1287    -0.1208
      2  CA         7.2980  -57.0980  -35.7310 C.3   1287  SAM1287     0.1952
      3  C          8.4650  -58.0830  -35.8070 C.2   1287  SAM1287     0.3819
      4  O          9.6260  -57.7100  -35.6160 O.co2 1287  SAM1287    -0.2441
      5  OXT        8.2750  -59.2790  -36.0620 O.co2 1287  SAM1287    -0.2441
      6  CB         6.6350  -56.9660  -37.0970 C.3   1287  SAM1287     0.0414
      7  CG         7.5270  -56.4370  -38.2170 C.3   1287  SAM1287     0.0503
      8  SD         6.5520  -56.1390  -39.7200 S.3   1287  SAM1287    -0.1761
      9  CE         7.7890  -56.0220  -41.0370 C.3   1287  SAM1287     0.0590
     10  C5'        6.0920  -54.4070  -39.4510 C.3   1287  SAM1287     0.0806
     11  C4'        4.7310  -54.3320  -38.7680 C.3   1287  SAM1287     0.1622
     12  O4'        4.3800  -52.9900  -38.5120 O.3   1287  SAM1287    -0.3153
     13  C3'        3.6430  -54.9270  -39.6440 C.3   1287  SAM1287     0.2168
     14  O3'        2.9210  -55.8680  -38.8860 O.3   1287  SAM1287    -0.2175
     15  C2'        2.7300  -53.7750  -40.0010 C.3   1287  SAM1287     0.2569
     16  O2'        1.3810  -54.1800  -39.8940 O.3   1287  SAM1287    -0.2130
     17  C1'        3.0690  -52.7210  -38.9560 C.3   1287  SAM1287     0.3185
     18  N9         3.0370  -51.3440  -39.4790 N.pl3 1287  SAM1287    -0.1439
     19  C8         3.4400  -50.9060  -40.7150 C.3   1287  SAM1287     0.3377
     20  N7         3.2460  -49.5640  -40.7710 N.2   1287  SAM1287    -0.2095
     21  C5         2.7310  -49.1490  -39.5920 C.2   1287  SAM1287     0.2526
     22  C6         2.3510  -47.9020  -39.1140 C.2   1287  SAM1287     0.4393
     23  N6         2.4750  -46.8330  -39.8950 N.pl3 1287  SAM1287     0.2180
     24  N1         1.8480  -47.7770  -37.8290 N.2   1287  SAM1287     0.0021
     25  C2         1.7220  -48.8920  -37.0230 C.3   1287  SAM1287     0.5254
     26  N3         2.0980  -50.1280  -37.5130 N.2   1287  SAM1287    -0.0055
     27  C4         2.5960  -50.2560  -38.7690 C.2   1287  SAM1287     0.3518
@<TRIPOS>BOND
     1     9     8    1
     2    20    19    1
     3    20    21    2
     4    19    18    1
     5    15    16    1
     6    15    13    1
     7    15    17    1
     8    23    22    1
     9     8    10    1
    10     8     7    1
    11    13    14    1
    12    13    11    1
    13    21    22    1
    14    21    27    1
    15    18    17    1
    16    18    27    1
    17    10    11    1
    18    22    24    2
    19    17    12    1
    20    27    26    2
    21    11    12    1
    22     7     6    1
    23    24    25    1
    24    26    25    1
    25     6     2    1
    26     5     3   ar
    27     3     2    1
    28     3     4   ar
    29     2     1    1
