@<TRIPOS>MOLECULE
2vdy_HCY_A_1.pdb
 26 29 0 0 0
SMALL
GASTEIGER

@<TRIPOS>ATOM
      1  C1        -9.6290    0.9370  -36.5730 C.3   1384  HCY1384     0.0078
      2  C2       -10.5000    0.4810  -35.4020 C.3   1384  HCY1384     0.0645
      3  C3       -11.2740    1.6590  -34.8570 C.2   1384  HCY1384     0.1506
      4  C4       -11.4550    2.8660  -35.6910 C.3   1384  HCY1384     0.0645
      5  C5       -11.2050    2.8430  -37.0130 C.3   1384  HCY1384     0.0074
      6  C6       -11.7910    3.9430  -37.8730 C.3   1384  HCY1384     0.0004
      7  C7       -10.7230    4.5390  -38.7900 C.3   1384  HCY1384     0.0001
      8  C8        -9.8650    3.4940  -39.5120 C.3   1384  HCY1384     0.0025
      9  C9        -9.2920    2.4310  -38.5440 C.3   1384  HCY1384     0.0305
     10  C10      -10.3610    1.7510  -37.6520 C.3   1384  HCY1384     0.0032
     11  C12       -7.2040    2.2150  -40.0760 C.3   1384  HCY1384     0.0357
     12  C11       -8.2520    1.4860  -39.2110 C.3   1384  HCY1384     0.1520
     13  C13       -7.8170    3.2280  -41.0550 C.3   1384  HCY1384     0.0348
     14  C14       -8.6860    4.1710  -40.2300 C.3   1384  HCY1384     0.0029
     15  C15       -8.9350    5.3750  -41.1370 C.3   1384  HCY1384     0.0031
     16  C16       -7.6650    5.4530  -41.9910 C.3   1384  HCY1384     0.0377
     17  C17       -6.8150    4.2160  -41.6680 C.3   1384  HCY1384     0.1796
     18  C18       -8.5860    2.4690  -42.1480 C.3   1384  HCY1384     0.0030
     19  C19      -11.3080    0.8120  -38.4090 C.3   1384  HCY1384     0.0001
     20  C20       -6.0760    3.6930  -42.8900 C.2   1384  HCY1384     0.2109
     21  C21       -4.9620    2.6760  -42.7310 C.3   1384  HCY1384     0.2484
     22  O1       -11.7460    1.6100  -33.7330 O.2   1384  HCY1384    -0.2961
     23  O2        -8.8760    0.4660  -40.0030 O.3   1384  HCY1384    -0.2232
     24  O3        -5.8460    4.6330  -40.6940 O.3   1384  HCY1384    -0.2181
     25  O4        -6.3650    4.0870  -44.0120 O.2   1384  HCY1384    -0.2907
     26  O5        -3.8810    2.9710  -43.6200 O.3   1384  HCY1384    -0.2118
@<TRIPOS>BOND
     1    25    20    2
     2    26    21    1
     3    20    21    1
     4    20    17    1
     5    18    13    1
     6    16    17    1
     7    16    15    1
     8    17    13    1
     9    17    24    1
    10    15    14    1
    11    13    14    1
    12    13    11    1
    13    14     8    1
    14    11    12    1
    15    23    12    1
    16     8     7    1
    17     8     9    1
    18    12     9    1
    19     7     6    1
    20     9    10    1
    21    19    10    1
    22     6     5    1
    23    10     5    1
    24    10     1    1
    25     5     4    1
    26     1     2    1
    27     4     3    1
    28     2     3    1
    29     3    22    2
