@<TRIPOS>MOLECULE
2ve1_W2X_A_1.pdb
 26 25 0 0 0
SMALL
GASTEIGER

@<TRIPOS>ATOM
      1  O43       12.4600   -6.5100    8.9660 O.co2 1333  W2X1333    -0.2416
      2  C31       12.8700   -5.8360    7.9980 C.2   1333  W2X1333     0.4042
      3  O42       14.0710   -5.7980    7.5980 O.co2 1333  W2X1333    -0.2416
      4  C30       11.7780   -5.0320    7.2920 C.3   1333  W2X1333     0.2730
      5  O29       10.7100   -4.8830    8.2490 O.3   1333  W2X1333    -0.4390
      6  C13        9.9090   -3.8280    7.8940 C.2   1333  W2X1333     0.3419
      7  O18       10.4570   -2.7590    7.5680 O.2   1333  W2X1333    -0.2478
      8  C12        8.3550   -3.9780    7.9260 C.3   1333  W2X1333     0.2181
      9  C16        7.7060   -4.5120    6.6610 C.2   1333  W2X1333     0.0220
     10  S17        8.5100   -4.3300    5.1560 S.2   1333  W2X1333    -0.0577
     11  C25        6.3890   -4.9890    6.6820 C.3   1333  W2X1333     0.0363
     12  N11        7.7260   -2.6700    7.7960 N.am  1333  W2X1333    -0.1909
     13  C10        7.0140   -2.1350    8.7440 C.2   1333  W2X1333     0.2421
     14  O15        6.8540   -2.6430    9.8590 O.2   1333  W2X1333    -0.2733
     15  C7         6.4240   -0.8140    8.3090 C.3   1333  W2X1333     0.0869
     16  C4         7.1940    0.3580    8.8460 C.3   1333  W2X1333     0.0117
     17  C3         6.4320    1.6170    8.4720 C.3   1333  W2X1333     0.0311
     18  C2         7.0010    2.8540    9.1580 C.3   1333  W2X1333     0.1943
     19  N14        6.9340    2.7450   10.6300 N.3   1333  W2X1333    -0.1208
     20  C1         6.1150    3.9940    8.6820 C.2   1333  W2X1333     0.3819
     21  O20        5.3570    4.5320    9.5260 O.co2 1333  W2X1333    -0.2441
     22  O19        6.1850    4.2610    7.4640 O.co2 1333  W2X1333    -0.2441
     23  C32       10.9440   -5.8120    6.2870 C.3   1333  W2X1333     0.0845
     24  C37       11.7720   -6.6210    5.2970 C.3   1333  W2X1333     0.1862
     25  C33        9.9640   -6.7370    7.0230 C.3   1333  W2X1333     0.0070
     26  O31       10.8500   -7.1870    4.3730 O.3   1333  W2X1333    -0.2203
@<TRIPOS>BOND
     1    26    24    1
     2    10     9    2
     3    24    23    1
     4    23    25    1
     5    23     4    1
     6     9    11    1
     7     9     8    1
     8     4     2    1
     9     4     5    1
    10    22    20   ar
    11     7     6    2
    12     3     2   ar
    13    12     8    1
    14    12    13   am
    15     6     8    1
    16     6     5    1
    17     2     1   ar
    18    15    13    1
    19    15    16    1
    20    17    16    1
    21    17    18    1
    22    20    18    1
    23    20    21   ar
    24    13    14    2
    25    18    19    1
