@<TRIPOS>MOLECULE
2ve1_M11_A_1.pdb
 25 24 0 0 0
SMALL
GASTEIGER

@<TRIPOS>ATOM
      1  O43       14.1190   -6.2030    7.6440 O.co2 1334  M111334    -0.2416
      2  C31       12.8780   -6.0550    7.9060 C.2   1334  M111334     0.4041
      3  O42       12.3640   -6.4620    8.9850 O.co2 1334  M111334    -0.2416
      4  C30       11.9090   -5.3390    6.9590 C.3   1334  M111334     0.2704
      5  O29       10.6040   -5.3200    7.6030 O.3   1334  M111334    -0.4393
      6  C13        9.9390   -4.0320    7.7180 C.2   1334  M111334     0.3383
      7  O18       10.5830   -2.9660    7.6340 O.2   1334  M111334    -0.2482
      8  C12        8.4530   -4.0390    7.9730 C.3   1334  M111334     0.2040
      9  S17        8.3600   -4.5570    5.2680 S.3   1334  M111334    -0.0807
     10  C25        6.9970   -5.9480    7.3860 C.3   1334  M111334     0.0149
     11  N11        7.7490   -2.7890    7.7720 N.am  1334  M111334    -0.1948
     12  C10        7.0410   -2.2430    8.7320 C.2   1334  M111334     0.2418
     13  O15        7.0070   -2.6910    9.8820 O.2   1334  M111334    -0.2733
     14  C7         6.3360   -0.9990    8.2840 C.3   1334  M111334     0.0869
     15  C4         7.0580    0.1540    8.9410 C.3   1334  M111334     0.0117
     16  C3         6.3650    1.4280    8.5050 C.3   1334  M111334     0.0311
     17  C2         6.9320    2.6660    9.1750 C.3   1334  M111334     0.1943
     18  N14        6.8840    2.5900   10.6340 N.3   1334  M111334    -0.1208
     19  C1         6.0590    3.7740    8.6690 C.2   1334  M111334     0.3819
     20  O20        5.2630    4.3380    9.4690 O.co2 1334  M111334    -0.2441
     21  O19        6.1170    4.0500    7.4280 O.co2 1334  M111334    -0.2441
     22  C32       11.7340   -5.9060    5.5030 C.3   1334  M111334     0.0515
     23  C37       13.0740   -6.1750    4.8100 C.3   1334  M111334     0.0043
     24  C33       10.7600   -7.1100    5.3010 C.3   1334  M111334     0.0043
     25  CAV        7.5560   -4.6240    6.8930 C.3   1334  M111334     0.0888
@<TRIPOS>BOND
     1    23    22    1
     2     9    25    1
     3    24    22    1
     4    22     4    1
     5    25    10    1
     6    25     8    1
     7     4     5    1
     8     4     2    1
     9    21    19   ar
    10     5     6    1
    11     7     6    2
    12     1     2   ar
    13     6     8    1
    14    11     8    1
    15    11    12   am
    16     2     3   ar
    17    14    12    1
    18    14    15    1
    19    16    15    1
    20    16    17    1
    21    19    17    1
    22    19    20   ar
    23    12    13    2
    24    17    18    1
