@<TRIPOS>MOLECULE
2ve3_REA_A_1.pdb
 22 22 0 0 0
SMALL
GASTEIGER

@<TRIPOS>ATOM
      1  C1        43.0450   -0.6240   10.4910 C.3   1445  REA1445     0.0183
      2  C2        42.4780   -1.8390   11.2190 C.3   1445  REA1445     0.0044
      3  C3        43.5500   -2.4640   12.1130 C.3   1445  REA1445     0.0047
      4  C4        43.9060   -1.5070   13.2480 C.3   1445  REA1445     0.0217
      5  C5        44.0800   -0.0760   12.7830 C.2   1445  REA1445    -0.0479
      6  C6        43.6730    0.3440   11.5110 C.2   1445  REA1445    -0.0310
      7  C7        43.8520    1.7590   11.1610 C.2   1445  REA1445    -0.0095
      8  C8        45.1780    2.2520   10.7880 C.2   1445  REA1445    -0.0268
      9  C9        45.3560    3.7060   10.5930 C.3   1445  REA1445     0.0224
     10  C10       46.7180    4.1880   10.6820 C.3   1445  REA1445     0.0090
     11  C11       47.3170    5.1280    9.7510 C.3   1445  REA1445     0.0257
     12  C12       48.7780    5.0990    9.8090 C.2   1445  REA1445    -0.0340
     13  C13       49.5980    6.3070    9.8860 C.2   1445  REA1445    -0.0370
     14  C14       50.9830    6.0600    9.8050 C.3   1445  REA1445     0.1358
     15  C15       51.9650    7.0020    9.3010 C.2   1445  REA1445     0.3689
     16  C16       44.1430   -1.0660    9.5050 C.3   1445  REA1445     0.0043
     17  C17       41.8840    0.0190    9.7320 C.3   1445  REA1445     0.0043
     18  C18       44.6900    0.9010   13.7580 C.3   1445  REA1445     0.0260
     19  C19       44.2060    4.6570   10.3610 C.3   1445  REA1445     0.0047
     20  C20       48.9840    7.6720   10.0580 C.3   1445  REA1445     0.0266
     21  O1        51.6160    8.0980    8.8320 O.co2 1445  REA1445    -0.2453
     22  O2        53.1710    6.7140    9.3390 O.co2 1445  REA1445    -0.2453
@<TRIPOS>BOND
     1    21    15   ar
     2    15    22   ar
     3    15    14    1
     4    16     1    1
     5    17     1    1
     6    11    12    1
     7    11    10    1
     8    14    13    1
     9    12    13    2
    10    13    20    1
    11    19     9    1
    12     1     2    1
    13     1     6    1
    14     9    10    1
    15     9     8    1
    16     8     7    2
    17     7     6    1
    18     2     3    1
    19     6     5    2
    20     3     4    1
    21     5     4    1
    22     5    18    1
