@<TRIPOS>MOLECULE
2ve3_HEM_A_1.pdb
 43 50 0 0 0
SMALL
GASTEIGER

@<TRIPOS>ATOM
      1 FE         41.6830   -3.2060    6.6000 Fe    1444  HEM1444     0.0000
      2  CHA       44.3120   -4.7050    8.3340 C.2   1444  HEM1444     0.0000
      3  CHB       43.9860   -1.1810    5.0010 C.2   1444  HEM1444     0.0000
      4  CHC       39.1330   -1.5100    5.0980 C.2   1444  HEM1444     0.0000
      5  CHD       39.4160   -4.5990    8.7920 C.2   1444  HEM1444     0.0000
      6  NA        43.7900   -2.9710    6.6880 N.ar  1444  HEM1444     0.0000
      7  C1A       44.6760   -3.7340    7.4100 C.ar  1444  HEM1444     0.0000
      8  C2A       46.0190   -3.3340    7.0310 C.ar  1444  HEM1444     0.0000
      9  C3A       45.9150   -2.3700    6.0950 C.ar  1444  HEM1444     0.0000
     10  C4A       44.5130   -2.1150    5.8760 C.ar  1444  HEM1444     0.0000
     11  CMA       47.0530   -1.6180    5.3800 C.3   1444  HEM1444     0.0000
     12  CAA       47.3240   -3.9640    7.5730 C.3   1444  HEM1444     0.0000
     13  CBA       47.8870   -3.2160    8.7780 C.3   1444  HEM1444     0.0000
     14  CGA       49.0490   -4.0280    9.3100 C.2   1444  HEM1444     0.0000
     15  O1A       50.0510   -4.1830    8.5520 O.co2 1444  HEM1444     0.0000
     16  O2A       48.9750   -4.5120   10.4780 O.co2 1444  HEM1444     0.0000
     17  NB        41.5900   -1.5800    5.3630 N.2   1444  HEM1444     0.0000
     18  C1B       42.6490   -0.9930    4.7060 C.2   1444  HEM1444     0.0000
     19  C2B       42.1030   -0.1420    3.6580 C.2   1444  HEM1444     0.0000
     20  C3B       40.7580   -0.2410    3.6810 C.2   1444  HEM1444     0.0000
     21  C4B       40.4200   -1.1490    4.7460 C.2   1444  HEM1444     0.0000
     22  CMB       42.9620    0.7050    2.6930 C.3   1444  HEM1444     0.0000
     23  CAB       39.6920    0.4760    2.7900 C.2   1444  HEM1444     0.0000
     24  CBB       39.8790    0.7540    1.4900 C.2   1444  HEM1444     0.0000
     25  NC        39.6460   -3.0080    6.9550 N.ar  1444  HEM1444     0.0000
     26  C1C       38.7650   -2.4100    6.0700 C.ar  1444  HEM1444     0.0000
     27  C2C       37.4180   -2.8530    6.3680 C.ar  1444  HEM1444     0.0000
     28  C3C       37.4880   -3.7130    7.3930 C.ar  1444  HEM1444     0.0000
     29  C4C       38.8950   -3.8200    7.7810 C.ar  1444  HEM1444     0.0000
     30  CMC       36.1440   -2.4230    5.5900 C.3   1444  HEM1444     0.0000
     31  CAC       36.3140   -4.4930    8.0530 C.2   1444  HEM1444     0.0000
     32  CBC       35.3990   -3.9260    8.8470 C.2   1444  HEM1444     0.0000
     33  ND        41.8420   -4.4800    8.2740 N.2   1444  HEM1444     0.0000
     34  C1D       40.7470   -4.8410    9.0650 C.2   1444  HEM1444     0.0000
     35  C2D       41.2140   -5.5690   10.2150 C.2   1444  HEM1444     0.0000
     36  C3D       42.7410   -5.6020   10.0870 C.2   1444  HEM1444     0.0000
     37  C4D       43.0420   -4.9100    8.8480 C.2   1444  HEM1444     0.0000
     38  CMD       40.3430   -6.1770   11.3450 C.3   1444  HEM1444     0.0000
     39  CAD       43.7620   -6.2520   11.0490 C.3   1444  HEM1444     0.0000
     40  CBD       44.2780   -7.5330   10.3970 C.3   1444  HEM1444     0.0000
     41  CGD       45.2580   -8.2340   11.3070 C.2   1444  HEM1444     0.0000
     42  O1D       45.5660   -9.4170   11.0150 O.co2 1444  HEM1444     0.0000
     43  O2D       45.7370   -7.6420   12.3200 O.co2 1444  HEM1444     0.0000
@<TRIPOS>BOND
     1    24    23    2
     2    22    19    1
     3    23    20    1
     4    19    20    2
     5    19    18    1
     6    20    21    1
     7    18     3    1
     8    18    17    2
     9    21     4    2
    10    21    17    1
    11     3    10    2
    12     4    26    1
    13    17     1    1
    14    11     9    1
    15    30    27    1
    16    10     9   ar
    17    10     6   ar
    18    26    27   ar
    19    26    25   ar
    20     9     8   ar
    21    27    28   ar
    22     1     6    1
    23     1    25    1
    24     1    33    1
    25     6     7   ar
    26    25    29   ar
    27     8     7   ar
    28     8    12    1
    29    28    29   ar
    30    28    31    1
    31     7     2    2
    32    12    13    1
    33    29     5    1
    34    31    32    2
    35    33    37    2
    36    33    34    1
    37     2    37    1
    38    15    14   ar
    39    13    14    1
    40     5    34    2
    41    37    36    1
    42    34    35    1
    43    14    16   ar
    44    36    35    2
    45    36    39    1
    46    35    38    1
    47    40    39    1
    48    40    41    1
    49    42    41   ar
    50    41    43   ar
