@<TRIPOS>MOLECULE
2ve4_HEM_A_1.pdb
 43 50 0 0 0
SMALL
GASTEIGER

@<TRIPOS>ATOM
      1 FE         49.8460    1.2020    9.9990 Fe    1442  HEM1442     0.0000
      2  CHA       48.6870   -2.0450    9.7360 C.2   1442  HEM1442     0.0000
      3  CHB       52.5770    0.1900    7.9340 C.2   1442  HEM1442     0.0000
      4  CHC       51.5010    4.2330   10.4390 C.2   1442  HEM1442     0.0000
      5  CHD       47.3550    2.1140   11.8600 C.2   1442  HEM1442     0.0000
      6  NA        50.5540   -0.6300    9.0460 N.ar  1442  HEM1442     0.0000
      7  C1A       49.8160   -1.7870    8.9920 C.ar  1442  HEM1442     0.0000
      8  C2A       50.4540   -2.6710    8.0360 C.ar  1442  HEM1442     0.0000
      9  C3A       51.5250   -2.0410    7.5280 C.ar  1442  HEM1442     0.0000
     10  C4A       51.6140   -0.7530    8.1620 C.ar  1442  HEM1442     0.0000
     11  CMA       52.5160   -2.5830    6.4770 C.3   1442  HEM1442     0.0000
     12  CAA       49.9680   -4.0700    7.6260 C.3   1442  HEM1442     0.0000
     13  CBA       50.2910   -5.1200    8.6820 C.3   1442  HEM1442     0.0000
     14  CGA       50.3380   -6.4710    8.0140 C.2   1442  HEM1442     0.0000
     15  O1A       50.7200   -6.5420    6.8360 O.co2 1442  HEM1442     0.0000
     16  O2A       49.9960   -7.5020    8.6260 O.co2 1442  HEM1442     0.0000
     17  NB        51.7210    2.0240    9.3970 N.2   1442  HEM1442     0.0000
     18  C1B       52.5760    1.4840    8.4390 C.2   1442  HEM1442     0.0000
     19  C2B       53.5010    2.5170    8.0230 C.2   1442  HEM1442     0.0000
     20  C3B       53.2380    3.6250    8.7060 C.2   1442  HEM1442     0.0000
     21  C4B       52.1140    3.3480    9.5860 C.2   1442  HEM1442     0.0000
     22  CMB       54.6310    2.4000    6.9880 C.3   1442  HEM1442     0.0000
     23  CAB       54.0500    4.9250    8.4500 C.2   1442  HEM1442     0.0000
     24  CBB       54.0160    5.9800    9.2510 C.2   1442  HEM1442     0.0000
     25  NC        49.5400    2.8730   10.9350 N.ar  1442  HEM1442     0.0000
     26  C1C       50.2830    4.0200   11.0400 C.ar  1442  HEM1442     0.0000
     27  C2C       49.5480    4.9460   11.8780 C.ar  1442  HEM1442     0.0000
     28  C3C       48.4070    4.3450   12.2680 C.ar  1442  HEM1442     0.0000
     29  C4C       48.3820    3.0270   11.6770 C.ar  1442  HEM1442     0.0000
     30  CMC       50.0170    6.3720   12.2240 C.3   1442  HEM1442     0.0000
     31  CAC       47.2500    4.8670   13.1670 C.2   1442  HEM1442     0.0000
     32  CBC       47.0720    6.1740   13.3890 C.2   1442  HEM1442     0.0000
     33  ND        48.2610    0.1810   10.7040 N.2   1442  HEM1442     0.0000
     34  C1D       47.3220    0.7850   11.5090 C.2   1442  HEM1442     0.0000
     35  C2D       46.3310   -0.2060   11.9300 C.2   1442  HEM1442     0.0000
     36  C3D       46.7640   -1.5030   11.2670 C.2   1442  HEM1442     0.0000
     37  C4D       47.9700   -1.1670   10.5240 C.2   1442  HEM1442     0.0000
     38  CMD       45.0860   -0.0770   12.8330 C.3   1442  HEM1442     0.0000
     39  CAD       46.0070   -2.8520   11.4010 C.3   1442  HEM1442     0.0000
     40  CBD       44.9300   -2.8850   10.3170 C.3   1442  HEM1442     0.0000
     41  CGD       44.0950   -4.1420   10.3780 C.2   1442  HEM1442     0.0000
     42  O1D       42.9910   -4.1370    9.7620 O.co2 1442  HEM1442     0.0000
     43  O2D       44.5100   -5.1470   11.0410 O.co2 1442  HEM1442     0.0000
@<TRIPOS>BOND
     1    11     9    1
     2    15    14   ar
     3    22    19    1
     4     9     8   ar
     5     9    10   ar
     6    12     8    1
     7    12    13    1
     8     3    10    2
     9     3    18    1
    10    14    16   ar
    11    14    13    1
    12    19    18    1
    13    19    20    2
    14     8     7   ar
    15    10     6   ar
    16    18    17    2
    17    23    20    1
    18    23    24    2
    19    20    21    1
    20     7     6   ar
    21     7     2    2
    22     6     1    1
    23    17    21    1
    24    17     1    1
    25    21     4    2
    26     2    37    1
    27    42    41   ar
    28     1    33    1
    29     1    25    1
    30    40    41    1
    31    40    39    1
    32    41    43   ar
    33     4    26    1
    34    37    33    2
    35    37    36    1
    36    33    34    1
    37    25    26   ar
    38    25    29   ar
    39    26    27   ar
    40    36    39    1
    41    36    35    2
    42    34     5    2
    43    34    35    1
    44    29     5    1
    45    29    28   ar
    46    27    30    1
    47    27    28   ar
    48    35    38    1
    49    28    31    1
    50    31    32    2
