@<TRIPOS>MOLECULE
2vea_CYC_A_1.pdb
 43 46 0 0 0
SMALL
GASTEIGER

@<TRIPOS>ATOM
      1  CHA      -33.4370   -1.1500   -0.2650 C.3   1521  CYC1521     0.1174
      2  NA       -35.2990   -2.3100   -1.4810 N.2   1521  CYC1521    -0.4104
      3  C1A      -34.4020   -2.2350   -0.4930 C.2   1521  CYC1521     0.1114
      4  C2A      -34.4530   -3.3720    0.4430 C.2   1521  CYC1521     0.0024
      5  C3A      -35.5320   -4.2110   -0.1260 C.2   1521  CYC1521     0.0021
      6  C4A      -35.9670   -3.4680   -1.2290 C.2   1521  CYC1521     0.1114
      7  CMA      -36.0440   -5.5320    0.3830 C.3   1521  CYC1521     0.0331
      8  CAA      -33.5360   -3.5270    1.6370 C.3   1521  CYC1521     0.0402
      9  CBA      -34.0780   -4.3880    2.7530 C.3   1521  CYC1521     0.1188
     10  CGA      -34.6830   -3.4810    3.7660 C.2   1521  CYC1521     0.3652
     11  O1A      -33.9510   -2.6010    4.2620 O.co2 1521  CYC1521    -0.2456
     12  O2A      -35.8840   -3.6630    4.0480 O.co2 1521  CYC1521    -0.2456
     13  CHB      -37.1700   -3.6840   -2.0710 C.3   1521  CYC1521     0.1181
     14  NB       -38.6620   -5.0970   -0.6210 N.2   1521  CYC1521    -0.3375
     15  C1B      -38.3980   -4.4570   -1.7810 C.2   1521  CYC1521     0.1254
     16  C2B      -39.4220   -4.5990   -2.6950 C.2   1521  CYC1521     0.0128
     17  C3B      -40.4170   -5.3710   -2.1310 C.2   1521  CYC1521     0.0706
     18  C4B      -39.8820   -5.6390   -0.8760 C.1   1521  CYC1521     0.2000
     19  CMB      -39.4580   -4.0230   -4.0600 C.3   1521  CYC1521     0.0339
     20  CAB      -41.7250   -5.7740   -2.7730 C.3   1521  CYC1521     0.0390
     21  CBB      -42.7720   -6.0650   -1.7370 C.3   1521  CYC1521     0.0058
     22  OB       -40.6070   -6.4510    0.1260 O.2   1521  CYC1521    -0.2096
     23  NC       -35.1960    2.2300   -4.1480 N.2   1521  CYC1521    -0.3448
     24  C1C      -36.0200    2.6170   -5.0300 C.1   1521  CYC1521     0.1788
     25  C2C      -35.5620    3.8390   -5.7630 C.3   1521  CYC1521     0.1246
     26  C3C      -34.2910    4.1970   -5.0190 C.3   1521  CYC1521     0.0660
     27  C4C      -34.1610    3.0580   -4.0580 C.2   1521  CYC1521     0.1070
     28  CMC      -35.3020    3.5420   -7.2290 C.3   1521  CYC1521     0.0192
     29  CAC      -34.3950    5.5070   -4.2600 C.3   1521  CYC1521     0.0078
     30  CBC      -34.6970    6.6970   -5.1540 C.3   1521  CYC1521     0.0005
     31  OC       -37.1770    2.0150   -5.2880 O.2   1521  CYC1521    -0.2142
     32  CHD      -33.0830    2.9000   -3.2680 C.3   1521  CYC1521     0.1138
     33  ND       -33.5920    0.7140   -2.0410 N.2   1521  CYC1521    -0.4100
     34  C1D      -32.8550    1.8560   -2.2240 C.2   1521  CYC1521     0.1114
     35  C2D      -31.8010    2.0670   -1.1940 C.2   1521  CYC1521     0.0061
     36  C3D      -31.9430    0.8520   -0.3770 C.2   1521  CYC1521     0.0242
     37  C4D      -33.0750    0.1170   -0.9450 C.2   1521  CYC1521     0.1153
     38  CMD      -30.8190    3.2010   -1.0860 C.3   1521  CYC1521     0.0334
     39  CAD      -31.2860    0.4530    0.8880 C.2   1521  CYC1521     0.0088
     40  CBD      -30.6560    1.3510    1.6240 C.2   1521  CYC1521     0.0862
     41  CGD      -30.0840    0.9890    2.9250 C.2   1521  CYC1521     0.3880
     42  O1D      -29.4670    1.9000    3.5170 O.co2 1521  CYC1521    -0.2405
     43  O2D      -30.2410   -0.1620    3.3930 O.co2 1521  CYC1521    -0.2405
@<TRIPOS>BOND
     1    28    25    1
     2    25    24    1
     3    25    26    1
     4    31    24    2
     5    30    29    1
     6    24    23    2
     7    26    29    1
     8    26    27    1
     9    23    27    2
    10    19    16    1
    11    27    32    1
    12    32    34    1
    13    20    17    1
    14    20    21    1
    15    16    17    2
    16    16    15    1
    17    34    33    2
    18    34    35    1
    19    17    18    1
    20    13    15    1
    21    13     6    1
    22    33    37    2
    23    15    14    2
    24     2     6    2
    25     2     3    2
    26     6     5    1
    27    35    38    1
    28    35    36    2
    29    37    36    1
    30    37     1    1
    31    18    14    2
    32    18    22    2
    33     3     1    1
    34     3     4    1
    35    36    39    1
    36     5     7    1
    37     5     4    2
    38     4     8    1
    39    39    40    2
    40    40    41    1
    41     8     9    1
    42     9    10    1
    43    41    43   ar
    44    41    42   ar
    45    10    12   ar
    46    10    11   ar
