@<TRIPOS>MOLECULE
2veb_HEM_A_1.pdb
 43 50 0 0 0
SMALL
GASTEIGER

@<TRIPOS>ATOM
      1 FE         10.6220   49.3180    8.1560 Fe    200  HEM200      0.0000
      2  CHA       11.6600   50.7360   11.0490 C.2   200  HEM200      0.0000
      3  CHB        8.7090   47.0840    9.8220 C.2   200  HEM200      0.0000
      4  CHC        9.1090   48.5890    5.2690 C.2   200  HEM200      0.0000
      5  CHD       13.3670   50.4470    6.5240 C.2   200  HEM200      0.0000
      6  NA        10.2760   48.9570   10.0900 N.2   200  HEM200      0.0000
      7  C1A       10.7760   49.6680   11.1590 C.2   200  HEM200      0.0000
      8  C2A       10.2310   49.1080   12.3750 C.2   200  HEM200      0.0000
      9  C3A        9.4220   48.1040   12.0140 C.2   200  HEM200      0.0000
     10  C4A        9.4330   47.9900   10.5720 C.2   200  HEM200      0.0000
     11  CMA        8.5860   47.1910   12.9110 C.3   200  HEM200      0.0000
     12  CAA       10.5300   49.6070   13.7990 C.3   200  HEM200      0.0000
     13  CBA        9.3520   50.4430   14.2960 C.3   200  HEM200      0.0000
     14  CGA        9.6030   51.0260   15.6640 C.2   200  HEM200      0.0000
     15  O1A        9.0960   50.4710   16.6870 O.co2 200  HEM200      0.0000
     16  O2A       10.3250   52.0480   15.7430 O.co2 200  HEM200      0.0000
     17  NB         9.2030   48.0550    7.6370 N.ar  200  HEM200      0.0000
     18  C1B        8.5170   47.1890    8.4640 C.ar  200  HEM200      0.0000
     19  C2B        7.5360   46.4520    7.6960 C.ar  200  HEM200      0.0000
     20  C3B        7.6170   46.8970    6.4290 C.ar  200  HEM200      0.0000
     21  C4B        8.6650   47.8970    6.3790 C.ar  200  HEM200      0.0000
     22  CMB        6.5740   45.3990    8.2590 C.3   200  HEM200      0.0000
     23  CAB        6.7690   46.5030    5.2160 C.2   200  HEM200      0.0000
     24  CBB        5.9330   45.4880    5.1460 C.2   200  HEM200      0.0000
     25  NC        11.1520   49.4900    6.2570 N.2   200  HEM200      0.0000
     26  C1C       10.3700   49.1360    5.1830 C.2   200  HEM200      0.0000
     27  C2C       11.1070   49.3680    3.9580 C.2   200  HEM200      0.0000
     28  C3C       12.3050   49.8280    4.3310 C.2   200  HEM200      0.0000
     29  C4C       12.3460   49.9350    5.7610 C.2   200  HEM200      0.0000
     30  CMC       10.5890   49.1050    2.5240 C.3   200  HEM200      0.0000
     31  CAC       13.4600   50.1780    3.4150 C.2   200  HEM200      0.0000
     32  ND        12.2370   50.3650    8.6920 N.ar  200  HEM200      0.0000
     33  C1D       13.1890   50.8620    7.8200 C.ar  200  HEM200      0.0000
     34  C2D       13.9870   51.8500    8.4860 C.ar  200  HEM200      0.0000
     35  C3D       13.4430   51.9800    9.8400 C.ar  200  HEM200      0.0000
     36  C4D       12.3860   51.0210    9.9130 C.ar  200  HEM200      0.0000
     37  CMD       15.1220   52.6810    7.8960 C.3   200  HEM200      0.0000
     38  CAD       13.8540   52.9800   10.9030 C.3   200  HEM200      0.0000
     39  CBD       12.9730   54.2410   10.7340 C.3   200  HEM200      0.0000
     40  CGD       13.3400   55.2780   11.7760 C.2   200  HEM200      0.0000
     41  O1D       14.2810   56.0750   11.5360 O.co2 200  HEM200      0.0000
     42  O2D       12.7010   55.3170   12.8550 O.co2 200  HEM200      0.0000
     43  CBC       14.6400   49.5850    3.7140 C.2   200  HEM200      0.0000
@<TRIPOS>BOND
     1    30    27    1
     2    31    43    2
     3    31    28    1
     4    27    28    2
     5    27    26    1
     6    28    29    1
     7    24    23    2
     8    26     4    2
     9    26    25    1
    10    23    20    1
    11     4    21    1
    12    29    25    2
    13    29     5    1
    14    25     1    1
    15    21    20   ar
    16    21    17   ar
    17    20    19   ar
    18     5    33    2
    19    17     1    1
    20    17    18   ar
    21    19    22    1
    22    19    18   ar
    23    33    34   ar
    24    33    32   ar
    25    37    34    1
    26     1    32    1
    27     1     6    1
    28    18     3    1
    29    34    35   ar
    30    32    36   ar
    31     3    10    2
    32    35    36   ar
    33    35    38    1
    34    36     2    2
    35     6    10    1
    36     6     7    2
    37    10     9    1
    38    39    38    1
    39    39    40    1
    40     2     7    1
    41     7     8    1
    42    41    40   ar
    43    40    42   ar
    44     9     8    2
    45     9    11    1
    46     8    12    1
    47    12    13    1
    48    13    14    1
    49    14    16   ar
    50    14    15   ar
