@<TRIPOS>MOLECULE
2ved_ADP_A_1.pdb
 27 29 0 0 0
SMALL
GASTEIGER

@<TRIPOS>ATOM
      1  PB        46.2030   19.3470    2.6190 P.3   2227  ADP2227     0.5373
      2  O1B       47.2020   18.3900    1.9960 O.2   2227  ADP2227    -0.2221
      3  O2B       46.4730   19.6860    4.0670 O.3   2227  ADP2227    -0.1143
      4  O3B       44.7660   18.9640    2.3000 O.3   2227  ADP2227    -0.1143
      5  PA        47.0660   22.0610    2.3990 P.3   2227  ADP2227     0.2231
      6  O1A       48.5120   21.8350    2.8310 O.2   2227  ADP2227    -0.5169
      7  O2A       46.0690   22.5950    3.4030 O.3   2227  ADP2227    -0.4370
      8  O3A       46.4500   20.7000    1.7780 O.3   2227  ADP2227    -0.2261
      9  O5'       46.9900   22.9310    1.0490 O.3   2227  ADP2227    -0.3111
     10  C5'       47.7320   22.5670   -0.0920 C.3   2227  ADP2227     0.1813
     11  C4'       47.9830   23.8620   -0.8820 C.3   2227  ADP2227     0.1821
     12  O4'       46.7630   24.3440   -1.4830 O.3   2227  ADP2227    -0.3135
     13  C3'       48.4480   25.0490   -0.0680 C.3   2227  ADP2227     0.2184
     14  O3'       49.4010   25.7590   -0.8720 O.3   2227  ADP2227    -0.2174
     15  C2'       47.1750   25.8800    0.1470 C.3   2227  ADP2227     0.2570
     16  O2'       47.3150   27.2780    0.4460 O.3   2227  ADP2227    -0.2130
     17  C1'       46.4650   25.7010   -1.1590 C.3   2227  ADP2227     0.3186
     18  N9        45.0240   25.9750   -0.9600 N.pl3 2227  ADP2227    -0.1439
     19  C8        44.2280   25.6210    0.0800 C.3   2227  ADP2227     0.3377
     20  N7        42.9620   26.0800   -0.1030 N.2   2227  ADP2227    -0.2095
     21  C5        42.9460   26.7510   -1.2720 C.2   2227  ADP2227     0.2526
     22  C6        41.9700   27.5190   -2.0640 C.2   2227  ADP2227     0.4393
     23  N6        40.6950   27.6630   -1.6810 N.pl3 2227  ADP2227     0.2180
     24  N1        42.3530   28.0610   -3.2270 N.2   2227  ADP2227     0.0021
     25  C2        43.6160   27.9240   -3.6680 C.3   2227  ADP2227     0.5254
     26  N3        44.5760   27.2660   -2.9990 N.2   2227  ADP2227    -0.0055
     27  C4        44.2990   26.6720   -1.8210 C.2   2227  ADP2227     0.3518
@<TRIPOS>BOND
     1    25    24    1
     2    25    26    1
     3    24    22    2
     4    26    27    2
     5    22    23    1
     6    22    21    1
     7    27    21    1
     8    27    18    1
     9    12    17    1
    10    12    11    1
    11    21    20    2
    12    17    18    1
    13    17    15    1
    14    18    19    1
    15    11    10    1
    16    11    13    1
    17    14    13    1
    18    20    19    1
    19    10     9    1
    20    13    15    1
    21    15    16    1
    22     9     5    1
    23     8     5    1
    24     8     1    1
    25     2     1    2
    26     4     1    1
    27     5     6    2
    28     5     7    1
    29     1     3    1
