@<TRIPOS>MOLECULE
2vee_HEM_A_1.pdb
 43 50 0 0 0
SMALL
GASTEIGER

@<TRIPOS>ATOM
      1 FE        -35.5620  -14.2240    7.0060 Fe    1196  HEM1196     0.0000
      2  CHA      -38.2620  -15.6170    5.5080 C.2   1196  HEM1196     0.0000
      3  CHB      -37.6200  -12.0790    8.7580 C.2   1196  HEM1196     0.0000
      4  CHC      -33.0070  -13.4540    9.0850 C.2   1196  HEM1196     0.0000
      5  CHD      -33.5260  -14.9780    4.5060 C.2   1196  HEM1196     0.0000
      6  NA       -37.6010  -13.8840    7.0900 N.2   1196  HEM1196     0.0000
      7  C1A      -38.5520  -14.6260    6.4230 C.2   1196  HEM1196     0.0000
      8  C2A      -39.8640  -14.1810    6.8630 C.2   1196  HEM1196     0.0000
      9  C3A      -39.6720  -13.2020    7.7550 C.2   1196  HEM1196     0.0000
     10  C4A      -38.2440  -12.9930    7.9230 C.2   1196  HEM1196     0.0000
     11  CMA      -40.7840  -12.4260    8.4900 C.3   1196  HEM1196     0.0000
     12  CAA      -41.2380  -14.7160    6.3770 C.3   1196  HEM1196     0.0000
     13  CBA      -41.8130  -15.7860    7.2970 C.3   1196  HEM1196     0.0000
     14  CGA      -43.1200  -16.2460    6.7050 C.2   1196  HEM1196     0.0000
     15  O1A      -44.1900  -15.7240    7.1040 O.co2 1196  HEM1196     0.0000
     16  O2A      -43.0880  -17.1380    5.8240 O.co2 1196  HEM1196     0.0000
     17  NB       -35.3470  -12.9620    8.6640 N.ar  1196  HEM1196     0.0000
     18  C1B      -36.3190  -12.1640    9.2240 C.ar  1196  HEM1196     0.0000
     19  C2B      -35.7220  -11.4730   10.3580 C.ar  1196  HEM1196     0.0000
     20  C3B      -34.4400  -11.8530   10.4560 C.ar  1196  HEM1196     0.0000
     21  C4B      -34.1840  -12.8010    9.3850 C.ar  1196  HEM1196     0.0000
     22  CMB      -36.4480  -10.4750   11.2890 C.3   1196  HEM1196     0.0000
     23  CAB      -33.3960  -11.3960   11.5090 C.2   1196  HEM1196     0.0000
     24  CBB      -33.5140  -10.2800   12.2370 C.2   1196  HEM1196     0.0000
     25  NC       -33.6030  -14.1910    6.8250 N.2   1196  HEM1196     0.0000
     26  C1C      -32.6870  -13.9040    7.8150 C.2   1196  HEM1196     0.0000
     27  C2C      -31.3710  -14.1590    7.2600 C.2   1196  HEM1196     0.0000
     28  C3C      -31.5140  -14.5750    5.9960 C.2   1196  HEM1196     0.0000
     29  C4C      -32.9300  -14.6050    5.6950 C.2   1196  HEM1196     0.0000
     30  CMC      -30.0250  -13.9880    7.9900 C.3   1196  HEM1196     0.0000
     31  CAC      -30.3720  -14.9610    5.0260 C.2   1196  HEM1196     0.0000
     32  CBC      -29.7330  -14.0080    4.3360 C.2   1196  HEM1196     0.0000
     33  ND       -35.8730  -15.1120    5.2000 N.ar  1196  HEM1196     0.0000
     34  C1D      -34.8020  -15.4980    4.4030 C.ar  1196  HEM1196     0.0000
     35  C2D      -35.2590  -16.5260    3.4860 C.ar  1196  HEM1196     0.0000
     36  C3D      -36.7500  -16.7160    3.8070 C.ar  1196  HEM1196     0.0000
     37  C4D      -37.0400  -15.7990    4.8870 C.ar  1196  HEM1196     0.0000
     38  CMD      -34.4370  -17.2730    2.4050 C.3   1196  HEM1196     0.0000
     39  CAD      -37.7200  -17.7040    3.1290 C.3   1196  HEM1196     0.0000
     40  CBD      -37.4890  -19.0630    3.7790 C.3   1196  HEM1196     0.0000
     41  CGD      -38.4670  -20.0830    3.2630 C.2   1196  HEM1196     0.0000
     42  O1D      -39.5310  -20.2540    3.9120 O.co2 1196  HEM1196     0.0000
     43  O2D      -38.1810  -20.7240    2.2150 O.co2 1196  HEM1196     0.0000
@<TRIPOS>BOND
     1    43    41   ar
     2    38    35    1
     3    39    40    1
     4    39    36    1
     5    41    40    1
     6    41    42   ar
     7    35    36   ar
     8    35    34   ar
     9    36    37   ar
    10    32    31    2
    11    34     5    2
    12    34    33   ar
    13     5    29    1
    14    37    33   ar
    15    37     2    2
    16    31    28    1
    17    33     1    1
    18     2     7    1
    19    29    28    1
    20    29    25    2
    21    16    14   ar
    22    28    27    2
    23    12     8    1
    24    12    13    1
    25     7     8    1
    26     7     6    2
    27    14    15   ar
    28    14    13    1
    29    25     1    1
    30    25    26    1
    31     8     9    2
    32     1     6    1
    33     1    17    1
    34     6    10    1
    35    27    26    1
    36    27    30    1
    37     9    10    1
    38     9    11    1
    39    26     4    2
    40    10     3    2
    41    17    18   ar
    42    17    21   ar
    43     3    18    1
    44     4    21    1
    45    18    19   ar
    46    21    20   ar
    47    19    20   ar
    48    19    22    1
    49    20    23    1
    50    23    24    2
