@<TRIPOS>MOLECULE
2veg_PMM_A_1.pdb
 18 19 0 0 0
SMALL
GASTEIGER

@<TRIPOS>ATOM
      1  N5        30.3990   48.3410    0.9640 N.2   1304  PMM1304    -0.3831
      2  C6        29.9820   48.6470   -0.2720 C.2   1304  PMM1304     0.1442
      3  C7        30.4180   47.8740   -1.3400 C.3   1304  PMM1304     0.1939
      4  N8        31.2510   46.8540   -1.1830 N.2   1304  PMM1304    -0.1992
      5  N1        32.5390   45.5230    0.2370 N.2   1304  PMM1304    -0.2672
      6  C2        32.9630   45.2050    1.4750 C.1   1304  PMM1304     0.2609
      7  N2        33.7770   44.1690    1.6140 N.pl3 1304  PMM1304    -0.0220
      8  N3        32.6030   45.8560    2.5960 N.2   1304  PMM1304    -0.2466
      9  C4        31.7790   46.8850    2.5440 C.1   1304  PMM1304     0.2569
     10  O4        31.4820   47.4540    3.7260 O.2   1304  PMM1304    -0.2052
     11  C4A       31.2430   47.3130    1.2000 C.2   1304  PMM1304     0.2989
     12  C8A       31.6930   46.5320    0.0330 C.1   1304  PMM1304     0.1401
     13  C9        29.0300   49.8410   -0.4360 C.3   1304  PMM1304     0.2097
     14  O10       29.1480   50.8040   -1.5220 O.3   1304  PMM1304    -0.2628
     15  PA        30.4080   51.4920   -2.1610 P.3   1304  PMM1304     0.5330
     16  O1P       30.7120   50.7050   -3.3170 O.2   1304  PMM1304    -0.2224
     17  O2P       30.2300   52.8900   -2.4020 O.3   1304  PMM1304    -0.1145
     18  O3P       31.2960   51.3420   -1.0560 O.3   1304  PMM1304    -0.1145
@<TRIPOS>BOND
     1    16    15    2
     2    17    15    1
     3    15    14    1
     4    15    18    1
     5    14    13    1
     6     3     4    1
     7     3     2    1
     8     4    12    2
     9    13     2    1
    10     2     1    2
    11    12     5    2
    12    12    11    1
    13     5     6    2
    14     1    11    2
    15    11     9    1
    16     6     7    1
    17     6     8    2
    18     9     8    2
    19     9    10    2
