@<TRIPOS>MOLECULE
2vek_ASF_B_1.pdb
 12 11 0 0 0
SMALL
GASTEIGER

@<TRIPOS>ATOM
      1  C2        31.5840  -16.9340   14.2490 C.3   1253  ASF1253     0.0001
      2  C3        31.0150  -18.0420   15.1170 C.3   1253  ASF1253     0.0018
      3  C4        30.2400  -17.4550   16.2930 C.3   1253  ASF1253     0.0253
      4  C5        29.3820  -18.5140   16.9960 C.3   1253  ASF1253     0.1508
      5  C7        30.2940  -17.3820   19.2430 C.3   1253  ASF1253     0.1626
      6  C8        29.9520  -16.1310   20.0130 C.3   1253  ASF1253     0.1393
      7  C9        31.1690  -15.2610   20.0890 C.2   1253  ASF1253     0.3667
      8  O1        27.9440  -16.9070   18.3340 O.2   1253  ASF1253    -0.1730
      9  O2        28.4210  -19.0430   19.3130 O.2   1253  ASF1253    -0.1730
     10  O3        31.7600  -15.1510   21.1930 O.co2 1253  ASF1253    -0.2456
     11  O4        31.5280  -14.6790   19.0430 O.co2 1253  ASF1253    -0.2456
     12  S5        28.9290  -17.9700   18.5150 S.O2  1253  ASF1253    -0.0094
@<TRIPOS>BOND
     1     1     2    1
     2     2     3    1
     3     3     4    1
     4     4    12    1
     5     8    12    2
     6    12     5    1
     7    12     9    2
     8    11     7   ar
     9     5     6    1
    10     6     7    1
    11     7    10   ar
