@<TRIPOS>MOLECULE
2vek_CIT_A_1.pdb
 13 12 0 0 0
SMALL
GASTEIGER

@<TRIPOS>ATOM
      1  C1        22.3170   -0.3790   -1.7490 C.2   1251  CIT1251     0.3680
      2  O1        22.0520   -1.5460   -2.0870 O.co2 1251  CIT1251    -0.2455
      3  O2        21.6400    0.6200   -2.0570 O.co2 1251  CIT1251    -0.2455
      4  C2        23.5890   -0.1250   -0.9250 C.3   1251  CIT1251     0.1560
      5  C3        24.7650    0.3140   -1.8140 C.3   1251  CIT1251     0.2402
      6  O7        24.8910   -0.5820   -2.9350 O.3   1251  CIT1251    -0.2129
      7  C4        24.5430    1.7600   -2.2930 C.3   1251  CIT1251     0.1560
      8  C6        26.0880    0.2510   -1.0120 C.2   1251  CIT1251     0.3927
      9  C5        25.7590    2.2630   -3.0960 C.2   1251  CIT1251     0.3680
     10  O3        26.1130    3.4420   -2.9080 O.co2 1251  CIT1251    -0.2455
     11  O4        26.3160    1.4640   -3.8820 O.co2 1251  CIT1251    -0.2455
     12  O5        26.2370    1.0790   -0.0790 O.co2 1251  CIT1251    -0.2429
     13  O6        26.9400   -0.6130   -1.3500 O.co2 1251  CIT1251    -0.2429
@<TRIPOS>BOND
     1    11     9   ar
     2     9    10   ar
     3     9     7    1
     4     6     5    1
     5     7     5    1
     6     2     1   ar
     7     3     1   ar
     8     5     8    1
     9     5     4    1
    10     1     4    1
    11    13     8   ar
    12     8    12   ar
