@<TRIPOS>MOLECULE
2ven_CIT_B_1.pdb
 13 12 0 0 0
SMALL
GASTEIGER

@<TRIPOS>ATOM
      1  C1        12.3160  -25.2570   37.4200 C.2   1251  CIT1251     0.3680
      2  O1        12.8790  -25.0990   38.5310 O.co2 1251  CIT1251    -0.2455
      3  O2        11.9430  -26.4080   37.0930 O.co2 1251  CIT1251    -0.2455
      4  C2        12.0740  -24.0720   36.4930 C.3   1251  CIT1251     0.1560
      5  C3        13.3570  -23.2590   36.3270 C.3   1251  CIT1251     0.2402
      6  O7        13.6480  -22.6060   37.5940 O.3   1251  CIT1251    -0.2129
      7  C4        13.2330  -22.2550   35.1750 C.3   1251  CIT1251     0.1560
      8  C6        14.5200  -24.1960   35.9860 C.2   1251  CIT1251     0.3927
      9  C5        12.3280  -21.0920   35.5020 C.2   1251  CIT1251     0.3680
     10  O3        11.1310  -21.1150   35.1820 O.co2 1251  CIT1251    -0.2455
     11  O4        12.7850  -20.1000   36.0940 O.co2 1251  CIT1251    -0.2455
     12  O5        15.5000  -24.2730   36.7630 O.co2 1251  CIT1251    -0.2429
     13  O6        14.4990  -24.9040   34.9430 O.co2 1251  CIT1251    -0.2429
@<TRIPOS>BOND
     1    13     8   ar
     2     7     9    1
     3     7     5    1
     4    10     9   ar
     5     9    11   ar
     6     8     5    1
     7     8    12   ar
     8     5     4    1
     9     5     6    1
    10     4     1    1
    11     3     1   ar
    12     1     2   ar
