@<TRIPOS>MOLECULE
2veo_PG4_A_1.pdb
 13 12 0 0 0
SMALL
GASTEIGER

@<TRIPOS>ATOM
      1  O1        43.5870    7.3040   47.1480 O.3   1443  PG41443    -0.2176
      2  C1        44.1940    7.3040   48.4440 C.3   1443  PG41443     0.2140
      3  C2        44.9280    8.6240   48.6390 C.3   1443  PG41443     0.1777
      4  O2        45.6120    8.6200   49.8910 O.3   1443  PG41443    -0.3483
      5  C3        47.0310    8.5600   49.7360 C.3   1443  PG41443     0.1742
      6  C4        47.6830    9.8080   50.3230 C.3   1443  PG41443     0.1742
      7  O3        49.0290    9.5260   50.7050 O.3   1443  PG41443    -0.3484
      8  C5        49.2990    9.9190   52.0510 C.3   1443  PG41443     0.1742
      9  C6        50.2930   11.0760   52.0760 C.3   1443  PG41443     0.1742
     10  O4        51.2760   10.8250   53.0770 O.3   1443  PG41443    -0.3483
     11  C7        52.4700   11.5800   52.8830 C.3   1443  PG41443     0.1777
     12  C8        52.9920   12.0630   54.2320 C.3   1443  PG41443     0.2140
     13  O5        54.4040   11.8360   54.3190 O.3   1443  PG41443    -0.2176
@<TRIPOS>BOND
     1     1     2    1
     2     2     3    1
     3     3     4    1
     4     5     4    1
     5     5     6    1
     6     6     7    1
     7     7     8    1
     8     8     9    1
     9     9    10    1
    10    11    10    1
    11    11    12    1
    12    12    13    1
