@<TRIPOS>MOLECULE
2ver_MTN_N_1.pdb
 27 27 0 0 0
SMALL
GASTEIGER

@<TRIPOS>ATOM
      1  O1         0.6460  -10.0580    6.1580 O.3   1111  MTN1111    -0.1177
      2  N1         1.1180   -9.0200    6.7180 N.4   1111  MTN1111    -0.1352
      3  C1         0.4380   -7.7080    6.6860 C.3   1111  MTN1111     0.0636
      4  C2         1.4060   -6.8990    7.4660 C.2   1111  MTN1111    -0.0603
      5  C3         2.4570   -7.5810    7.8820 C.2   1111  MTN1111    -0.0392
      6  C4         3.5850   -7.0120    8.6740 C.3   1111  MTN1111     0.0268
      7  S1         4.9060   -6.2630    7.6740 S.3   1111  MTN1111    -0.0884
      8  C5         2.4140   -9.0300    7.4560 C.3   1111  MTN1111     0.0669
      9  C6         3.6240   -9.4540    6.6320 C.3   1111  MTN1111    -0.0407
     10  C7         2.2550   -9.9140    8.6930 C.3   1111  MTN1111    -0.0407
     11  C8        -0.8970   -7.7930    7.4150 C.3   1111  MTN1111    -0.0410
     12  C9         0.2650   -7.1640    5.2680 C.3   1111  MTN1111    -0.0410
     13  H2         1.2610   -5.8500    7.6780 H     1111  MTN1111     0.0591
     14  H41        4.0280   -7.8030    9.2570 H     1111  MTN1111     0.0431
     15  H42        3.1860   -6.2530    9.3350 H     1111  MTN1111     0.0431
     16  H61        3.7660  -10.5210    6.7160 H     1111  MTN1111     0.0251
     17  H62        3.4620   -9.1940    5.5970 H     1111  MTN1111     0.0251
     18  H63        4.5050   -8.9450    6.9950 H     1111  MTN1111     0.0251
     19  H71        2.0260  -10.9230    8.3870 H     1111  MTN1111     0.0251
     20  H72        1.4510   -9.5340    9.3070 H     1111  MTN1111     0.0251
     21  H73        3.1740   -9.9090    9.2610 H     1111  MTN1111     0.0251
     22  H81       -0.7330   -8.1190    8.4320 H     1111  MTN1111     0.0251
     23  H82       -1.3680   -6.8220    7.4200 H     1111  MTN1111     0.0251
     24  H83       -1.5400   -8.5010    6.9130 H     1111  MTN1111     0.0251
     25  H91       -0.3390   -7.8500    4.6910 H     1111  MTN1111     0.0251
     26  H92       -0.2240   -6.2010    5.3050 H     1111  MTN1111     0.0251
     27  H93        1.2330   -7.0580    4.8020 H     1111  MTN1111     0.0251
@<TRIPOS>BOND
     1    25    12    1
     2    27    12    1
     3    12    26    1
     4    12     3    1
     5    17     9    1
     6     1     2    1
     7     9    16    1
     8     9    18    1
     9     9     8    1
    10     3     2    1
    11     3    11    1
    12     3     4    1
    13     2     8    1
    14    24    11    1
    15    11    23    1
    16    11    22    1
    17     8     5    1
    18     8    10    1
    19     4    13    1
    20     4     5    2
    21     7     6    1
    22     5     6    1
    23    19    10    1
    24     6    14    1
    25     6    15    1
    26    10    21    1
    27    10    20    1
