@<TRIPOS>MOLECULE
2ves_GVR_A_1.pdb
 30 33 0 0 0
SMALL
GASTEIGER

@<TRIPOS>ATOM
      1  O28       56.6260   40.6320   19.8480 O.2   1296  GVR1296    -0.5381
      2  C27       57.2700   40.9120   18.8440 C.2   1296  GVR1296     0.1048
      3  N29       58.0360   41.9940   18.8380 N.am  1296  GVR1296    -0.2015
      4  O30       58.0640   42.7640   20.0090 O.3   1296  GVR1296    -0.4026
      5  C26       57.2090   40.0420   17.6240 C.3   1296  GVR1296     0.1468
      6  C25       55.9780   40.3330   16.7840 C.3   1296  GVR1296     0.0521
      7  C15       55.7390   39.2430   15.7540 C.ar  1296  GVR1296    -0.0203
      8  C16       55.7900   39.5510   14.3940 C.ar  1296  GVR1296    -0.0042
      9  C17       55.5540   38.5720   13.4300 C.ar  1296  GVR1296    -0.0003
     10  C20       55.2520   37.2720   13.8180 C.ar  1296  GVR1296    -0.0000
     11  C21       55.0110   36.2580   12.8880 C.ar  1296  GVR1296    -0.0000
     12  C19       55.1940   36.9440   15.2580 C.ar  1296  GVR1296    -0.0003
     13  C24       54.8950   35.6490   15.6630 C.ar  1296  GVR1296    -0.0000
     14  C23       54.6620   34.6650   14.6980 C.ar  1296  GVR1296    -0.0000
     15  C22       54.7070   34.9750   13.3380 C.ar  1296  GVR1296    -0.0000
     16  C18       55.4340   37.9570   16.1780 C.ar  1296  GVR1296    -0.0042
     17  N1        58.3580   40.2140   16.7710 N.3   1296  GVR1296    -0.0725
     18  S2        59.5880   39.2370   16.9260 S.O2  1296  GVR1296     0.0772
     19  O13       59.9550   39.1580   18.3100 O.2   1296  GVR1296    -0.1516
     20  O14       60.6530   39.7420   16.1070 O.2   1296  GVR1296    -0.1516
     21  C3        59.1350   37.7910   16.3640 C.ar  1296  GVR1296     0.1236
     22  C4        58.8990   37.6600   14.9870 C.ar  1296  GVR1296     0.0200
     23  C5        58.5080   36.4400   14.4220 C.ar  1296  GVR1296     0.0014
     24  C8        58.3470   35.3150   15.2220 C.ar  1296  GVR1296     0.0001
     25  C9        57.9630   34.0860   14.6880 C.ar  1296  GVR1296     0.0000
     26  C7        58.5910   35.4380   16.6780 C.ar  1296  GVR1296     0.0013
     27  C6        58.9790   36.6750   17.2050 C.ar  1296  GVR1296     0.0200
     28  C12       58.4250   34.3010   17.4750 C.ar  1296  GVR1296     0.0000
     29  C11       58.0240   33.0900   16.8960 C.ar  1296  GVR1296     0.0000
     30  C10       57.8080   32.9790   15.5230 C.ar  1296  GVR1296     0.0000
@<TRIPOS>BOND
     1    11    15   ar
     2    11    10   ar
     3    15    14   ar
     4     9    10   ar
     5     9     8   ar
     6    10    12   ar
     7     8     7   ar
     8    23    22   ar
     9    23    24   ar
    10    25    24   ar
    11    25    30   ar
    12    14    13   ar
    13    22    21   ar
    14    24    26   ar
    15    12    13   ar
    16    12    16   ar
    17    30    29   ar
    18     7    16   ar
    19     7     6    1
    20    20    18    2
    21    21    18    1
    22    21    27   ar
    23    26    27   ar
    24    26    28   ar
    25    17    18    1
    26    17     5    1
    27     6     5    1
    28    29    28   ar
    29    18    19    2
    30     5     2    1
    31     3     2   am
    32     3     4    1
    33     2     1    2
