@<TRIPOS>MOLECULE
2vet_UMP_A_1.pdb
 20 21 0 0 0
SMALL
GASTEIGER

@<TRIPOS>ATOM
      1  N1       -28.5090   -9.0750   20.4200 N.am  1266  UMP1266    -0.1790
      2  C2       -27.5580   -8.0530   20.3200 C.1   1266  UMP1266     0.2844
      3  N3       -28.0030   -6.8830   20.0120 N.2   1266  UMP1266    -0.2452
      4  C4       -29.2450   -6.5700   19.7560 C.1   1266  UMP1266     0.2182
      5  C5       -30.3220   -7.5410   19.8060 C.2   1266  UMP1266     0.1242
      6  C6       -29.9060   -8.8930   20.1600 C.2   1266  UMP1266     0.0928
      7  O2       -26.4420   -8.2290   20.5200 O.2   1266  UMP1266    -0.1918
      8  O4       -29.5550   -5.5390   19.5230 O.2   1266  UMP1266    -0.2085
      9  C1'      -28.0670  -10.4340   20.7410 C.3   1266  UMP1266     0.2090
     10  C2'      -27.7090  -10.7060   22.0970 C.3   1266  UMP1266     0.0874
     11  C3'      -27.9460  -12.1900   21.9700 C.3   1266  UMP1266     0.1857
     12  C4'      -29.3030  -12.2800   21.2830 C.3   1266  UMP1266     0.1774
     13  O3'      -26.8200  -12.9360   21.4190 O.3   1266  UMP1266    -0.2203
     14  O4'      -28.9960  -11.2950   20.3120 O.3   1266  UMP1266    -0.3339
     15  C5'      -30.5560  -12.2390   22.2290 C.3   1266  UMP1266     0.1858
     16  O5'      -30.7240  -13.2760   23.1440 O.3   1266  UMP1266    -0.2675
     17  P        -31.3970  -13.1860   24.3380 P.3   1266  UMP1266     0.5327
     18  OP1      -30.6020  -12.5670   24.7280 O.3   1266  UMP1266    -0.1145
     19  OP2      -31.6240  -14.2240   24.8070 O.3   1266  UMP1266    -0.1145
     20  OP3      -32.3160  -12.5920   24.3750 O.2   1266  UMP1266    -0.2224
@<TRIPOS>BOND
     1     8     4    2
     2     4     5    1
     3     4     3    2
     4     5     6    2
     5     3     2    2
     6     6     1    1
     7    14     9    1
     8    14    12    1
     9     2     1   am
    10     2     7    2
    11     1     9    1
    12     9    10    1
    13    12    11    1
    14    12    15    1
    15    13    11    1
    16    11    10    1
    17    15    16    1
    18    16    17    1
    19    17    20    2
    20    17    18    1
    21    17    19    1
