@<TRIPOS>MOLECULE
2veu_IZ1_A_1.pdb
 41 45 0 0 0
SMALL
GASTEIGER

@<TRIPOS>ATOM
      1  C1        19.6070   16.5600   82.4170 C.3   1299  IZ11299     0.1923
      2  C2        20.8990   17.1630   81.9250 C.3   1299  IZ11299     0.1535
      3  C3        22.0520   16.3560   82.4130 C.1   1299  IZ11299     0.1504
      4  N4        21.7440   15.1130   82.8060 N.2   1299  IZ11299    -0.0608
      5  S5        19.9470   14.8030   82.6190 S.O2  1299  IZ11299     0.0928
      6  O6        19.2480   14.2870   84.0430 O.2   1299  IZ11299    -0.1499
      7  O7        19.5220   13.8490   81.2690 O.2   1299  IZ11299    -0.1499
      8  O9        23.2080   16.7650   82.4430 O.2   1299  IZ11299    -0.2253
      9  C11       18.4300   16.8130   81.4950 C.ar  1299  IZ11299     0.0025
     10  C12       18.6250   16.8220   80.0360 C.ar  1299  IZ11299    -0.0029
     11  C13       17.4920   17.0970   79.1490 C.ar  1299  IZ11299    -0.0045
     12  C14       16.1650   17.3590   79.7200 C.ar  1299  IZ11299    -0.0196
     13  C15       15.9690   17.3470   81.1800 C.ar  1299  IZ11299    -0.0045
     14  C16       17.0990   17.0740   82.0610 C.ar  1299  IZ11299    -0.0029
     15  C21       15.0020   17.6260   78.8160 C.3   1299  IZ11299     0.0620
     16  C23       16.5960   21.9220   78.5440 C.2   1299  IZ11299     0.1453
     17  C4        16.2420   21.5520   77.1850 C.3   1299  IZ11299     0.1963
     18  N11       15.9360   21.0130   79.4010 N.2   1299  IZ11299    -0.3560
     19  C25       15.2060   20.1200   78.5920 C.1   1299  IZ11299     0.0771
     20  N13       15.3840   20.4310   77.2240 N.2   1299  IZ11299    -0.2050
     21  C17       19.2000   25.1960   79.9770 C.ar  1299  IZ11299     0.0000
     22  C19       18.4970   24.3200   80.9390 C.ar  1299  IZ11299     0.0001
     23  C20       17.6320   23.2300   80.4480 C.ar  1299  IZ11299     0.0023
     24  C27       17.4660   23.0140   78.9940 C.ar  1299  IZ11299     0.0283
     25  C5        18.1680   23.8930   78.0340 C.ar  1299  IZ11299     0.0023
     26  C6        19.0340   24.9810   78.5270 C.ar  1299  IZ11299     0.0001
     27  C22       14.3290   18.9650   79.0930 C.3   1299  IZ11299     0.1976
     28  N45       13.0520   18.9480   78.3830 N.3   1299  IZ11299    -0.0627
     29  S1        11.8560   20.1030   78.7390 S.O2  1299  IZ11299     0.0778
     30  O1        10.4860   19.1320   78.2710 O.2   1299  IZ11299    -0.1516
     31  O2        11.8180   20.4810   80.4180 O.2   1299  IZ11299    -0.1516
     32  C18       11.5220   21.6980   73.7480 C.3   1299  IZ11299     0.4186
     33  C24       11.9550   22.0180   75.1140 C.ar  1299  IZ11299     0.0727
     34  C26       12.7120   23.2520   75.3750 C.ar  1299  IZ11299     0.0039
     35  C7        11.6290   21.1120   76.2150 C.ar  1299  IZ11299     0.0238
     36  C8        12.0580   21.4370   77.5760 C.ar  1299  IZ11299     0.1235
     37  C9        12.8100   22.6660   77.8410 C.ar  1299  IZ11299     0.0199
     38  C10       13.1380   23.5730   76.7390 C.ar  1299  IZ11299     0.0013
     39  F3        10.7380   20.4390   73.5620 F     1299  IZ11299    -0.1659
     40  F1        12.7000   21.5640   72.8280 F     1299  IZ11299    -0.1659
     41  F2        10.5630   22.7330   73.2100 F     1299  IZ11299    -0.1659
@<TRIPOS>BOND
     1    40    32    1
     2    41    32    1
     3    39    32    1
     4    32    33    1
     5    33    34   ar
     6    33    35   ar
     7    34    38   ar
     8    35    36   ar
     9    38    37   ar
    10    17    20    1
    11    17    16    1
    12    20    19    2
    13    36    37   ar
    14    36    29    1
    15    25    26   ar
    16    25    24   ar
    17    30    29    2
    18    28    29    1
    19    28    27    1
    20    26    21   ar
    21    16    24    1
    22    16    18    2
    23    19    27    1
    24    19    18    2
    25    29    31    2
    26    15    27    1
    27    15    12    1
    28    24    23   ar
    29    11    12   ar
    30    11    10   ar
    31    12    13   ar
    32    21    22   ar
    33    10     9   ar
    34    23    22   ar
    35    13    14   ar
    36     7     5    2
    37     9    14   ar
    38     9     1    1
    39     2     3    1
    40     2     1    1
    41     3     8    2
    42     3     4    2
    43     1     5    1
    44     5     4    1
    45     5     6    2
