@<TRIPOS>MOLECULE
2vev_IZ2_A_1.pdb
 42 46 0 0 0
SMALL
GASTEIGER

@<TRIPOS>ATOM
      1  C1        19.1860   16.6550   82.3440 C.3   1300  IZ21300     0.1923
      2  C2        20.4970   17.1570   81.8380 C.3   1300  IZ21300     0.1535
      3  C3        21.5820   16.4440   82.5620 C.1   1300  IZ21300     0.1504
      4  N4        21.2250   15.2550   83.0640 N.2   1300  IZ21300    -0.0608
      5  S5        19.5380   14.9240   82.6290 S.O2  1300  IZ21300     0.0928
      6  O6        18.5630   14.4070   83.8400 O.2   1300  IZ21300    -0.1499
      7  O7        19.3150   14.0850   81.2560 O.2   1300  IZ21300    -0.1499
      8  O9        22.7030   16.8680   82.7330 O.2   1300  IZ21300    -0.2253
      9  C11       17.9620   16.8440   81.4630 C.ar  1300  IZ21300     0.0025
     10  C12       18.0850   16.7760   80.0040 C.ar  1300  IZ21300    -0.0029
     11  C13       16.9100   16.9760   79.1690 C.ar  1300  IZ21300    -0.0045
     12  C14       15.6040   17.2440   79.7920 C.ar  1300  IZ21300    -0.0196
     13  C15       15.4830   17.3080   81.2460 C.ar  1300  IZ21300    -0.0045
     14  C16       16.6540   17.1090   82.0820 C.ar  1300  IZ21300    -0.0029
     15  C21       14.3850   17.4480   78.9280 C.3   1300  IZ21300     0.0620
     16  C22       13.7020   18.7980   79.1630 C.3   1300  IZ21300     0.1976
     17  N45       12.4340   18.7900   78.4100 N.3   1300  IZ21300    -0.0627
     18  S1        11.3170   20.0770   78.7670 S.O2  1300  IZ21300     0.0778
     19  C23       16.0510   21.5480   78.3030 C.2   1300  IZ21300     0.1273
     20  C4        15.7810   20.9780   76.9950 C.3   1300  IZ21300     0.1921
     21  N11       15.3390   20.9110   79.3430 N.2   1300  IZ21300    -0.3600
     22  C25       14.6190   19.9150   78.6530 C.1   1300  IZ21300     0.0767
     23  N13       14.8620   19.9440   77.2660 N.2   1300  IZ21300    -0.2053
     24  C5        17.0020   22.6980   78.5820 C.3   1300  IZ21300     0.0837
     25  C17       20.3260   23.0930   75.6360 C.ar  1300  IZ21300    -0.0000
     26  C18       19.3290   24.1660   75.7680 C.ar  1300  IZ21300    -0.0003
     27  C19       18.2300   24.0320   76.7310 C.ar  1300  IZ21300    -0.0039
     28  C20       18.1270   22.8250   77.5640 C.ar  1300  IZ21300    -0.0154
     29  C27       19.1270   21.7480   77.4290 C.ar  1300  IZ21300    -0.0039
     30  C6        20.2230   21.8840   76.4670 C.ar  1300  IZ21300    -0.0003
     31  O1         9.7060   19.5330   78.7750 O.2   1300  IZ21300    -0.1516
     32  O2        11.8510   20.9480   80.1380 O.2   1300  IZ21300    -0.1516
     33  C24       12.7020   23.4210   76.6430 C.ar  1300  IZ21300     0.0013
     34  C26       12.2610   23.1120   75.2800 C.ar  1300  IZ21300     0.0039
     35  C7        12.4030   22.4920   77.7350 C.ar  1300  IZ21300     0.0199
     36  C8        11.6640   21.2510   77.4630 C.ar  1300  IZ21300     0.1235
     37  C9        11.2210   20.9420   76.1030 C.ar  1300  IZ21300     0.0238
     38  C10       11.5170   21.8690   75.0110 C.ar  1300  IZ21300     0.0727
     39  C29       11.0560   21.5430   73.6670 C.3   1300  IZ21300     0.4186
     40  F4        12.2570   21.3860   72.8340 F     1300  IZ21300    -0.1659
     41  F6        10.1870   22.6160   73.1440 F     1300  IZ21300    -0.1659
     42  F5        10.1810   20.3400   73.4740 F     1300  IZ21300    -0.1659
@<TRIPOS>BOND
     1    40    39    1
     2    41    39    1
     3    42    39    1
     4    39    38    1
     5    38    34   ar
     6    38    37   ar
     7    34    33   ar
     8    25    26   ar
     9    25    30   ar
    10    26    27   ar
    11    37    36   ar
    12    30    29   ar
    13    33    35   ar
    14    27    28   ar
    15    20    23    1
    16    20    19    1
    17    23    22    2
    18    29    28   ar
    19    36    35   ar
    20    36    18    1
    21    28    24    1
    22    19    24    1
    23    19    21    2
    24    17    18    1
    25    17    16    1
    26    22    16    1
    27    22    21    2
    28    18    31    2
    29    18    32    2
    30    15    16    1
    31    15    12    1
    32    11    12   ar
    33    11    10   ar
    34    12    13   ar
    35    10     9   ar
    36    13    14   ar
    37     7     5    2
    38     9    14   ar
    39     9     1    1
    40     2     1    1
    41     2     3    1
    42     1     5    1
    43     3     8    2
    44     3     4    2
    45     5     4    1
    46     5     6    2
