@<TRIPOS>MOLECULE
2vew_IZ3_A_1.pdb
 40 44 0 0 0
SMALL
GASTEIGER

@<TRIPOS>ATOM
      1  C1        19.1370   16.6130   82.1960 C.3   1299  IZ31299     0.1923
      2  C2        20.4410   17.1320   81.6550 C.3   1299  IZ31299     0.1535
      3  C3        21.5630   16.3940   82.3110 C.1   1299  IZ31299     0.1504
      4  N4        21.2310   15.1920   82.7950 N.2   1299  IZ31299    -0.0608
      5  S5        19.4830   14.8760   82.5060 S.O2  1299  IZ31299     0.0928
      6  O6        18.5160   14.3070   83.6830 O.2   1299  IZ31299    -0.1499
      7  O7        19.2770   14.0180   81.0720 O.2   1299  IZ31299    -0.1499
      8  O9        22.6950   16.8270   82.4460 O.2   1299  IZ31299    -0.2253
      9  C11       17.9060   16.8140   81.3310 C.ar  1299  IZ31299     0.0025
     10  C12       17.9990   16.6790   79.8800 C.ar  1299  IZ31299    -0.0029
     11  C13       16.8120   16.8920   79.0520 C.ar  1299  IZ31299    -0.0045
     12  C14       15.5270   17.2110   79.6830 C.ar  1299  IZ31299    -0.0197
     13  C15       15.4360   17.3450   81.1400 C.ar  1299  IZ31299    -0.0045
     14  C16       16.6170   17.1470   81.9620 C.ar  1299  IZ31299    -0.0029
     15  C21       14.3020   17.3980   78.8370 C.3   1299  IZ31299     0.0609
     16  C22       13.7170   18.8170   78.9010 C.3   1299  IZ31299     0.1855
     17  N45       12.3840   18.7570   78.2870 N.3   1299  IZ31299    -0.0638
     18  S1        11.2740   20.0560   78.6210 S.O2  1299  IZ31299     0.0778
     19  O1         9.8210   19.3480   78.1340 O.2   1299  IZ31299    -0.1516
     20  O2        11.4830   20.4810   80.2350 O.2   1299  IZ31299    -0.1516
     21  C23       15.8110   20.7330   76.5480 C.3   1299  IZ31299     0.1425
     22  C4        16.2530   21.2700   77.8860 C.3   1299  IZ31299     0.1613
     23  N11       14.6540   19.8820   76.8530 N.2   1299  IZ31299    -0.2224
     24  C25       14.6360   19.8300   78.1960 C.1   1299  IZ31299     0.0202
     25  N13       15.4550   20.6040   78.9290 N.2   1299  IZ31299    -0.2207
     26  F1        11.7310   22.6060   74.2210 F     1299  IZ31299    -0.2041
     27  C24       12.1200   22.7090   75.6160 C.ar  1299  IZ31299     0.1415
     28  C26       12.9210   23.7570   76.2630 C.ar  1299  IZ31299     0.0297
     29  C7        11.6080   21.5910   76.3970 C.ar  1299  IZ31299     0.0496
     30  C8        11.9140   21.4970   77.8190 C.ar  1299  IZ31299     0.1258
     31  C9        12.7000   22.5500   78.4780 C.ar  1299  IZ31299     0.0201
     32  C10       13.2040   23.6800   77.6990 C.ar  1299  IZ31299     0.0037
     33  C17       15.4980   17.9880   72.1130 C.ar  1299  IZ31299     0.0023
     34  C19       15.8630   19.4130   72.1380 C.ar  1299  IZ31299    -0.0002
     35  C20       16.3390   20.0270   73.3830 C.ar  1299  IZ31299    -0.0020
     36  C27       16.4440   19.2180   74.6040 C.ar  1299  IZ31299     0.0073
     37  C5        16.1040   17.7900   74.5700 C.ar  1299  IZ31299     0.1362
     38  C6        15.6300   17.1750   73.3290 C.ar  1299  IZ31299     0.0293
     39  C18       16.9000   19.8590   75.9040 C.3   1299  IZ31299     0.0558
     40  F2        16.2530   17.0290   75.7940 F     1299  IZ31299    -0.2045
@<TRIPOS>BOND
     1    33    34   ar
     2    33    38   ar
     3    34    35   ar
     4    38    37   ar
     5    35    36   ar
     6    26    27    1
     7    37    36   ar
     8    37    40    1
     9    36    39    1
    10    27    28   ar
    11    27    29   ar
    12    39    21    1
    13    28    32   ar
    14    29    30   ar
    15    21    23    1
    16    21    22    1
    17    23    24    2
    18    32    31   ar
    19    30    31   ar
    20    30    18    1
    21    22    25    1
    22    19    18    2
    23    24    16    1
    24    24    25    2
    25    17    18    1
    26    17    16    1
    27    18    20    2
    28    15    16    1
    29    15    12    1
    30    11    12   ar
    31    11    10   ar
    32    12    13   ar
    33    10     9   ar
    34     7     5    2
    35    13    14   ar
    36     9    14   ar
    37     9     1    1
    38     2     1    1
    39     2     3    1
    40     1     5    1
    41     3     8    2
    42     3     4    2
    43     5     4    1
    44     5     6    2
