@<TRIPOS>MOLECULE
2vex_IZ4_A_1.pdb
 40 44 0 0 0
SMALL
GASTEIGER

@<TRIPOS>ATOM
      1  C1        18.9950   16.6810   82.1540 C.3   1300  IZ41300     0.1923
      2  C2        20.2680   17.3030   81.6540 C.3   1300  IZ41300     0.1535
      3  C3        21.4180   16.6200   82.3030 C.1   1300  IZ41300     0.1504
      4  N4        21.1440   15.3820   82.7140 N.2   1300  IZ41300    -0.0608
      5  S5        19.4000   14.9480   82.4380 S.O2  1300  IZ41300     0.0928
      6  O6        18.4540   14.5750   83.7760 O.2   1300  IZ41300    -0.1499
      7  O7        18.9890   14.1490   81.0150 O.2   1300  IZ41300    -0.1499
      8  O9        22.5230   17.1250   82.4980 O.2   1300  IZ41300    -0.2253
      9  C11       17.7650   16.8560   81.3000 C.ar  1300  IZ41300     0.0025
     10  C12       17.8460   16.6820   79.8450 C.ar  1300  IZ41300    -0.0029
     11  C13       16.6380   16.8570   79.0200 C.ar  1300  IZ41300    -0.0045
     12  C14       15.3600   17.2080   79.6630 C.ar  1300  IZ41300    -0.0197
     13  C15       15.2900   17.3790   81.1110 C.ar  1300  IZ41300    -0.0045
     14  C16       16.4930   17.2040   81.9310 C.ar  1300  IZ41300    -0.0029
     15  C21       14.1240   17.3920   78.8300 C.3   1300  IZ41300     0.0609
     16  C22       13.5670   18.8290   78.8950 C.3   1300  IZ41300     0.1855
     17  N45       12.2370   18.8140   78.2660 N.3   1300  IZ41300    -0.0638
     18  S1        11.1250   20.1440   78.5230 S.O2  1300  IZ41300     0.0778
     19  O1         9.6070   19.4500   78.1370 O.2   1300  IZ41300    -0.1516
     20  O2        11.2840   20.6440   80.1270 O.2   1300  IZ41300    -0.1516
     21  C23       15.5360   20.5450   76.2350 C.3   1300  IZ41300     0.1384
     22  C4        16.1730   21.1390   77.4810 C.3   1300  IZ41300     0.1610
     23  N11       14.4770   19.6530   76.7170 N.2   1300  IZ41300    -0.2228
     24  C25       14.5280   19.7400   78.1270 C.1   1300  IZ41300     0.0202
     25  N13       15.4680   20.6390   78.6820 N.2   1300  IZ41300    -0.2207
     26  F1        11.1460   22.3710   73.6980 F     1300  IZ41300    -0.2041
     27  C24       11.6060   22.4070   75.0680 C.ar  1300  IZ41300     0.1415
     28  C26       12.5110   23.4750   75.5080 C.ar  1300  IZ41300     0.0297
     29  C7        11.1750   21.3770   76.0070 C.ar  1300  IZ41300     0.0496
     30  C8        11.6440   21.4060   77.3840 C.ar  1300  IZ41300     0.1258
     31  C9        12.5510   22.4710   77.8310 C.ar  1300  IZ41300     0.0201
     32  C10       12.9830   23.5060   76.8910 C.ar  1300  IZ41300     0.0037
     33  C27       15.9070   19.0830   74.1930 C.3   1300  IZ41300     0.0284
     34  C18       16.5360   19.6800   75.4400 C.3   1300  IZ41300     0.0319
     35  C17       17.7290   17.6670   73.0160 C.ar  1300  IZ41300    -0.0043
     36  C19       16.4500   17.7370   73.7390 C.ar  1300  IZ41300    -0.0221
     37  C20       15.6860   16.5060   74.0060 C.ar  1300  IZ41300    -0.0043
     38  C28       16.2010   15.2110   73.5460 C.ar  1300  IZ41300    -0.0003
     39  C5        17.4800   15.1470   72.8190 C.ar  1300  IZ41300    -0.0000
     40  C6        18.2420   16.3720   72.5560 C.ar  1300  IZ41300    -0.0003
@<TRIPOS>BOND
     1    40    39   ar
     2    40    35   ar
     3    39    38   ar
     4    35    36   ar
     5    38    37   ar
     6    26    27    1
     7    36    37   ar
     8    36    33    1
     9    33    34    1
    10    27    28   ar
    11    27    29   ar
    12    34    21    1
    13    28    32   ar
    14    29    30   ar
    15    21    23    1
    16    21    22    1
    17    23    24    2
    18    32    31   ar
    19    30    31   ar
    20    30    18    1
    21    22    25    1
    22    24    25    2
    23    24    16    1
    24    19    18    2
    25    17    18    1
    26    17    16    1
    27    18    20    2
    28    15    16    1
    29    15    12    1
    30    11    12   ar
    31    11    10   ar
    32    12    13   ar
    33    10     9   ar
    34     7     5    2
    35    13    14   ar
    36     9    14   ar
    37     9     1    1
    38     2     1    1
    39     2     3    1
    40     1     5    1
    41     3     8    2
    42     3     4    2
    43     5     4    1
    44     5     6    2
