@<TRIPOS>MOLECULE
2vey_IZ5_A_1.pdb
 41 45 0 0 0
SMALL
GASTEIGER

@<TRIPOS>ATOM
      1  C1        19.2350   16.5500   81.9160 C.3   1300  IZ51300     0.1923
      2  C2        20.5300   17.1030   81.3930 C.3   1300  IZ51300     0.1535
      3  C3        21.6510   16.3950   82.0470 C.1   1300  IZ51300     0.1504
      4  N4        21.3110   15.2340   82.6110 N.2   1300  IZ51300    -0.0608
      5  S5        19.5700   14.8270   82.2380 S.O2  1300  IZ51300     0.0928
      6  O6        18.7340   14.2620   83.5700 O.2   1300  IZ51300    -0.1499
      7  O7        19.3330   14.0460   80.7340 O.2   1300  IZ51300    -0.1499
      8  O9        22.8030   16.8010   82.0830 O.2   1300  IZ51300    -0.2253
      9  C11       18.0080   16.7670   81.0460 C.ar  1300  IZ51300     0.0025
     10  C12       18.1310   16.7450   79.5810 C.ar  1300  IZ51300    -0.0029
     11  C13       16.9410   16.9860   78.7500 C.ar  1300  IZ51300    -0.0045
     12  C14       15.6470   17.2350   79.3970 C.ar  1300  IZ51300    -0.0196
     13  C15       15.5240   17.2560   80.8560 C.ar  1300  IZ51300    -0.0045
     14  C16       16.7050   17.0240   81.6790 C.ar  1300  IZ51300    -0.0029
     15  C21       14.4030   17.4610   78.5760 C.3   1300  IZ51300     0.0620
     16  C22       13.8710   18.8860   78.7280 C.3   1300  IZ51300     0.1976
     17  N45       12.5530   18.9410   78.1120 N.3   1300  IZ51300    -0.0627
     18  S1        11.5960   20.3590   78.3320 S.O2  1300  IZ51300     0.0779
     19  O1        10.0510   19.6560   77.9470 O.2   1300  IZ51300    -0.1516
     20  O2        11.8490   20.8170   79.9400 O.2   1300  IZ51300    -0.1516
     21  C23       15.8710   20.8140   76.2950 C.2   1300  IZ51300     0.1230
     22  C4        16.3340   21.4530   77.5030 C.3   1300  IZ51300     0.1917
     23  N11       14.9170   19.8300   76.6230 N.2   1300  IZ51300    -0.3603
     24  C25       14.7940   19.8620   78.0270 C.1   1300  IZ51300     0.0766
     25  N13       15.6420   20.8420   78.5750 N.2   1300  IZ51300    -0.2053
     26  C24       13.3160   23.4660   76.1530 C.ar  1300  IZ51300     0.0037
     27  C26       12.6720   23.2980   74.8440 C.ar  1300  IZ51300     0.0297
     28  C7        12.9670   22.5530   77.2500 C.ar  1300  IZ51300     0.0201
     29  C8        11.9900   21.4890   77.0280 C.ar  1300  IZ51300     0.1258
     30  C9        11.3460   21.3230   75.7290 C.ar  1300  IZ51300     0.0496
     31  C10       11.6930   22.2290   74.6390 C.ar  1300  IZ51300     0.1415
     32  C5        16.3100   21.1220   74.8780 C.3   1300  IZ51300     0.0578
     33  C17       16.6210   15.2970   73.2150 C.ar  1300  IZ51300    -0.0003
     34  C18       17.6250   15.2020   72.1460 C.ar  1300  IZ51300    -0.0000
     35  C19       18.5730   16.3030   71.8950 C.ar  1300  IZ51300    -0.0003
     36  C20       18.5110   17.5100   72.7200 C.ar  1300  IZ51300    -0.0043
     37  C27       17.5020   17.6050   73.7860 C.ar  1300  IZ51300    -0.0222
     38  C6        16.5590   16.5040   74.0410 C.ar  1300  IZ51300    -0.0043
     39  F1        11.0750   22.0470   73.3370 F     1300  IZ51300    -0.2041
     40  C30       16.4210   19.8630   74.0140 C.3   1300  IZ51300     0.0118
     41  C29       17.4120   18.8570   74.6060 C.3   1300  IZ51300     0.0268
@<TRIPOS>BOND
     1    35    34   ar
     2    35    36   ar
     3    34    33   ar
     4    36    37   ar
     5    33    38   ar
     6    39    31    1
     7    37    38   ar
     8    37    41    1
     9    40    41    1
    10    40    32    1
    11    31    27   ar
    12    31    30   ar
    13    27    26   ar
    14    32    21    1
    15    30    29   ar
    16    26    28   ar
    17    21    23    2
    18    21    22    1
    19    23    24    2
    20    29    28   ar
    21    29    18    1
    22    22    25    1
    23    19    18    2
    24    24    25    2
    25    24    16    1
    26    17    18    1
    27    17    16    1
    28    18    20    2
    29    15    16    1
    30    15    12    1
    31    11    12   ar
    32    11    10   ar
    33    12    13   ar
    34    10     9   ar
    35     7     5    2
    36    13    14   ar
    37     9    14   ar
    38     9     1    1
    39     2     1    1
    40     2     3    1
    41     1     5    1
    42     3     8    2
    43     3     4    2
    44     5     4    1
    45     5     6    2
