@<TRIPOS>MOLECULE
2vez_G6P_A_1.pdb
 16 16 0 0 0
SMALL
GASTEIGER

@<TRIPOS>ATOM
      1  C1        34.9640   40.5440    5.4750 C.3   1192  G6P1192     0.3024
      2  C2        33.8710   39.5280    5.8210 C.3   1192  G6P1192     0.2434
      3  C3        34.4180   38.0940    5.7740 C.3   1192  G6P1192     0.2199
      4  C4        35.1230   37.7820    4.4610 C.3   1192  G6P1192     0.2143
      5  C5        36.1710   38.8560    4.2090 C.3   1192  G6P1192     0.1808
      6  C6        36.8970   38.5960    2.9020 C.3   1192  G6P1192     0.1859
      7  O1        34.4310   41.8680    5.5140 O.3   1192  G6P1192    -0.1869
      8  O2        33.4060   39.7430    7.1320 O.3   1192  G6P1192    -0.2148
      9  O3        33.3430   37.2090    5.9330 O.3   1192  G6P1192    -0.2174
     10  O4        35.7550   36.5230    4.5950 O.3   1192  G6P1192    -0.2176
     11  O5        35.5490   40.1760    4.1830 O.3   1192  G6P1192    -0.3237
     12  O6        37.9230   39.5720    2.7640 O.3   1192  G6P1192    -0.2675
     13  P         39.4630   39.0710    2.6140 P.3   1192  G6P1192     0.5327
     14  O1P       40.4210   40.3310    2.5580 O.3   1192  G6P1192    -0.1145
     15  O2P       39.5810   38.4530    1.1400 O.2   1192  G6P1192    -0.2224
     16  O3P       39.8750   38.0150    3.5910 O.3   1192  G6P1192    -0.1145
@<TRIPOS>BOND
     1    15    13    2
     2    14    13    1
     3    13    12    1
     4    13    16    1
     5    12     6    1
     6     6     5    1
     7    11     5    1
     8    11     1    1
     9     5     4    1
    10     4    10    1
    11     4     3    1
    12     1     7    1
    13     1     2    1
    14     3     2    1
    15     3     9    1
    16     2     8    1
