@<TRIPOS>MOLECULE
2vf0_F89_A_1.pdb
 37 41 0 0 0
SMALL
GASTEIGER

@<TRIPOS>ATOM
      1  C1        14.5780   18.3080   32.8990 C.1   1266  F891266     0.2000
      2  O1A       15.1480   18.2940   33.9740 O.2   1266  F891266    -0.2127
      3  N2        13.6140   19.2430   32.7150 N.2   1266  F891266    -0.2741
      4  C3        12.8700   19.3600   31.4660 C.1   1266  F891266     0.1262
      5  C3M       11.8310   20.4100   31.2910 C.3   1266  F891266     0.1438
      6  N4        13.1120   18.5490   30.4780 N.2   1266  F891266    -0.3457
      7  C4A       14.1100   17.4830   30.5040 C.2   1266  F891266     0.1415
      8  C5        14.2990   16.6540   29.3890 C.2   1266  F891266     0.0300
      9  C6        15.2540   15.6220   29.3750 C.2   1266  F891266     0.0021
     10  C6A       16.0880   15.3770   30.4950 C.ar  1266  F891266    -0.0025
     11  C7        17.0730   14.3370   30.4650 C.ar  1266  F891266    -0.0005
     12  C8        17.9160   14.1040   31.5630 C.ar  1266  F891266    -0.0026
     13  C9        17.7880   14.9170   32.7370 C.ar  1266  F891266    -0.0009
     14  C10       16.8110   15.9500   32.8100 C.ar  1266  F891266    -0.0053
     15  C1B       15.9440   16.2100   31.6990 C.ar  1266  F891266     0.0005
     16  C1A       14.9310   17.2810   31.7110 C.3   1266  F891266     0.1939
     17  C11       18.6640   14.7620   33.9940 C.3   1266  F891266     0.1385
     18  N12       19.2400   13.4340   34.2660 N.pl3 1266  F891266    -0.2328
     19  C13       18.4060   12.3800   34.8290 C.ar  1266  F891266     0.0654
     20  C14       17.0220   12.7260   35.0820 C.ar  1266  F891266     0.0136
     21  C15       16.1900   11.7730   35.6190 C.ar  1266  F891266     0.0033
     22  C16       16.6290   10.4890   35.9210 C.ar  1266  F891266     0.0513
     23  C17       17.9930   10.1040   35.6800 C.ar  1266  F891266     0.0056
     24  C18       18.8680   11.0720   35.1250 C.ar  1266  F891266     0.0162
     25  C19       15.1410   12.1100   36.6850 C.3   1266  F891266     0.1211
     26  C         15.4540    9.7490   36.5020 C.2   1266  F891266     0.2494
     27  O         15.4860    8.5270   36.4690 O.2   1266  F891266    -0.2699
     28  N         14.6610   10.7120   37.0230 N.am  1266  F891266    -0.2636
     29  CA        13.3740   10.5530   37.8750 C.3   1266  F891266     0.1800
     30  CT        13.7910   10.0400   39.3500 C.2   1266  F891266     0.3825
     31  O1        14.2770    8.7370   39.3250 O.co2 1266  F891266    -0.2438
     32  O2        13.6010   10.7830   40.3380 O.co2 1266  F891266    -0.2438
     33  CB        12.3980    9.5250   37.0760 C.3   1266  F891266     0.0433
     34  CG        11.9840   10.1320   35.6200 C.3   1266  F891266     0.1163
     35  CD        11.3630    9.0280   34.7280 C.2   1266  F891266     0.3649
     36  OE1       10.2650    9.1230   34.1460 O.co2 1266  F891266    -0.2457
     37  OE2       12.2320    7.9550   34.6870 O.co2 1266  F891266    -0.2457
@<TRIPOS>BOND
     1     9     8    2
     2     9    10    1
     3     8     7    1
     4    11    10   ar
     5    11    12   ar
     6     6     7    2
     7     6     4    2
     8    10    15   ar
     9     7    16    1
    10     5     4    1
    11     4     3    2
    12    12    13   ar
    13    15    16    1
    14    15    14   ar
    15    16     1    1
    16     3     1    2
    17    13    14   ar
    18    13    17    1
    19     1     2    2
    20    17    18    1
    21    36    35   ar
    22    18    19    1
    23    37    35   ar
    24    35    34    1
    25    19    20   ar
    26    19    24   ar
    27    20    21   ar
    28    24    23   ar
    29    21    22   ar
    30    21    25    1
    31    34    33    1
    32    23    22   ar
    33    22    26    1
    34    27    26    2
    35    26    28   am
    36    25    28    1
    37    28    29    1
    38    33    29    1
    39    29    30    1
    40    31    30   ar
    41    30    32   ar
