@<TRIPOS>MOLECULE
2vf0_NDU_A_1.pdb
 23 24 0 0 0
SMALL
GASTEIGER

@<TRIPOS>ATOM
      1  P         15.1900   24.2430   25.8550 P.3   1265  NDU1265     0.5327
      2  OP1       14.0520   25.0000   25.2790 O.3   1265  NDU1265    -0.1145
      3  OP2       16.1680   25.1190   26.5630 O.3   1265  NDU1265    -0.1145
      4  OP3       15.6870   23.2950   24.8220 O.2   1265  NDU1265    -0.2224
      5  O5'       14.7580   23.3400   27.0900 O.3   1265  NDU1265    -0.2675
      6  C5'       15.4230   22.3700   27.8540 C.3   1265  NDU1265     0.1858
      7  C4'       14.8650   22.2270   29.2560 C.3   1265  NDU1265     0.1774
      8  C3'       15.1290   23.2790   30.3280 C.3   1265  NDU1265     0.1857
      9  O3'       14.0490   23.4470   31.2350 O.3   1265  NDU1265    -0.2203
     10  C2'       16.3940   22.8090   31.0250 C.3   1265  NDU1265     0.0871
     11  C1'       16.2140   21.2830   30.9900 C.3   1265  NDU1265     0.2049
     12  O4'       15.3090   21.0100   29.8880 O.3   1265  NDU1265    -0.3342
     13  N1        17.5350   20.6120   31.2000 N.am  1265  NDU1265    -0.1996
     14  C2        18.1440   20.3060   32.4830 C.1   1265  NDU1265     0.2803
     15  O2        18.0660   21.0200   33.4390 O.2   1265  NDU1265    -0.1922
     16  N3        18.8620   19.1040   32.6140 N.2   1265  NDU1265    -0.2476
     17  C4        19.3390   18.2610   31.5740 C.1   1265  NDU1265     0.2213
     18  O4        20.2540   17.4840   31.7350 O.2   1265  NDU1265    -0.2112
     19  C5        18.6070   18.3690   30.1650 C.3   1265  NDU1265     0.3033
     20  C6        17.8140   19.7650   29.8510 C.3   1265  NDU1265     0.1539
     21  N5        18.8310   17.4940   29.0960 N.pl3 1265  NDU1265     0.0514
     22  O51       19.4450   16.4160   29.2250 O.2   1265  NDU1265    -0.1299
     23  O52       18.4720   17.6500   27.9080 O.2   1265  NDU1265    -0.1299
@<TRIPOS>BOND
     1     4     1    2
     2     2     1    1
     3     1     3    1
     4     1     5    1
     5     5     6    1
     6     6     7    1
     7    23    21    2
     8    21    22    2
     9    21    19    1
    10     7    12    1
    11     7     8    1
    12    20    19    1
    13    20    13    1
    14    12    11    1
    15    19    17    1
    16     8    10    1
    17     8     9    1
    18    11    10    1
    19    11    13    1
    20    13    14   am
    21    17    18    2
    22    17    16    2
    23    14    16    2
    24    14    15    2
