@<TRIPOS>MOLECULE
2vf3_GVS_A_1.pdb
 28 30 0 0 0
SMALL
GASTEIGER

@<TRIPOS>ATOM
      1  CAE       44.2420  -11.7900  -26.4220 C.3   1269  GVS1269     0.0270
      2  CAO       44.9090  -13.1400  -26.7110 C.3   1269  GVS1269     0.0270
      3  CAF       43.9060  -12.5570  -27.7080 C.3   1269  GVS1269     0.1474
      4  SAG       44.5580  -11.8000  -29.2460 S.O2  1269  GVS1269     0.0565
      5  OAP       43.5650  -10.8210  -29.7650 O.2   1269  GVS1269    -0.1561
      6  OAB       45.8090  -11.0210  -28.9730 O.2   1269  GVS1269    -0.1561
      7  NAH       44.9390  -12.9920  -30.3920 N.3   1269  GVS1269    -0.0677
      8  CAI       46.3200  -13.5600  -30.3720 C.3   1269  GVS1269     0.1906
      9  CAJ       46.5210  -14.6430  -29.3660 C.1   1269  GVS1269    -0.0649
     10  CAK       46.7370  -15.5310  -28.4840 C.1   1269  GVS1269    -0.0575
     11  CAL       46.9810  -16.5470  -27.4730 C.2   1269  GVS1269     0.1050
     12  CAQ       47.8100  -16.2930  -26.3810 C.2   1269  GVS1269     0.0893
     13  CAC       46.3810  -17.7990  -27.5610 C.2   1269  GVS1269     0.2421
     14  NAA       45.5870  -18.0690  -28.5960 N.pl3 1269  GVS1269    -0.0914
     15  NAD       46.6040  -18.7390  -26.6200 N.2   1269  GVS1269    -0.3018
     16  CAM       47.3930  -18.5300  -25.5440 C.1   1269  GVS1269     0.2738
     17  OAN       47.5150  -19.4540  -24.7290 O.2   1269  GVS1269    -0.1926
     18  NAR       48.0510  -17.2710  -25.3760 N.am  1269  GVS1269    -0.2018
     19  CAT       48.9890  -16.9330  -24.2050 C.3   1269  GVS1269     0.1387
     20  CAS       50.4380  -16.6970  -24.6510 C.3   1269  GVS1269     0.1644
     21  OAZ       50.1380  -15.2770  -24.7560 O.3   1269  GVS1269    -0.3501
     22  CBA       49.0080  -15.4530  -23.8670 C.3   1269  GVS1269     0.1644
     23  CAU       48.8760  -17.7600  -22.8870 C.3   1269  GVS1269     0.1338
     24  CAV       49.9510  -18.8670  -22.6910 C.2   1269  GVS1269     0.3188
     25  OBB       50.1940  -19.6850  -23.5860 O.2   1269  GVS1269    -0.2500
     26  OAW       50.6440  -18.9280  -21.5060 O.3   1269  GVS1269    -0.4485
     27  CAX       51.1540  -20.2700  -21.1910 C.3   1269  GVS1269     0.2086
     28  CAY       52.6120  -20.5130  -21.6230 C.3   1269  GVS1269     0.0513
@<TRIPOS>BOND
     1     7     8    1
     2     7     4    1
     3     8     9    1
     4     5     4    2
     5     9    10    3
     6     4     6    2
     7     4     3    1
     8    14    13    1
     9    10    11    1
    10     3     2    1
    11     3     1    1
    12    13    11    1
    13    13    15    2
    14    11    12    2
    15     2     1    1
    16    15    16    2
    17    12    18    1
    18    16    18   am
    19    16    17    2
    20    18    19    1
    21    21    20    1
    22    21    22    1
    23    20    19    1
    24    19    22    1
    25    19    23    1
    26    25    24    2
    27    23    24    1
    28    24    26    1
    29    28    27    1
    30    26    27    1
