@<TRIPOS>MOLECULE
2vf5_GLP_X_1.pdb
 16 16 0 0 0
SMALL
GASTEIGER

@<TRIPOS>ATOM
      1  C1        28.7380   16.3320   -4.3670 C.3   609  GLP609      0.2893
      2  C2        28.9510   15.5570   -3.1100 C.3   609  GLP609      0.1836
      3  C3        28.7140   16.2730   -1.8050 C.3   609  GLP609      0.2071
      4  C4        28.9180   17.7930   -1.7180 C.3   609  GLP609      0.2132
      5  C5        28.7560   18.5250   -3.0340 C.3   609  GLP609      0.1807
      6  C6        29.7890   19.6240   -3.2960 C.3   609  GLP609      0.1859
      7  O1        27.4670   15.9700   -4.9090 O.3   609  GLP609     -0.1882
      8  N2        28.4120   14.2410   -3.2290 N.3   609  GLP609     -0.1247
      9  O3        28.9950   15.3860   -0.6950 O.3   609  GLP609     -0.2186
     10  O4        28.1480   18.5010   -0.7700 O.3   609  GLP609     -0.2176
     11  O5        28.7310   17.7380   -4.2120 O.3   609  GLP609     -0.3245
     12  O6        31.0680   19.1120   -3.6540 O.3   609  GLP609     -0.2675
     13  P         32.4170   19.8950   -3.1910 P.3   609  GLP609      0.5327
     14  O1P       32.4060   20.1700   -1.6240 O.3   609  GLP609     -0.1145
     15  O2P       33.5300   18.8480   -3.6130 O.3   609  GLP609     -0.1145
     16  O3P       32.4710   21.3150   -3.9410 O.2   609  GLP609     -0.2224
@<TRIPOS>BOND
     1     7     1    1
     2     1    11    1
     3     1     2    1
     4    11     5    1
     5    16    13    2
     6    12     6    1
     7    12    13    1
     8    15    13    1
     9     6     5    1
    10     8     2    1
    11    13    14    1
    12     2     3    1
    13     5     4    1
    14     3     4    1
    15     3     9    1
    16     4    10    1
