@<TRIPOS>MOLECULE
2vf6_M0N_A_1.pdb
 20 21 0 0 0
SMALL
GASTEIGER

@<TRIPOS>ATOM
      1  O         14.1400  -34.4490   26.7590 O.3   1351  M0N1351    -0.2104
      2  C9        15.3880  -34.3620   26.0790 C.3   1351  M0N1351     0.2214
      3  C8        15.3680  -33.1610   25.1570 C.3   1351  M0N1351     0.0904
      4  C2        15.0040  -31.8640   25.8060 C.ar  1351  M0N1351     0.0652
      5  C1        14.2950  -31.6150   26.9740 C.ar  1351  M0N1351     0.1137
      6  N1        14.2430  -30.2240   27.1530 N.ar  1351  M0N1351    -0.2252
      7  C7        14.9230  -29.6320   26.0900 C.ar  1351  M0N1351     0.1476
      8  C6        15.1700  -28.2900   25.7820 C.ar  1351  M0N1351     0.0374
      9  C5        15.8920  -27.9960   24.6150 C.ar  1351  M0N1351     0.0046
     10  C4        16.3640  -29.0380   23.8050 C.ar  1351  M0N1351     0.0191
     11  C3        16.0970  -30.3780   24.1250 C.ar  1351  M0N1351     0.0811
     12  N2        15.3670  -30.6340   25.2590 N.ar  1351  M0N1351    -0.2924
     13  P1        16.7490  -34.2120   27.2860 P.3   1351  M0N1351     0.1515
     14  O2        18.0550  -34.0480   26.5420 O.2   1351  M0N1351    -0.4572
     15  O3        16.5450  -33.0180   28.1820 O.3   1351  M0N1351    -0.3553
     16  O1        16.7950  -35.4650   28.1430 O.3   1351  M0N1351    -0.3553
     17  P2        15.6400  -35.8640   25.0890 P.3   1351  M0N1351     0.1515
     18  O5        17.0070  -35.8070   24.4160 O.3   1351  M0N1351    -0.3553
     19  O6        14.6660  -35.8620   23.9620 O.2   1351  M0N1351    -0.4572
     20  O4        15.5920  -37.0550   26.0220 O.3   1351  M0N1351    -0.3553
@<TRIPOS>BOND
     1    10    11   ar
     2    10     9   ar
     3    19    17    2
     4    11    12   ar
     5    18    17    1
     6     9     8   ar
     7    17    20    1
     8    17     2    1
     9     3     4    1
    10     3     2    1
    11    12     4   ar
    12    12     7   ar
    13     8     7   ar
    14     4     5   ar
    15     2     1    1
    16     2    13    1
    17     7     6   ar
    18    14    13    2
    19     5     6   ar
    20    13    16    1
    21    13    15    1
