@<TRIPOS>MOLECULE
2vf7_ADP_A_1.pdb
 27 29 0 0 0
SMALL
GASTEIGER

@<TRIPOS>ATOM
      1  PB        55.0170  116.8590  107.9060 P.3   1842  ADP1842     0.5373
      2  O1B       55.0580  115.8790  106.7620 O.2   1842  ADP1842    -0.2221
      3  O2B       55.8980  116.5440  109.0820 O.3   1842  ADP1842    -0.1143
      4  O3B       53.5980  117.1980  108.2740 O.3   1842  ADP1842    -0.1143
      5  PA        57.1280  118.8330  107.6350 P.3   1842  ADP1842     0.2231
      6  O1A       58.1480  118.1820  106.7580 O.2   1842  ADP1842    -0.5169
      7  O2A       57.3310  118.9090  109.1140 O.3   1842  ADP1842    -0.4370
      8  O3A       55.6560  118.2360  107.3290 O.3   1842  ADP1842    -0.2261
      9  O5'       57.0850  120.3640  107.1190 O.3   1842  ADP1842    -0.3111
     10  C5'       56.4010  120.7320  105.9280 C.3   1842  ADP1842     0.1813
     11  C4'       57.1180  121.8120  105.1340 C.3   1842  ADP1842     0.1821
     12  O4'       58.4280  122.0560  105.6400 O.3   1842  ADP1842    -0.3135
     13  C3'       57.2990  121.3060  103.7150 C.3   1842  ADP1842     0.2184
     14  O3'       57.1080  122.3800  102.7970 O.3   1842  ADP1842    -0.2174
     15  C2'       58.7330  120.8130  103.6750 C.3   1842  ADP1842     0.2570
     16  O2'       59.3060  120.8050  102.3600 O.3   1842  ADP1842    -0.2130
     17  C1'       59.4230  121.7550  104.6430 C.3   1842  ADP1842     0.3186
     18  N9        60.6180  121.1070  105.2370 N.pl3 1842  ADP1842    -0.1439
     19  C8        60.6120  120.2070  106.2480 C.3   1842  ADP1842     0.3377
     20  N7        61.8640  119.8070  106.5700 N.2   1842  ADP1842    -0.2095
     21  C5        62.7000  120.4630  105.7330 C.2   1842  ADP1842     0.2526
     22  C6        64.1690  120.5100  105.5170 C.2   1842  ADP1842     0.4393
     23  N6        64.9940  119.7510  106.2810 N.pl3 1842  ADP1842     0.2180
     24  N1        64.6480  121.3270  104.5470 N.2   1842  ADP1842     0.0021
     25  C2        63.8310  122.0790  103.7740 C.3   1842  ADP1842     0.5254
     26  N3        62.4870  122.0870  103.9160 N.2   1842  ADP1842    -0.0055
     27  C4        61.8750  121.3160  104.8590 C.2   1842  ADP1842     0.3518
@<TRIPOS>BOND
     1    16    15    1
     2    14    13    1
     3    15    13    1
     4    15    17    1
     5    13    11    1
     6    25    26    1
     7    25    24    1
     8    26    27    2
     9    24    22    2
    10    17    18    1
    11    17    12    1
    12    27    18    1
    13    27    21    1
    14    11    12    1
    15    11    10    1
    16    18    19    1
    17    22    21    1
    18    22    23    1
    19    21    20    2
    20    10     9    1
    21    19    20    1
    22     6     5    2
    23     2     1    2
    24     9     5    1
    25     8     5    1
    26     8     1    1
    27     5     7    1
    28     1     4    1
    29     1     3    1
