@<TRIPOS>MOLECULE
2vf8_ADP_A_1.pdb
 27 29 0 0 0
SMALL
GASTEIGER

@<TRIPOS>ATOM
      1  PB        57.2270  143.9940  103.6870 P.3   1843  ADP1843     0.5373
      2  O1B       57.3230  142.5130  104.0110 O.3   1843  ADP1843    -0.1143
      3  O2B       57.5200  144.3900  102.2720 O.2   1843  ADP1843    -0.2221
      4  O3B       57.9450  144.8510  104.6840 O.3   1843  ADP1843    -0.1143
      5  PA        54.6320  143.5430  102.8840 P.3   1843  ADP1843     0.2231
      6  O1A       54.8200  142.0420  103.0870 O.3   1843  ADP1843    -0.4370
      7  O2A       54.6580  144.1770  101.5060 O.2   1843  ADP1843    -0.5169
      8  O3A       55.6740  144.3410  103.8160 O.3   1843  ADP1843    -0.2261
      9  O5'       53.1950  143.8970  103.5280 O.3   1843  ADP1843    -0.3111
     10  C5'       52.7910  145.2080  103.9190 C.3   1843  ADP1843     0.1813
     11  C4'       51.2880  145.2350  104.1460 C.3   1843  ADP1843     0.1821
     12  O4'       50.6660  144.3020  103.2660 O.3   1843  ADP1843    -0.3135
     13  C3'       50.8980  144.7880  105.5460 C.3   1843  ADP1843     0.2184
     14  O3'       49.7530  145.5680  105.9730 O.3   1843  ADP1843    -0.2174
     15  C2'       50.6610  143.2820  105.3710 C.3   1843  ADP1843     0.2570
     16  O2'       49.8390  142.6290  106.3270 O.3   1843  ADP1843    -0.2130
     17  C1'       50.0360  143.2410  104.0000 C.3   1843  ADP1843     0.3186
     18  N9        50.3380  141.9440  103.3700 N.pl3 1843  ADP1843    -0.1439
     19  C8        51.5700  141.4570  103.1050 C.3   1843  ADP1843     0.3377
     20  N7        51.5010  140.2400  102.5050 N.2   1843  ADP1843    -0.2095
     21  C5        50.2020  139.9460  102.3840 C.2   1843  ADP1843     0.2526
     22  C6        49.4550  138.8100  101.8440 C.2   1843  ADP1843     0.4393
     23  N6        50.1150  137.7450  101.3150 N.pl3 1843  ADP1843     0.2180
     24  N1        48.1030  138.8950  101.9180 N.2   1843  ADP1843     0.0021
     25  C2        47.4480  139.9630  102.4380 C.3   1843  ADP1843     0.5254
     26  N3        48.0760  141.0350  102.9500 N.2   1843  ADP1843    -0.0055
     27  C4        49.4310  141.0680  102.9510 C.2   1843  ADP1843     0.3518
@<TRIPOS>BOND
     1    23    22    1
     2     7     5    2
     3    22    24    2
     4    22    21    1
     5    24    25    1
     6     3     1    2
     7    21    20    2
     8    21    27    1
     9    25    26    1
    10    20    19    1
    11     5     6    1
    12     5     9    1
    13     5     8    1
    14    26    27    2
    15    27    18    1
    16    19    18    1
    17    12    17    1
    18    12    11    1
    19    18    17    1
    20     9    10    1
    21     1     8    1
    22     1     2    1
    23     1     4    1
    24    10    11    1
    25    17    15    1
    26    11    13    1
    27    15    13    1
    28    15    16    1
    29    13    14    1
