@<TRIPOS>MOLECULE
2vfa_5GP_A_1.pdb
 19 21 0 0 0
SMALL
GASTEIGER

@<TRIPOS>ATOM
      1  C5'      -33.8950  -61.6970  -27.0540 C.3   1224  5GP1224     0.0349
      2  C4'      -33.8120  -62.7190  -28.1890 C.3   1224  5GP1224     0.1501
      3  O4'      -34.0580  -62.0770  -29.4460 O.3   1224  5GP1224    -0.3352
      4  C3'      -32.4290  -63.3640  -28.2570 C.3   1224  5GP1224     0.2133
      5  O3'      -32.5580  -64.7780  -28.0710 O.3   1224  5GP1224    -0.2176
      6  C2'      -31.8860  -63.0520  -29.6460 C.3   1224  5GP1224     0.2309
      7  O2'      -31.4360  -64.2350  -30.3260 O.3   1224  5GP1224    -0.2158
      8  C1'      -33.0500  -62.4230  -30.4050 C.3   1224  5GP1224     0.2292
      9  N9       -32.5800  -61.2230  -31.1440 N.pl3 1224  5GP1224    -0.2354
     10  C8       -32.4310  -59.9820  -30.6550 C.3   1224  5GP1224     0.2246
     11  N7       -31.9800  -59.1690  -31.6380 N.2   1224  5GP1224    -0.2322
     12  C5       -31.8470  -59.9160  -32.7540 C.2   1224  5GP1224     0.2182
     13  C6       -31.4320  -59.6400  -34.0530 C.1   1224  5GP1224     0.2372
     14  O6       -31.0850  -58.4840  -34.3720 O.2   1224  5GP1224    -0.2069
     15  N1       -31.4070  -60.6240  -34.9650 N.2   1224  5GP1224    -0.2485
     16  C2       -31.7780  -61.8750  -34.6410 C.1   1224  5GP1224     0.2531
     17  N2       -31.7490  -62.8540  -35.5760 N.pl3 1224  5GP1224    -0.0226
     18  N3       -32.1870  -62.1750  -33.3850 N.2   1224  5GP1224    -0.3074
     19  C4       -32.2270  -61.2090  -32.4320 C.2   1224  5GP1224     0.2300
@<TRIPOS>BOND
     1    17    16    1
     2    15    16    2
     3    15    13    2
     4    16    18    2
     5    14    13    2
     6    13    12    1
     7    18    19    2
     8    12    19    1
     9    12    11    2
    10    19     9    1
    11    11    10    1
    12     9    10    1
    13     9     8    1
    14     8     6    1
    15     8     3    1
    16     7     6    1
    17     6     4    1
    18     3     2    1
    19     4     2    1
    20     4     5    1
    21     2     1    1
