@<TRIPOS>MOLECULE
2vfe_3PG_A_1.pdb
 11 10 0 0 0
SMALL
GASTEIGER

@<TRIPOS>ATOM
      1  C1         5.6920   -4.1610   15.9530 C.2   1249  3PG1249     0.3972
      2  O1         6.7430   -3.9460   15.3210 O.co2 1249  3PG1249    -0.2427
      3  O2         4.6320   -4.4830   15.3780 O.co2 1249  3PG1249    -0.2427
      4  C2         5.7080   -4.0320   17.4500 C.3   1249  3PG1249     0.2838
      5  O3         4.4850   -4.5290   18.0000 O.3   1249  3PG1249    -0.2081
      6  C3         5.8720   -2.5730   17.8610 C.3   1249  3PG1249     0.1983
      7  O1P        6.3730   -2.5030   19.1960 O.3   1249  3PG1249    -0.2669
      8  P          7.3100   -1.2850   19.6700 P.3   1249  3PG1249     0.5327
      9  O2P        6.5150   -0.0520   19.3290 O.3   1249  3PG1249    -0.1145
     10  O3P        8.5790   -1.4330   18.8670 O.2   1249  3PG1249    -0.2224
     11  O4P        7.4890   -1.5240   21.1470 O.3   1249  3PG1249    -0.1145
@<TRIPOS>BOND
     1     2     1   ar
     2     3     1   ar
     3     1     4    1
     4     4     6    1
     5     4     5    1
     6     6     7    1
     7    10     8    2
     8     7     8    1
     9     9     8    1
    10     8    11    1
