@<TRIPOS>MOLECULE
2vfg_3PG_A_1.pdb
 11 10 0 0 0
SMALL
GASTEIGER

@<TRIPOS>ATOM
      1  C1        15.1400   15.1340    5.7170 C.2   1249  3PG1249     0.3972
      2  O1        14.3880   14.8700    6.6790 O.co2 1249  3PG1249    -0.2427
      3  O2        14.6890   15.4230    4.5900 O.co2 1249  3PG1249    -0.2427
      4  C2        16.6300   15.1120    5.9260 C.3   1249  3PG1249     0.2838
      5  O3        17.2990   15.6580    4.7800 O.3   1249  3PG1249    -0.2081
      6  C3        17.1200   13.6850    6.1630 C.3   1249  3PG1249     0.1983
      7  O1P       18.4720   13.7000    6.6250 O.3   1249  3PG1249    -0.2669
      8  P         19.0340   12.6070    7.6720 P.3   1249  3PG1249     0.5327
      9  O2P       18.8900   11.2780    6.9750 O.2   1249  3PG1249    -0.2224
     10  O3P       18.1540   12.7470    8.8890 O.3   1249  3PG1249    -0.1145
     11  O4P       20.4650   13.0360    7.8900 O.3   1249  3PG1249    -0.1145
@<TRIPOS>BOND
     1     3     1   ar
     2     5     4    1
     3     1     4    1
     4     1     2   ar
     5     4     6    1
     6     6     7    1
     7     7     8    1
     8     9     8    2
     9     8    11    1
    10     8    10    1
