@<TRIPOS>MOLECULE
2vfh_3PG_A_1.pdb
 11 10 0 0 0
SMALL
GASTEIGER

@<TRIPOS>ATOM
      1  C1         5.1670   14.6330   22.4860 C.2   1249  3PG1249     0.3972
      2  O1         4.9310   15.6110   23.2280 O.co2 1249  3PG1249    -0.2427
      3  O2         5.4880   13.5120   22.9260 O.co2 1249  3PG1249    -0.2427
      4  C2         5.0680   14.8000   20.9980 C.3   1249  3PG1249     0.2838
      5  O3         4.1000   13.9010   20.4540 O.3   1249  3PG1249    -0.2081
      6  C3         4.6950   16.2240   20.6260 C.3   1249  3PG1249     0.1983
      7  O1P        5.9000   16.9290   20.3610 O.3   1249  3PG1249    -0.2669
      8  P          5.8900   18.5310   20.3530 P.3   1249  3PG1249     0.5327
      9  O2P        4.8260   18.8590   19.3330 O.2   1249  3PG1249    -0.2224
     10  O3P        5.5470   18.9110   21.7770 O.3   1249  3PG1249    -0.1145
     11  O4P        7.2910   18.9050   19.9140 O.3   1249  3PG1249    -0.1145
@<TRIPOS>BOND
     1     9     8    2
     2    11     8    1
     3     8     7    1
     4     8    10    1
     5     7     6    1
     6     5     4    1
     7     6     4    1
     8     4     1    1
     9     1     3   ar
    10     1     2   ar
