@<TRIPOS>MOLECULE
2vfi_3PG_A_1.pdb
 11 10 0 0 0
SMALL
GASTEIGER

@<TRIPOS>ATOM
      1  C1        21.8540  -13.8680   21.8510 C.2   1249  3PG1249     0.3972
      2  O1        21.5150  -13.4070   20.7440 O.co2 1249  3PG1249    -0.2427
      3  O2        21.3540  -13.4920   22.9350 O.co2 1249  3PG1249    -0.2427
      4  C2        22.9160  -14.9230   21.8520 C.3   1249  3PG1249     0.2838
      5  O3        23.8060  -14.7120   22.9540 O.3   1249  3PG1249    -0.2081
      6  C3        22.2580  -16.2890   21.9780 C.3   1249  3PG1249     0.1983
      7  O1P       21.3810  -16.5540   20.8810 O.3   1249  3PG1249    -0.2669
      8  P         21.0880  -18.0760   20.4290 P.3   1249  3PG1249     0.5327
      9  O2P       21.2510  -18.8830   21.6970 O.3   1249  3PG1249    -0.1145
     10  O3P       22.1450  -18.3360   19.3850 O.2   1249  3PG1249    -0.2224
     11  O4P       19.6780  -18.0640   19.8890 O.3   1249  3PG1249    -0.1145
@<TRIPOS>BOND
     1    10     8    2
     2    11     8    1
     3     8     7    1
     4     8     9    1
     5     2     1   ar
     6     7     6    1
     7     1     4    1
     8     1     3   ar
     9     4     6    1
    10     4     5    1
