@<TRIPOS>MOLECULE
2vfk_AMP_A_1.pdb
 23 25 0 0 0
SMALL
GASTEIGER

@<TRIPOS>ATOM
      1  P        -13.5760  -10.1950   -1.3180 P.3   1293  AMP1293     0.5327
      2  O1P      -14.8530   -9.9940   -0.5190 O.3   1293  AMP1293    -0.1145
      3  O2P      -13.2630  -11.6410   -1.5200 O.3   1293  AMP1293    -0.1145
      4  O3P      -13.5290   -9.3330   -2.5620 O.2   1293  AMP1293    -0.2224
      5  O5'      -12.3660   -9.6170   -0.4330 O.3   1293  AMP1293    -0.2675
      6  C5'      -12.1580  -10.2140    0.8530 C.3   1293  AMP1293     0.1860
      7  C4'      -11.8060   -9.1190    1.8580 C.3   1293  AMP1293     0.1823
      8  O4'      -10.6940   -8.3320    1.4180 O.3   1293  AMP1293    -0.3135
      9  C3'      -12.9920   -8.1720    1.9730 C.3   1293  AMP1293     0.2184
     10  O3'      -13.6620   -8.3130    3.2030 O.3   1293  AMP1293    -0.2174
     11  C2'      -12.4260   -6.8050    1.8620 C.3   1293  AMP1293     0.2570
     12  O2'      -12.9140   -6.0170    2.9430 O.3   1293  AMP1293    -0.2130
     13  C1'      -10.9310   -7.0050    1.9210 C.3   1293  AMP1293     0.3186
     14  N9       -10.3690   -6.0020    1.0030 N.pl3 1293  AMP1293    -0.1439
     15  C8       -10.7970   -5.7370   -0.2630 C.3   1293  AMP1293     0.3377
     16  N7       -10.0630   -4.7730   -0.8440 N.2   1293  AMP1293    -0.2095
     17  C5        -9.1230   -4.4250    0.0670 C.2   1293  AMP1293     0.2526
     18  C6        -8.0360   -3.4320    0.0760 C.2   1293  AMP1293     0.4393
     19  N6        -7.8310   -2.6560   -1.0210 N.pl3 1293  AMP1293     0.2180
     20  N1        -7.2840   -3.3680    1.2220 N.2   1293  AMP1293     0.0021
     21  C2        -7.5410   -4.1320    2.3060 C.3   1293  AMP1293     0.5254
     22  N3        -8.5150   -5.0570    2.3730 N.2   1293  AMP1293    -0.0055
     23  C4        -9.3290   -5.2280    1.2760 C.2   1293  AMP1293     0.3518
@<TRIPOS>BOND
     1     4     1    2
     2     3     1    1
     3     1     2    1
     4     1     5    1
     5    19    18    1
     6    16    15    1
     7    16    17    2
     8     5     6    1
     9    15    14    1
    10    17    18    1
    11    17    23    1
    12    18    20    2
    13     6     7    1
    14    14    23    1
    15    14    13    1
    16    20    21    1
    17    23    22    2
    18     8     7    1
    19     8    13    1
    20     7     9    1
    21    11    13    1
    22    11     9    1
    23    11    12    1
    24     9    10    1
    25    21    22    1
