@<TRIPOS>MOLECULE
2vfl_C5P_A_1.pdb
 21 22 0 0 0
SMALL
GASTEIGER

@<TRIPOS>ATOM
      1  O3P       25.1300  -19.2370    1.0600 O.3   1293  C5P1293    -0.1145
      2  P         23.8000  -19.7670    0.5700 P.3   1293  C5P1293     0.5327
      3  O1P       22.8390  -20.2730    1.6350 O.3   1293  C5P1293    -0.1145
      4  O2P       23.0650  -18.7500   -0.2200 O.2   1293  C5P1293    -0.2224
      5  O5'       24.2890  -20.9690   -0.3940 O.3   1293  C5P1293    -0.2675
      6  C5'       24.4030  -20.9200   -1.8240 C.3   1293  C5P1293     0.1859
      7  C4'       23.2190  -21.8290   -2.1250 C.3   1293  C5P1293     0.1801
      8  O4'       23.4510  -23.1950   -2.5320 O.3   1293  C5P1293    -0.3320
      9  C3'       21.9960  -21.2810   -2.8900 C.3   1293  C5P1293     0.2158
     10  O3'       22.3570  -20.3910   -3.9480 O.3   1293  C5P1293    -0.2175
     11  C2'       21.2870  -22.5600   -3.3160 C.3   1293  C5P1293     0.2319
     12  O2'       21.6190  -22.8630   -4.6690 O.3   1293  C5P1293    -0.2157
     13  C1'       22.0530  -23.4410   -2.3370 C.3   1293  C5P1293     0.2400
     14  N1        21.5990  -24.7370   -1.8250 N.am  1293  C5P1293    -0.1778
     15  C2        21.6640  -26.0060   -2.4770 C.1   1293  C5P1293     0.2756
     16  N3        21.2140  -27.0910   -1.8010 N.2   1293  C5P1293    -0.3024
     17  C4        20.7360  -26.9740   -0.5310 C.2   1293  C5P1293     0.2346
     18  C5        20.6780  -25.7480    0.1040 C.2   1293  C5P1293     0.0687
     19  C6        21.1310  -24.6350   -0.5730 C.2   1293  C5P1293     0.0836
     20  O2        22.1130  -26.1400   -3.6430 O.2   1293  C5P1293    -0.1925
     21  N4        20.2930  -28.0440    0.1510 N.pl3 1293  C5P1293    -0.0921
@<TRIPOS>BOND
     1    12    11    1
     2    10     9    1
     3    20    15    2
     4    11     9    1
     5    11    13    1
     6     9     7    1
     7     8    13    1
     8     8     7    1
     9    15    14   am
    10    15    16    2
    11    13    14    1
    12     7     6    1
    13    14    19    1
    14     6     5    1
    15    16    17    2
    16    19    18    2
    17    17    18    1
    18    17    21    1
    19     5     2    1
    20     4     2    2
    21     2     1    1
    22     2     3    1
