@<TRIPOS>MOLECULE
2vfs_XYL_A_1.pdb
 10 9 0 0 0
SMALL
GASTEIGER

@<TRIPOS>ATOM
      1  C1        25.8070   42.7950   20.5990 C.3   1424  XYL1424     0.2175
      2  C2        26.9000   42.9700   21.6290 C.3   1424  XYL1424     0.2175
      3  C3        26.9130   41.8510   22.6820 C.3   1424  XYL1424     0.2175
      4  C4        27.8020   42.2490   23.9130 C.3   1424  XYL1424     0.2175
      5  C5        27.6860   41.2750   25.1140 C.3   1424  XYL1424     0.2175
      6  O1        25.7680   43.7810   19.5710 O.3   1424  XYL1424    -0.2175
      7  O2        28.1410   43.1000   20.9520 O.3   1424  XYL1424    -0.2175
      8  O3        27.3650   40.6430   22.0840 O.3   1424  XYL1424    -0.2175
      9  O4        29.1730   42.3510   23.5900 O.3   1424  XYL1424    -0.2175
     10  O5        26.3520   40.9220   25.3830 O.3   1424  XYL1424    -0.2175
@<TRIPOS>BOND
     1     6     1    1
     2     1     2    1
     3     7     2    1
     4     2     3    1
     5     8     3    1
     6     3     4    1
     7     9     4    1
     8     4     5    1
     9     5    10    1
