@<TRIPOS>MOLECULE
2vft_SOR_A_1.pdb
 12 11 0 0 0
SMALL
GASTEIGER

@<TRIPOS>ATOM
      1  C1        25.2170   42.1350   20.1220 C.3   1419  SOR1419     0.2175
      2  C2        26.2790   42.3610   21.1880 C.3   1419  SOR1419     0.2175
      3  C3        26.3310   41.1270   22.1140 C.3   1419  SOR1419     0.2175
      4  C4        27.2550   41.2760   23.3220 C.3   1419  SOR1419     0.2175
      5  C5        27.1330   40.0210   24.2140 C.3   1419  SOR1419     0.2175
      6  C6        28.0500   40.1050   25.4160 C.3   1419  SOR1419     0.2175
      7  O1        25.1930   43.2650   19.2910 O.3   1419  SOR1419    -0.2175
      8  O2        27.4960   42.5660   20.4980 O.3   1419  SOR1419    -0.2175
      9  O3        26.7230   39.9680   21.3770 O.3   1419  SOR1419    -0.2175
     10  O4        28.5990   41.4530   22.8720 O.3   1419  SOR1419    -0.2175
     11  O5        25.8030   39.6720   24.6620 O.3   1419  SOR1419    -0.2175
     12  O6        27.9910   38.8300   26.0290 O.3   1419  SOR1419    -0.2175
@<TRIPOS>BOND
     1     7     1    1
     2     1     2    1
     3     8     2    1
     4     2     3    1
     5     9     3    1
     6     3     4    1
     7    10     4    1
     8     4     5    1
     9     5    11    1
    10     5     6    1
    11     6    12    1
