@<TRIPOS>MOLECULE
2vfu_MTL_A_1.pdb
 12 11 0 0 0
SMALL
GASTEIGER

@<TRIPOS>ATOM
      1  O1        28.3510   38.8250   25.7720 O.3   1419  MTL1419    -0.2175
      2  C1        28.4410   40.0550   25.0500 C.3   1419  MTL1419     0.2175
      3  C2        27.4570   39.9340   23.8930 C.3   1419  MTL1419     0.2175
      4  O2        26.1470   39.6610   24.3990 O.3   1419  MTL1419    -0.2175
      5  C3        27.4910   41.1590   22.9780 C.3   1419  MTL1419     0.2175
      6  O3        28.8280   41.3310   22.4600 O.3   1419  MTL1419    -0.2175
      7  C4        26.5020   41.0330   21.7920 C.3   1419  MTL1419     0.2175
      8  O4        26.6620   39.7430   21.1500 O.3   1419  MTL1419    -0.2175
      9  C5        26.6430   42.2040   20.7870 C.3   1419  MTL1419     0.2175
     10  O5        26.6040   43.4510   21.5180 O.3   1419  MTL1419    -0.2175
     11  C6        25.4900   42.1810   19.7640 C.3   1419  MTL1419     0.2175
     12  O6        25.3540   43.4750   19.2030 O.3   1419  MTL1419    -0.2175
@<TRIPOS>BOND
     1    12    11    1
     2    11     9    1
     3     9    10    1
     4     9     7    1
     5     8     7    1
     6     7     5    1
     7     6     5    1
     8     5     3    1
     9     3     4    1
    10     3     2    1
    11     2     1    1
