@<TRIPOS>MOLECULE
2vfz_UPF_A_1.pdb
 36 38 0 0 0
SMALL
GASTEIGER

@<TRIPOS>ATOM
      1  N1        -4.4610    9.1130  -10.8310 N.am  1360  UPF1360    -0.1766
      2  C2        -4.4020    8.9640  -12.2560 C.1   1360  UPF1360     0.2845
      3  N3        -4.5300   10.0790  -13.1020 N.2   1360  UPF1360    -0.2452
      4  C4        -4.7400   11.3640  -12.5440 C.1   1360  UPF1360     0.2182
      5  C5        -4.8090   11.5540  -11.1450 C.2   1360  UPF1360     0.1242
      6  C6        -4.6780   10.4380  -10.3000 C.2   1360  UPF1360     0.0929
      7  O2        -4.2140    7.8420  -12.7680 O.2   1360  UPF1360    -0.1918
      8  O4        -4.8580   12.3260  -13.2940 O.2   1360  UPF1360    -0.2085
      9  C1D       -4.3100    7.9020   -9.8870 C.3   1360  UPF1360     0.2401
     10  C2D       -2.8590    7.4480   -9.9090 C.3   1360  UPF1360     0.2319
     11  O2'       -2.7760    6.0120   -9.8960 O.3   1360  UPF1360    -0.2157
     12  C3D       -2.2740    8.0440   -8.6560 C.3   1360  UPF1360     0.2158
     13  C4D       -3.4480    7.9830   -7.6640 C.3   1360  UPF1360     0.1799
     14  O4D       -4.6530    8.2230   -8.4910 O.3   1360  UPF1360    -0.3320
     15  O3D       -1.1080    7.3560   -8.2390 O.3   1360  UPF1360    -0.2175
     16  C5D       -3.3730    9.0670   -6.5610 C.3   1360  UPF1360     0.1813
     17  O5D       -3.3110   10.4070   -7.1180 O.3   1360  UPF1360    -0.3112
     18  PA        -2.0460   11.3530   -6.8790 P.3   1360  UPF1360     0.2189
     19  O1A       -0.8080   10.6010   -7.0400 O.3   1360  UPF1360    -0.4371
     20  O2A       -2.2290   12.5380   -7.7720 O.2   1360  UPF1360    -0.5170
     21  O3A       -2.2490   11.7860   -5.3480 O.3   1360  UPF1360    -0.2703
     22  PB        -1.1490   11.9490   -4.1550 P.3   1360  UPF1360     0.2208
     23  O1B        0.2500   11.6880   -4.5370 O.2   1360  UPF1360    -0.5170
     24  O2B       -1.4810   13.2560   -3.5200 O.3   1360  UPF1360    -0.4371
     25  O3B       -1.5300   10.6840   -3.2520 O.3   1360  UPF1360    -0.2856
     26  C1'       -2.1370   10.5990   -1.9420 C.3   1360  UPF1360     0.2764
     27  C2'       -2.2440    9.0730   -1.7010 C.3   1360  UPF1360     0.2498
     28  C3'       -3.2800    8.4630   -2.7170 C.3   1360  UPF1360     0.2220
     29  C4'       -4.6630    9.1600   -2.5600 C.3   1360  UPF1360     0.2146
     30  C5'       -4.4820   10.7030   -2.7530 C.3   1360  UPF1360     0.1835
     31  C6'       -5.7900   11.5030   -2.5690 C.3   1360  UPF1360     0.2142
     32  F2'       -1.0100    8.4720   -1.8080 F     1360  UPF1360    -0.2290
     33  O3'       -3.4110    7.0570   -2.5510 O.3   1360  UPF1360    -0.2172
     34  O4'       -5.2160    8.8470   -1.2830 O.3   1360  UPF1360    -0.2176
     35  O5'       -3.4460   11.2610   -1.8390 O.3   1360  UPF1360    -0.3253
     36  O6'       -5.5040   12.9030   -2.7560 O.3   1360  UPF1360    -0.2176
@<TRIPOS>BOND
     1     8     4    2
     2     3     4    2
     3     3     2    2
     4     7     2    2
     5     4     5    1
     6     2     1   am
     7     5     6    2
     8     1     6    1
     9     1     9    1
    10    10    11    1
    11    10     9    1
    12    10    12    1
    13     9    14    1
    14    12    15    1
    15    12    13    1
    16    14    13    1
    17    20    18    2
    18    13    16    1
    19    17    18    1
    20    17    16    1
    21    19    18    1
    22    18    21    1
    23    21    22    1
    24    23    22    2
    25    22    24    1
    26    22    25    1
    27    25    26    1
    28    36    31    1
    29    30    31    1
    30    30    29    1
    31    30    35    1
    32    28    29    1
    33    28    33    1
    34    28    27    1
    35    29    34    1
    36    26    35    1
    37    26    27    1
    38    32    27    1
