@<TRIPOS>MOLECULE
2vg0_GPP_A_1.pdb
 19 18 0 0 0
SMALL
GASTEIGER

@<TRIPOS>ATOM
      1  C1        27.5930   12.0440   -2.4680 C.3   1257  GPP1257     0.1491
      2  O1        26.4060   12.8710   -2.2970 O.3   1257  GPP1257    -0.3138
      3  C2        27.3360   10.6400   -1.8780 C.3   1257  GPP1257     0.0325
      4  C4        28.8510    8.6650   -2.3680 C.3   1257  GPP1257     0.0001
      5  C5        28.5940    9.5770    0.0220 C.3   1257  GPP1257     0.0047
      6  C6        27.9410    8.2280    0.4000 C.3   1257  GPP1257     0.0254
      7  C7        28.0260    8.0440    1.7860 C.2   1257  GPP1257    -0.0346
      8  C8        27.0610    7.6290    2.7150 C.2   1257  GPP1257    -0.0478
      9  C9        25.6250    7.2470    2.3150 C.3   1257  GPP1257     0.0260
     10  C10       27.4610    7.5410    4.1860 C.3   1257  GPP1257     0.0260
     11  PA        25.1080   12.4660   -2.9920 P.3   1257  GPP1257     0.2230
     12  O1A       25.4900   12.1340   -4.4680 O.2   1257  GPP1257    -0.5169
     13  O2A       24.4350   11.2650   -2.3430 O.3   1257  GPP1257    -0.4370
     14  O3A       24.0760   13.7330   -2.9350 O.3   1257  GPP1257    -0.2261
     15  PB        23.0530   13.8900   -4.1510 P.3   1257  GPP1257     0.5373
     16  O1B       23.0790   12.6340   -4.9630 O.2   1257  GPP1257    -0.2221
     17  O2B       21.6790   14.1660   -3.6920 O.3   1257  GPP1257    -0.1143
     18  O3B       23.6030   15.0770   -4.9070 O.3   1257  GPP1257    -0.1143
     19  C3        28.6270    9.9080   -1.4880 C.3   1257  GPP1257     0.0028
@<TRIPOS>BOND
     1    16    15    2
     2    18    15    1
     3    12    11    2
     4    15    17    1
     5    15    14    1
     6    11    14    1
     7    11    13    1
     8    11     2    1
     9     1     2    1
    10     1     3    1
    11     4    19    1
    12     3    19    1
    13    19     5    1
    14     5     6    1
    15     6     7    1
    16     7     8    2
    17     9     8    1
    18     8    10    1
