@<TRIPOS>MOLECULE
2vg1_FPP_B_1.pdb
 24 23 0 0 0
SMALL
GASTEIGER

@<TRIPOS>ATOM
      1  C1         4.4530   -8.8460   25.8680 C.3   1262  FPP1262     0.1747
      2  O1         4.7050  -10.2080   25.4900 O.3   1262  FPP1262    -0.3089
      3  C2         4.8120   -8.6480   27.1980 C.2   1262  FPP1262    -0.0024
      4  C3         5.9590   -7.9510   27.5770 C.2   1262  FPP1262    -0.0454
      5  C4         6.9160   -7.3480   26.5450 C.3   1262  FPP1262     0.0261
      6  C5         6.2770   -7.7960   29.0650 C.3   1262  FPP1262     0.0264
      7  C6         6.6130   -9.1630   29.6640 C.3   1262  FPP1262     0.0297
      8  C7         7.3950   -9.0420   30.9730 C.2   1262  FPP1262    -0.0342
      9  C8         7.2070   -9.9870   31.9740 C.2   1262  FPP1262    -0.0478
     10  C10        6.2200  -11.1400   31.7720 C.3   1262  FPP1262     0.0260
     11  C9         7.9860   -9.8740   33.2870 C.3   1262  FPP1262     0.0263
     12  C11        7.8940   -8.4580   33.8720 C.3   1262  FPP1262     0.0297
     13  C12        7.8190   -8.4820   35.2620 C.2   1262  FPP1262    -0.0342
     14  C13        8.9100   -8.1550   36.0650 C.2   1262  FPP1262    -0.0478
     15  C14       10.2520   -7.7510   35.4560 C.3   1262  FPP1262     0.0260
     16  C15        8.7560   -8.2000   37.5810 C.3   1262  FPP1262     0.0260
     17  PA         3.6040  -11.1330   24.9720 P.3   1262  FPP1262     0.2233
     18  O1A        3.9830  -12.5680   25.2650 O.2   1262  FPP1262    -0.5169
     19  O2A        2.2830  -10.8300   25.6290 O.3   1262  FPP1262    -0.4370
     20  O3A        3.4190  -10.9340   23.3730 O.3   1262  FPP1262    -0.2261
     21  PB         4.6010  -11.3650   22.3640 P.3   1262  FPP1262     0.5373
     22  O1B        5.9300  -10.9960   22.9770 O.3   1262  FPP1262    -0.1143
     23  O2B        4.5400  -12.8670   22.1390 O.3   1262  FPP1262    -0.1143
     24  O3B        4.4120  -10.6500   21.0400 O.2   1262  FPP1262    -0.2221
@<TRIPOS>BOND
     1    24    21    2
     2    23    21    1
     3    21    22    1
     4    21    20    1
     5    20    17    1
     6    17    18    2
     7    17     2    1
     8    17    19    1
     9     2     1    1
    10     1     3    1
    11     5     4    1
    12     3     4    2
    13     4     6    1
    14     6     7    1
    15     7     8    1
    16     8     9    2
    17    10     9    1
    18     9    11    1
    19    11    12    1
    20    12    13    1
    21    13    14    2
    22    15    14    1
    23    14    16    1
