@<TRIPOS>MOLECULE
2vg2_IPE_A_1.pdb
 14 13 0 0 0
SMALL
GASTEIGER

@<TRIPOS>ATOM
      1  C1         7.3800   17.8800    2.1790 C.3   1298  IPE1298     0.1491
      2  O1         6.7990   16.7030    2.8130 O.3   1298  IPE1298    -0.3138
      3  C2         8.0170   17.5560    0.8220 C.3   1298  IPE1298     0.0325
      4  C3         7.2200   18.1830   -0.3380 C.3   1298  IPE1298     0.0025
      5  C4         7.7020   19.4760   -1.0320 C.3   1298  IPE1298     0.0001
      6  C5         6.0440   17.5780   -0.7680 C.3   1298  IPE1298     0.0001
      7  PA         5.6790   16.9360    3.8300 P.3   1298  IPE1298     0.2230
      8  O1A        5.9990   16.3040    5.2020 O.3   1298  IPE1298    -0.4370
      9  O2A        5.6210   18.4300    4.0790 O.2   1298  IPE1298    -0.5169
     10  O3A        4.1780   16.5170    3.1920 O.3   1298  IPE1298    -0.2261
     11  PB         3.1410   15.3710    3.7580 P.3   1298  IPE1298     0.5373
     12  O1B        3.9690   14.3030    4.4250 O.3   1298  IPE1298    -0.1143
     13  O2B        2.1070   15.9170    4.7220 O.3   1298  IPE1298    -0.1143
     14  O3B        2.3620   14.7600    2.6420 O.2   1298  IPE1298    -0.2221
@<TRIPOS>BOND
     1     5     4    1
     2     6     4    1
     3     4     3    1
     4     3     1    1
     5     1     2    1
     6    14    11    2
     7     2     7    1
     8    10    11    1
     9    10     7    1
    10    11    12    1
    11    11    13    1
    12     7     9    2
    13     7     8    1
