@<TRIPOS>MOLECULE
2vg3_GPP_A_1.pdb
 19 18 0 0 0
SMALL
GASTEIGER

@<TRIPOS>ATOM
      1  C1        25.9660   26.0910  451.6490 C.3   1298  GPP1298     0.1491
      2  O1        27.1970   26.0140  452.3320 O.3   1298  GPP1298    -0.3138
      3  C2        25.5880   24.7500  451.0430 C.3   1298  GPP1298     0.0325
      4  C3        24.1730   24.7420  450.4250 C.3   1298  GPP1298     0.0028
      5  C4        24.0590   25.6440  449.1990 C.3   1298  GPP1298     0.0001
      6  C5        23.1140   25.0810  451.4740 C.3   1298  GPP1298     0.0047
      7  C6        22.4350   23.8160  452.0350 C.3   1298  GPP1298     0.0254
      8  C7        21.8660   24.0520  453.2850 C.2   1298  GPP1298    -0.0346
      9  C8        20.6110   23.6930  453.7800 C.2   1298  GPP1298    -0.0478
     10  C9        19.5950   22.9230  452.9340 C.3   1298  GPP1298     0.0260
     11  C10       20.2460   24.0990  455.2090 C.3   1298  GPP1298     0.0260
     12  PA        28.4920   25.7500  451.6180 P.3   1298  GPP1298     0.2230
     13  O1A       28.6110   24.3250  451.4340 O.3   1298  GPP1298    -0.4370
     14  O2A       28.4850   26.5370  450.3060 O.2   1298  GPP1298    -0.5169
     15  O3A       29.6440   26.2760  452.6380 O.3   1298  GPP1298    -0.2261
     16  PB        31.0290   26.9290  452.2380 P.3   1298  GPP1298     0.5373
     17  O1B       31.8680   25.9020  451.6140 O.3   1298  GPP1298    -0.1143
     18  O2B       30.8840   28.1420  451.3530 O.2   1298  GPP1298    -0.2221
     19  O3B       31.7210   27.3580  453.4930 O.3   1298  GPP1298    -0.1143
@<TRIPOS>BOND
     1     5     4    1
     2    14    12    2
     3     4     3    1
     4     4     6    1
     5     3     1    1
     6    18    16    2
     7    13    12    1
     8     6     7    1
     9    17    16    1
    10    12     2    1
    11    12    15    1
    12     1     2    1
    13     7     8    1
    14    16    15    1
    15    16    19    1
    16    10     9    1
    17     8     9    2
    18     9    11    1
