@<TRIPOS>MOLECULE
2vg5_NNC_A_1.pdb
 24 26 0 0 0
SMALL
GASTEIGER

@<TRIPOS>ATOM
      1  C13       10.4070   13.6170   15.7190 C.ar  1551  NNC1551     0.0175
      2  C14        9.9240   12.8090   16.7430 C.ar  1551  NNC1551     0.0127
      3  C15        8.6160   12.3420   16.6980 C.ar  1551  NNC1551     0.0578
      4 CL2         8.0110   11.3280   17.9600 Cl    1551  NNC1551    -0.0822
      5  C16        7.7910   12.6840   15.6350 C.ar  1551  NNC1551     0.0127
      6  C17        8.2700   13.4990   14.6170 C.ar  1551  NNC1551     0.0175
      7  C12        9.5820   13.9530   14.6510 C.ar  1551  NNC1551     0.0741
      8  N2        10.0260   14.7450   13.6800 N.am  1551  NNC1551    -0.1731
      9  C11       11.2190   15.3280   13.7700 C.2   1551  NNC1551     0.2534
     10  S1        11.7090   16.3290   12.5820 S.2   1551  NNC1551     0.0079
     11  O3        12.0230   15.1080   14.8460 O.3   1551  NNC1551    -0.4552
     12  C10       13.1470   16.0040   14.7980 C.3   1551  NNC1551     0.2293
     13  C9        14.1110   15.6710   15.9430 C.3   1551  NNC1551     0.1488
     14  N1        13.3670   15.6970   17.2070 N.am  1551  NNC1551    -0.2190
     15  C7        13.0670   16.7900   17.9030 C.2   1551  NNC1551     0.2552
     16  O1        13.4050   17.9370   17.6150 O.2   1551  NNC1551    -0.2695
     17  C1        12.3310   16.4310   19.0240 C.ar  1551  NNC1551     0.0584
     18  C6        11.7810   17.1540   20.0740 C.ar  1551  NNC1551     0.0047
     19  C5        11.0690   16.4850   21.0620 C.ar  1551  NNC1551     0.0001
     20  C4        10.9180   15.1050   21.0020 C.ar  1551  NNC1551     0.0001
     21  C3        11.4760   14.3850   19.9540 C.ar  1551  NNC1551     0.0047
     22  C2        12.1820   15.0530   18.9640 C.ar  1551  NNC1551     0.0584
     23  C8        12.8350   14.6410   17.8080 C.2   1551  NNC1551     0.2552
     24  O2        12.9240   13.4810   17.4110 O.2   1551  NNC1551    -0.2695
@<TRIPOS>BOND
     1    10     9    2
     2     8     9    1
     3     8     7    1
     4     9    11    1
     5     6     7   ar
     6     6     5   ar
     7     7     1   ar
     8    12    11    1
     9    12    13    1
    10     5     3   ar
    11     1     2   ar
    12    13    14    1
    13     3     2   ar
    14     3     4    1
    15    14    23   am
    16    14    15   am
    17    24    23    2
    18    16    15    2
    19    23    22    1
    20    15    17    1
    21    22    17   ar
    22    22    21   ar
    23    17    18   ar
    24    21    20   ar
    25    18    19   ar
    26    20    19   ar
