@<TRIPOS>MOLECULE
2vg6_NNB_A_1.pdb
 24 26 0 0 0
SMALL
GASTEIGER

@<TRIPOS>ATOM
      1  C13       10.5200   65.0550   61.9430 C.ar  1551  NNB1551     0.0171
      2  C14       10.0360   65.8940   60.9450 C.ar  1551  NNB1551     0.0080
      3  C15        8.6760   66.1680   60.8730 C.ar  1551  NNB1551     0.0347
      4 BR2         7.9920   67.3140   59.5250 Br    1551  NNB1551    -0.0490
      5  C16        7.8080   65.6090   61.8050 C.ar  1551  NNB1551     0.0080
      6  C17        8.2920   64.7710   62.8020 C.ar  1551  NNB1551     0.0171
      7  C12        9.6500   64.4930   62.8700 C.ar  1551  NNB1551     0.0741
      8  N2        10.1030   63.6930   63.8290 N.am  1551  NNB1551    -0.1731
      9  C11       11.3130   63.1470   63.7430 C.2   1551  NNB1551     0.2534
     10  S1        11.8390   62.1660   64.9310 S.2   1551  NNB1551     0.0079
     11  O3        12.1140   63.4030   62.6750 O.3   1551  NNB1551    -0.4552
     12  C10       13.2470   62.5300   62.7210 C.3   1551  NNB1551     0.2293
     13  C9        14.2280   62.9370   61.6190 C.3   1551  NNB1551     0.1488
     14  N1        13.5290   62.8720   60.3300 N.am  1551  NNB1551    -0.2190
     15  C8        13.2470   61.7550   59.6720 C.2   1551  NNB1551     0.2552
     16  O2        13.5590   60.6200   60.0370 O.2   1551  NNB1551    -0.2695
     17  C2        12.5560   62.0760   58.5090 C.ar  1551  NNB1551     0.0584
     18  C3        12.0380   61.3210   57.4660 C.ar  1551  NNB1551     0.0047
     19  C4        11.3730   61.9650   56.4270 C.ar  1551  NNB1551     0.0001
     20  C5        11.2340   63.3500   56.4290 C.ar  1551  NNB1551     0.0001
     21  C6        11.7670   64.1050   57.4670 C.ar  1551  NNB1551     0.0047
     22  C1        12.4220   63.4580   58.5060 C.ar  1551  NNB1551     0.0584
     23  C7        13.0400   63.9060   59.6610 C.2   1551  NNB1551     0.2552
     24  O1        13.1280   65.0810   60.0040 O.2   1551  NNB1551    -0.2695
@<TRIPOS>BOND
     1    19    20   ar
     2    19    18   ar
     3    20    21   ar
     4    18    17   ar
     5    21    22   ar
     6    22    17   ar
     7    22    23    1
     8    17    15    1
     9     4     3    1
    10    23    24    2
    11    23    14   am
    12    15    16    2
    13    15    14   am
    14    14    13    1
    15     3     2   ar
    16     3     5   ar
    17     2     1   ar
    18    13    12    1
    19     5     6   ar
    20     1     7   ar
    21    11    12    1
    22    11     9    1
    23     6     7   ar
    24     7     8    1
    25     9     8    1
    26     9    10    2
