@<TRIPOS>MOLECULE
2vg7_NNI_A_1.pdb
 24 26 0 0 0
SMALL
GASTEIGER

@<TRIPOS>ATOM
      1  C13       10.5600   65.0560   61.6220 C.ar  1551  NNI1551     0.0171
      2  C14       10.0480   65.9010   60.6420 C.ar  1551  NNI1551     0.0071
      3  C15        8.6980   66.2430   60.6460 C.ar  1551  NNI1551     0.0301
      4  I15        7.9070   67.5390   59.1910 I     1551  NNI1551    -0.0425
      5  C16        7.8680   65.7340   61.6390 C.ar  1551  NNI1551     0.0071
      6  C17        8.3790   64.8910   62.6170 C.ar  1551  NNI1551     0.0171
      7  C12        9.7240   64.5460   62.6080 C.ar  1551  NNI1551     0.0741
      8  N2        10.1860   63.7420   63.5620 N.am  1551  NNI1551    -0.1731
      9  C11       11.3740   63.1460   63.4940 C.2   1551  NNI1551     0.2534
     10  S1        11.8460   62.1720   64.7160 S.2   1551  NNI1551     0.0079
     11  O3        12.1880   63.3270   62.4190 O.3   1551  NNI1551    -0.4552
     12  C10       13.2450   62.3480   62.3980 C.3   1551  NNI1551     0.2293
     13  C9        14.1760   62.6450   61.2160 C.3   1551  NNI1551     0.1488
     14  N1        13.3910   62.7100   59.9720 N.am  1551  NNI1551    -0.2190
     15  C8        13.0610   61.6750   59.2040 C.2   1551  NNI1551     0.2552
     16  O2        13.3710   60.5010   59.3990 O.2   1551  NNI1551    -0.2695
     17  C2        12.3050   62.1200   58.1300 C.ar  1551  NNI1551     0.0584
     18  C3        11.7230   61.4770   57.0460 C.ar  1551  NNI1551     0.0047
     19  C4        11.0120   62.2250   56.1160 C.ar  1551  NNI1551     0.0001
     20  C5        10.8850   63.6000   56.2720 C.ar  1551  NNI1551     0.0001
     21  C6        11.4750   64.2400   57.3550 C.ar  1551  NNI1551     0.0047
     22  C1        12.1840   63.4930   58.2850 C.ar  1551  NNI1551     0.0584
     23  C7        12.8770   63.8150   59.4460 C.2   1551  NNI1551     0.2552
     24  O1        12.9940   64.9480   59.9140 O.2   1551  NNI1551    -0.2695
@<TRIPOS>BOND
     1    19    20   ar
     2    19    18   ar
     3    20    21   ar
     4    18    17   ar
     5    21    22   ar
     6    17    22   ar
     7    17    15    1
     8    22    23    1
     9     4     3    1
    10    15    16    2
    11    15    14   am
    12    23    24    2
    13    23    14   am
    14    14    13    1
    15     2     3   ar
    16     2     1   ar
    17     3     5   ar
    18    13    12    1
    19     1     7   ar
    20     5     6   ar
    21    12    11    1
    22    11     9    1
    23     7     6   ar
    24     7     8    1
    25     9     8    1
    26     9    10    2
