@<TRIPOS>MOLECULE
2vg8_UDP_A_1.pdb
 25 26 0 0 0
SMALL
GASTEIGER

@<TRIPOS>ATOM
      1  N1         2.6660   32.0300   20.2580 N.am  1477  UDP1477    -0.1766
      2  C2         1.6590   32.7340   19.6200 C.1   1477  UDP1477     0.2845
      3  N3         1.7390   32.8820   18.2640 N.2   1477  UDP1477    -0.2452
      4  C4         2.8020   32.3550   17.5340 C.1   1477  UDP1477     0.2182
      5  C5         3.8350   31.6670   18.1540 C.2   1477  UDP1477     0.1242
      6  C6         3.7720   31.5530   19.5520 C.2   1477  UDP1477     0.0929
      7  O2         0.6890   33.2100   20.2130 O.2   1477  UDP1477    -0.1918
      8  O4         2.8170   32.5780   16.3240 O.2   1477  UDP1477    -0.2085
      9  C1'        2.5910   31.8430   21.7140 C.3   1477  UDP1477     0.2401
     10  C2'        2.2030   30.3880   22.0440 C.3   1477  UDP1477     0.2319
     11  O2'        0.8110   30.2690   22.1060 O.3   1477  UDP1477    -0.2157
     12  C3'        2.9180   30.1100   23.3680 C.3   1477  UDP1477     0.2158
     13  C4'        4.1150   31.0170   23.2650 C.3   1477  UDP1477     0.1799
     14  O4'        3.8390   32.0190   22.2980 O.3   1477  UDP1477    -0.3320
     15  O3'        2.1260   30.6410   24.4280 O.3   1477  UDP1477    -0.2175
     16  C5'        5.3870   30.2720   22.8230 C.3   1477  UDP1477     0.1813
     17  O5'        5.9390   29.6530   23.9770 O.3   1477  UDP1477    -0.3111
     18  PA         6.5630   28.1770   23.9320 P.3   1477  UDP1477     0.2231
     19  O1A        6.8630   27.7490   25.3000 O.3   1477  UDP1477    -0.4370
     20  O2A        5.7250   27.2330   23.1460 O.2   1477  UDP1477    -0.5169
     21  O3A        7.9240   28.3530   23.1050 O.3   1477  UDP1477    -0.2261
     22  PB         9.0290   29.5410   23.0700 P.3   1477  UDP1477     0.5373
     23  O1B        9.4000   29.9070   24.4670 O.3   1477  UDP1477    -0.1143
     24  O2B        8.4800   30.6920   22.3490 O.2   1477  UDP1477    -0.2221
     25  O3B       10.1820   28.8830   22.3720 O.3   1477  UDP1477    -0.1143
@<TRIPOS>BOND
     1     8     4    2
     2     4     5    1
     3     4     3    2
     4     5     6    2
     5     3     2    2
     6     6     1    1
     7     2     7    2
     8     2     1   am
     9     1     9    1
    10     9    10    1
    11     9    14    1
    12    10    11    1
    13    10    12    1
    14    14    13    1
    15    24    22    2
    16    25    22    1
    17    16    13    1
    18    16    17    1
    19    22    21    1
    20    22    23    1
    21    21    18    1
    22    20    18    2
    23    13    12    1
    24    12    15    1
    25    18    17    1
    26    18    19    1
