@<TRIPOS>MOLECULE
2vgb_FBP_A_1.pdb
 20 20 0 0 0
SMALL
GASTEIGER

@<TRIPOS>ATOM
      1  P1        29.5900  -29.4370   34.8500 P.3   580  FBP580      0.5328
      2  O1P       28.9230  -30.7050   35.3280 O.3   580  FBP580     -0.1145
      3  O2P       29.9000  -28.6250   36.0800 O.3   580  FBP580     -0.1145
      4  O3P       30.8120  -29.7010   33.9940 O.2   580  FBP580     -0.2224
      5  O1        28.6020  -28.6260   33.8860 O.3   580  FBP580     -0.2648
      6  C1        27.1980  -28.6640   34.0550 C.3   580  FBP580      0.2152
      7  C2        26.5810  -27.7720   32.9910 C.3   580  FBP580      0.2780
      8  O2        25.1910  -27.5630   33.3400 O.3   580  FBP580     -0.1897
      9  C3        26.7460  -28.3250   31.5920 C.3   580  FBP580      0.2408
     10  O3        25.6720  -29.1290   31.2070 O.3   580  FBP580     -0.2149
     11  C4        26.8510  -27.0890   30.7420 C.3   580  FBP580      0.2167
     12  O4        27.5590  -27.4010   29.5810 O.3   580  FBP580     -0.2175
     13  C5        27.6410  -26.1540   31.6350 C.3   580  FBP580      0.1808
     14  O5        27.2480  -26.5280   32.9410 O.3   580  FBP580     -0.3255
     15  C6        27.4100  -24.6490   31.4280 C.3   580  FBP580      0.1859
     16  O6        28.3070  -24.1030   30.4730 O.3   580  FBP580     -0.2675
     17  P2        29.0020  -22.6620   30.5940 P.3   580  FBP580      0.5327
     18  O4P       30.0570  -22.6710   31.6440 O.3   580  FBP580     -0.1145
     19  O5P       29.6570  -22.3480   29.2930 O.2   580  FBP580     -0.2224
     20  O6P       28.0110  -21.6130   30.9630 O.3   580  FBP580     -0.1145
@<TRIPOS>BOND
     1    19    17    2
     2    12    11    1
     3    16    17    1
     4    16    15    1
     5    17    20    1
     6    17    18    1
     7    11     9    1
     8    11    13    1
     9    10     9    1
    10    15    13    1
    11     9     7    1
    12    13    14    1
    13    14     7    1
    14     7     8    1
    15     7     6    1
    16     5     6    1
    17     5     1    1
    18     4     1    2
    19     1     2    1
    20     1     3    1
