@<TRIPOS>MOLECULE
2vgc_V35_C_1.pdb
 15 15 0 0 0
SMALL
GASTEIGER

@<TRIPOS>ATOM
      1  C1        27.4960    2.9610   39.9210 C.ar  358  V35358      0.0000
      2  C2        27.9050    2.3540   41.1090 C.ar  358  V35358      0.0000
      3  C3        27.6380    2.9430   42.3410 C.ar  358  V35358      0.0000
      4  C4        26.9580    4.1490   42.3770 C.ar  358  V35358      0.0000
      5  C5        26.5560    4.7720   41.2110 C.ar  358  V35358      0.0000
      6  C6        26.8250    4.1790   39.9980 C.ar  358  V35358      0.0000
      7  C7        27.7010    2.2850   38.5910 C.3   358  V35358      0.0000
      8  C8        29.0930    2.4580   37.9830 C.3   358  V35358      0.0000
      9  C9        32.3350    0.4890   38.1780 C.3   358  V35358      0.0000
     10  C         31.3960    1.6830   38.2660 C.2   358  V35358      0.0000
     11  N         30.0900    1.4540   38.3230 N.am  358  V35358      0.0000
     12  O         31.8630    2.8300   38.3330 O.2   358  V35358      0.0000
     13  O1B       28.8750    1.0330   35.9220 O.3   358  V35358      0.0000
     14  B         28.8960    2.4400   36.3550 B     358  V35358      0.0000
     15 CL4        26.5290    4.9630   43.8510 Cl    358  V35358      0.0000
@<TRIPOS>BOND
     1    13    14    1
     2    14     8    1
     3     8    11    1
     4     8     7    1
     5     9    10    1
     6    10    11   am
     7    10    12    2
     8     7     1    1
     9     1     6   ar
    10     1     2   ar
    11     6     5   ar
    12     2     3   ar
    13     5     4   ar
    14     3     4   ar
    15     4    15    1
