@<TRIPOS>MOLECULE
2vgd_XYP_A_2.pdb
 10 10 0 0 0
SMALL
GASTEIGER

@<TRIPOS>ATOM
      1  O4A        7.8130  -36.1950   -4.5410 O.3   1198  XYP1198    -0.1869
      2  C1B        7.1210  -35.1090   -3.9630 C.3   1198  XYP1198     0.3024
      3  C2B        7.6110  -33.7930   -4.5280 C.3   1198  XYP1198     0.2434
      4  C3B        6.8750  -32.6790   -3.7850 C.3   1198  XYP1198     0.2199
      5  C4B        5.3560  -32.8820   -3.8960 C.3   1198  XYP1198     0.2143
      6  C5B        4.9470  -34.3280   -3.5870 C.3   1198  XYP1198     0.1804
      7  O2B        9.0040  -33.6210   -4.3520 O.3   1198  XYP1198    -0.2148
      8  O3B        7.3010  -31.4060   -4.2450 O.3   1198  XYP1198    -0.2174
      9  O4B        4.7230  -32.0630   -2.9410 O.3   1198  XYP1198    -0.2176
     10  O5B        5.7930  -35.2690   -4.2250 O.3   1198  XYP1198    -0.3237
@<TRIPOS>BOND
     1     1     2    1
     2     3     7    1
     3     3     2    1
     4     3     4    1
     5     8     4    1
     6    10     2    1
     7    10     6    1
     8     5     4    1
     9     5     6    1
    10     5     9    1
