@<TRIPOS>MOLECULE
2vgd_FX3_A_1.pdb
 22 23 0 0 0
SMALL
GASTEIGER

@<TRIPOS>ATOM
      1  O2        -5.3620  -27.4700    1.0000 O.2   1200  FX31200    -0.2449
      2  C9        -4.1820  -27.2990    1.2660 C.2   1200  FX31200     0.3415
      3  C8        -3.7510  -26.1440    2.0920 C.2   1200  FX31200     0.0819
      4  C7        -2.4470  -25.8650    2.1830 C.2   1200  FX31200     0.0068
      5  C1        -1.8910  -24.7310    2.9520 C.ar  1200  FX31200     0.0034
      6  C6        -0.7170  -24.1380    2.4830 C.ar  1200  FX31200     0.0035
      7  C5        -0.1540  -23.0660    3.1730 C.ar  1200  FX31200     0.0452
      8  C4        -0.7700  -22.5850    4.3330 C.ar  1200  FX31200     0.2293
      9  O4        -0.2000  -21.5310    4.9900 O.3   1200  FX31200    -0.2833
     10  C3        -1.9500  -23.1800    4.8080 C.ar  1200  FX31200     0.1774
     11  O3        -2.5640  -22.7150    5.9560 O.3   1200  FX31200    -0.4682
     12  C10       -2.6810  -23.5360    7.1270 C.3   1200  FX31200     0.2526
     13  C2        -2.5120  -24.2570    4.1090 C.ar  1200  FX31200     0.0402
     14  O5'       -3.2050  -28.2460    0.7200 O.3   1200  FX31200    -0.4427
     15  C5'       -2.2360  -28.9010    1.5510 C.3   1200  FX31200     0.2407
     16  C4'       -1.3090  -29.7870    0.7290 C.3   1200  FX31200     0.1917
     17  O4'       -0.6470  -28.9930   -0.2600 O.3   1200  FX31200    -0.3469
     18  C3'       -2.0540  -30.9040    0.0060 C.3   1200  FX31200     0.2152
     19  O3'       -1.4840  -32.1640    0.3720 O.3   1200  FX31200    -0.2176
     20  C2'       -1.8590  -30.6060   -1.4730 C.3   1200  FX31200     0.2140
     21  O2'       -1.5580  -31.7760   -2.2390 O.3   1200  FX31200    -0.2176
     22  C1'       -0.6890  -29.6380   -1.5350 C.3   1200  FX31200     0.1778
@<TRIPOS>BOND
     1    21    20    1
     2    22    20    1
     3    22    17    1
     4    20    18    1
     5    17    16    1
     6    18    19    1
     7    18    16    1
     8    14     2    1
     9    14    15    1
    10    16    15    1
    11     1     2    2
    12     2     3    1
    13     3     4    2
    14     4     5    1
    15     6     5   ar
    16     6     7   ar
    17     5    13   ar
    18     7     8   ar
    19    13    10   ar
    20     8    10   ar
    21     8     9    1
    22    10    11    1
    23    11    12    1
