@<TRIPOS>MOLECULE
2vgf_FBP_A_1.pdb
 20 20 0 0 0
SMALL
GASTEIGER

@<TRIPOS>ATOM
      1  P1        29.6900  -29.3250   35.1020 P.3   580  FBP580      0.5328
      2  O1P       29.1440  -30.6740   35.4860 O.3   580  FBP580     -0.1145
      3  O2P       29.9120  -28.4620   36.3130 O.3   580  FBP580     -0.1145
      4  O3P       30.9870  -29.4020   34.3630 O.2   580  FBP580     -0.2224
      5  O1        28.6690  -28.6430   34.0920 O.3   580  FBP580     -0.2648
      6  C1        27.2850  -28.5460   34.3530 C.3   580  FBP580      0.2152
      7  C2        26.6970  -27.5410   33.3660 C.3   580  FBP580      0.2780
      8  O2        25.3150  -27.3070   33.6870 O.3   580  FBP580     -0.1897
      9  C3        26.8150  -28.0070   31.9220 C.3   580  FBP580      0.2408
     10  O3        25.6670  -28.7010   31.5010 O.3   580  FBP580     -0.2149
     11  C4        27.0310  -26.7190   31.1620 C.3   580  FBP580      0.2167
     12  O4        27.7480  -26.9590   29.9690 O.3   580  FBP580     -0.2175
     13  C5        27.8040  -25.8740   32.1760 C.3   580  FBP580      0.1808
     14  O5        27.3840  -26.3080   33.4560 O.3   580  FBP580     -0.3255
     15  C6        27.6000  -24.3670   32.0480 C.3   580  FBP580      0.1859
     16  O6        28.5540  -23.9020   31.1330 O.3   580  FBP580     -0.2675
     17  P2        29.0540  -22.4000   31.0910 P.3   580  FBP580      0.5327
     18  O4P       30.2740  -22.2500   31.9490 O.3   580  FBP580     -0.1145
     19  O5P       29.4390  -22.0070   29.6890 O.2   580  FBP580     -0.2224
     20  O6P       27.9310  -21.5790   31.6380 O.3   580  FBP580     -0.1145
@<TRIPOS>BOND
     1    19    17    2
     2    12    11    1
     3    17    16    1
     4    17    20    1
     5    17    18    1
     6    16    15    1
     7    11     9    1
     8    11    13    1
     9    10     9    1
    10     9     7    1
    11    15    13    1
    12    13    14    1
    13     7    14    1
    14     7     8    1
    15     7     6    1
    16     5     6    1
    17     5     1    1
    18     4     1    2
    19     1     2    1
    20     1     3    1
