@<TRIPOS>MOLECULE
2vgg_FBP_A_1.pdb
 20 20 0 0 0
SMALL
GASTEIGER

@<TRIPOS>ATOM
      1  P1        30.8800  -29.2390   34.6350 P.3   580  FBP580      0.5328
      2  O1P       30.1740  -30.5830   34.8700 O.3   580  FBP580     -0.1145
      3  O2P       31.1040  -28.5450   35.9780 O.3   580  FBP580     -0.1145
      4  O3P       32.2150  -29.4710   33.9320 O.2   580  FBP580     -0.2224
      5  O1        29.9660  -28.3030   33.6660 O.3   580  FBP580     -0.2648
      6  C1        28.5610  -28.4260   33.7320 C.3   580  FBP580      0.2152
      7  C2        27.8830  -27.5300   32.7030 C.3   580  FBP580      0.2780
      8  O2        26.4540  -27.5460   33.0090 O.3   580  FBP580     -0.1897
      9  C3        28.1150  -28.0140   31.2720 C.3   580  FBP580      0.2408
     10  O3        27.1580  -28.9650   30.8460 O.3   580  FBP580     -0.2149
     11  C4        28.0670  -26.7110   30.4740 C.3   580  FBP580      0.2167
     12  O4        28.7560  -26.8820   29.2450 O.3   580  FBP580     -0.2175
     13  C5        28.7590  -25.7320   31.4390 C.3   580  FBP580      0.1808
     14  O5        28.3880  -26.1840   32.7480 O.3   580  FBP580     -0.3255
     15  C6        28.4850  -24.2300   31.2390 C.3   580  FBP580      0.1859
     16  O6        29.4000  -23.7150   30.2760 O.3   580  FBP580     -0.2675
     17  P2        30.1650  -22.2850   30.3550 P.3   580  FBP580      0.5327
     18  O4P       31.3300  -22.3720   31.3120 O.3   580  FBP580     -0.1145
     19  O5P       30.7470  -21.9280   29.0060 O.2   580  FBP580     -0.2224
     20  O6P       29.1880  -21.2380   30.8470 O.3   580  FBP580     -0.1145
@<TRIPOS>BOND
     1    19    17    2
     2    12    11    1
     3    16    17    1
     4    16    15    1
     5    17    20    1
     6    17    18    1
     7    11     9    1
     8    11    13    1
     9    10     9    1
    10    15    13    1
    11     9     7    1
    12    13    14    1
    13     7    14    1
    14     7     8    1
    15     7     6    1
    16     5     6    1
    17     5     1    1
    18     4     1    2
    19     1     2    1
    20     1     3    1
