@<TRIPOS>MOLECULE
2vgi_FBP_A_1.pdb
 20 20 0 0 0
SMALL
GASTEIGER

@<TRIPOS>ATOM
      1  P1        30.9650  -29.3510   33.1680 P.3   1574  FBP1574     0.5328
      2  O1P       30.3920  -30.7340   33.5390 O.3   1574  FBP1574    -0.1145
      3  O2P       31.1630  -28.6450   34.5320 O.3   1574  FBP1574    -0.1145
      4  O3P       32.2630  -29.3020   32.3280 O.2   1574  FBP1574    -0.2224
      5  O1        29.8900  -28.5430   32.2960 O.3   1574  FBP1574    -0.2648
      6  C1        28.5160  -28.5660   32.6750 C.3   1574  FBP1574     0.2152
      7  C2        27.8190  -27.5740   31.7510 C.3   1574  FBP1574     0.2780
      8  O2        26.4190  -27.5230   32.1190 O.3   1574  FBP1574    -0.1897
      9  C3        28.0020  -27.9600   30.2910 C.3   1574  FBP1574     0.2408
     10  O3        26.9410  -28.7580   29.8150 O.3   1574  FBP1574    -0.2149
     11  C4        28.1360  -26.6500   29.5560 C.3   1574  FBP1574     0.2167
     12  O4        28.9610  -26.8410   28.4290 O.3   1574  FBP1574    -0.2175
     13  C5        28.8740  -25.8250   30.5690 C.3   1574  FBP1574     0.1808
     14  O5        28.4290  -26.2850   31.8360 O.3   1574  FBP1574    -0.3255
     15  C6        28.6870  -24.3130   30.4250 C.3   1574  FBP1574     0.1859
     16  O6        29.5190  -23.7780   29.3920 O.3   1574  FBP1574    -0.2675
     17  P2        29.9020  -22.2130   29.5080 P.3   1574  FBP1574     0.5327
     18  O4P       31.1720  -21.9870   30.3370 O.3   1574  FBP1574    -0.1145
     19  O5P       30.2280  -21.7830   28.1030 O.2   1574  FBP1574    -0.2224
     20  O6P       28.7880  -21.3980   30.1840 O.3   1574  FBP1574    -0.1145
@<TRIPOS>BOND
     1    19    17    2
     2    12    11    1
     3    16    17    1
     4    16    15    1
     5    17    20    1
     6    17    18    1
     7    11     9    1
     8    11    13    1
     9    10     9    1
    10     9     7    1
    11    15    13    1
    12    13    14    1
    13     7    14    1
    14     7     8    1
    15     7     6    1
    16     5     6    1
    17     5     1    1
    18     4     1    2
    19     1     2    1
    20     1     3    1
