@<TRIPOS>MOLECULE
2vgj_REC_A_1.pdb
 25 25 0 0 0
SMALL
GASTEIGER

@<TRIPOS>ATOM
      1  O14       -4.0900   -3.0390   41.2840 O.co2 500  REC500     -0.2389
      2  C13       -2.9790   -3.0610   40.7230 C.2   500  REC500      0.4044
      3  O15       -2.3610   -4.1550   40.5740 O.co2 500  REC500     -0.2389
      4  C4        -2.4060   -1.8030   40.2270 C.2   500  REC500      0.1534
      5  N5        -1.4940   -1.9450   39.3450 N.2   500  REC500     -0.2528
      6  C3        -2.8440   -0.4560   40.6580 C.2   500  REC500      0.0125
      7  C16       -3.5920   -0.2510   41.7700 C.2   500  REC500     -0.0020
      8  C2        -2.4350    0.7480   39.8060 C.3   500  REC500      0.0873
      9  S1        -0.7490    0.6370   39.2860 S.3   500  REC500     -0.1100
     10  C6        -0.4390   -1.0380   38.8480 C.3   500  REC500      0.1784
     11  C7        -0.3640   -1.2390   37.3190 C.3   500  REC500      0.1920
     12  C8        -0.4920   -2.7090   36.9880 C.2   500  REC500      0.2316
     13  O9        -1.4200   -3.1770   36.3630 O.2   500  REC500     -0.2863
     14  N10       -1.4990   -0.6040   36.6530 N.am  500  REC500     -0.1962
     15  C11       -1.4820    0.4580   35.8310 C.2   500  REC500      0.2418
     16  O12       -0.5010    1.1400   35.5270 O.2   500  REC500     -0.2733
     17  CA1       -2.8410    0.8280   35.3020 C.3   500  REC500      0.0868
     18  CB1       -2.7700    1.2700   33.8520 C.3   500  REC500      0.0097
     19  CG1       -3.6590    2.4760   33.5600 C.3   500  REC500      0.0026
     20  CD1       -3.3460    2.9250   32.1260 C.3   500  REC500      0.0306
     21  CE1       -4.4470    3.6720   31.3370 C.3   500  REC500      0.1943
     22  NZ1       -3.8530    4.2830   30.1370 N.3   500  REC500     -0.1208
     23  CZ1       -5.5440    2.7750   30.8700 C.2   500  REC500      0.3819
     24  OH1       -5.4600    2.3220   29.7380 O.co2 500  REC500     -0.2441
     25  O         -6.5260    2.5230   31.5700 O.co2 500  REC500     -0.2441
@<TRIPOS>BOND
     1    24    23   ar
     2    22    21    1
     3    23    21    1
     4    23    25   ar
     5    21    20    1
     6    20    19    1
     7    19    18    1
     8    18    17    1
     9    17    15    1
    10    16    15    2
    11    15    14   am
    12    13    12    2
    13    14    11    1
    14    12    11    1
    15    11    10    1
    16    10     9    1
    17    10     5    1
    18     9     8    1
    19     5     4    2
    20     8     6    1
    21     4     6    1
    22     4     2    1
    23     3     2   ar
    24     6     7    2
    25     2     1   ar
