@<TRIPOS>MOLECULE
2vgk_REZ_A_1.pdb
 17 16 0 0 0
SMALL
GASTEIGER

@<TRIPOS>ATOM
      1  CA1       -3.6120    1.7480   35.6520 C.3   500  REZ500      0.0868
      2  CB1       -3.3590    1.8090   34.1520 C.3   500  REZ500      0.0097
      3  CG1       -4.3810    2.7230   33.4910 C.3   500  REZ500      0.0026
      4  CD1       -4.0380    2.9320   32.0200 C.3   500  REZ500      0.0306
      5  CE1       -5.1440    3.6700   31.2640 C.3   500  REZ500      0.1943
      6  NZ1       -4.5730    4.2410   30.0540 N.3   500  REZ500     -0.1208
      7  CZ1       -6.2550    2.7320   30.8920 C.2   500  REZ500      0.3819
      8  OH1       -6.1530    2.0880   29.8260 O.co2 500  REZ500     -0.2441
      9  OH2       -7.2340    2.6300   31.6580 O.co2 500  REZ500     -0.2441
     10  C1        -2.4740    1.1310   36.4430 C.2   500  REZ500      0.2418
     11  O1        -1.7390    0.2730   35.9620 O.2   500  REZ500     -0.2733
     12  N         -2.3950    1.6050   37.6930 N.am  500  REZ500     -0.1956
     13  CA        -1.4350    1.2460   38.7390 C.3   500  REZ500      0.1978
     14  CB        -1.4170   -0.2570   39.0090 C.3   500  REZ500      0.0356
     15  C         -1.7610    1.9850   40.0160 C.2   500  REZ500      0.3842
     16  O         -2.9690    2.1660   40.3120 O.co2 500  REZ500     -0.2437
     17  OXT       -0.8220    2.4050   40.7370 O.co2 500  REZ500     -0.2437
@<TRIPOS>BOND
     1     8     7   ar
     2     6     5    1
     3     7     5    1
     4     7     9   ar
     5     5     4    1
     6     4     3    1
     7     3     2    1
     8     2     1    1
     9     1    10    1
    10    11    10    2
    11    10    12   am
    12    12    13    1
    13    13    14    1
    14    13    15    1
    15    15    16   ar
    16    15    17   ar
