@<TRIPOS>MOLECULE
2vgl_IHP_A_1.pdb
 36 36 0 0 0
SMALL
GASTEIGER

@<TRIPOS>ATOM
      1  C1        94.7520   51.6880  -23.9170 C.3   1609  IHP1609     0.1863
      2  C2        96.1750   52.1860  -23.8970 C.3   1609  IHP1609     0.1863
      3  C3        96.9430   51.5670  -22.7300 C.3   1609  IHP1609     0.1863
      4  C4        96.3020   51.8720  -21.3740 C.3   1609  IHP1609     0.1863
      5  C5        94.8750   51.3840  -21.4790 C.3   1609  IHP1609     0.1863
      6  C6        94.1160   52.0710  -22.6270 C.3   1609  IHP1609     0.1863
      7  O11       94.0330   52.2510  -25.0100 O.3   1609  IHP1609    -0.2675
      8  P1        93.6890   51.2590  -26.2360 P.3   1609  IHP1609     0.5327
      9  O21       94.7150   51.7010  -27.4940 O.2   1609  IHP1609    -0.2224
     10  O31       92.2270   51.4600  -26.4610 O.3   1609  IHP1609    -0.1145
     11  O41       94.0850   49.6180  -26.0250 O.3   1609  IHP1609    -0.1145
     12  O12       96.6970   51.8390  -25.1570 O.3   1609  IHP1609    -0.2675
     13  P2        97.2250   53.0300  -26.1030 P.3   1609  IHP1609     0.5327
     14  O22       96.4910   54.4670  -25.5860 O.3   1609  IHP1609    -0.1145
     15  O32       98.9370   53.0090  -26.0080 O.3   1609  IHP1609    -0.1145
     16  O42       96.8710   52.7150  -27.5190 O.2   1609  IHP1609    -0.2224
     17  O13       98.2580   52.0630  -22.7040 O.3   1609  IHP1609    -0.2675
     18  P3        99.3840   51.1270  -23.3170 P.3   1609  IHP1609     0.5327
     19  O23       98.7690   50.3390  -24.4180 O.2   1609  IHP1609    -0.2224
     20  O33      100.5490   52.2180  -23.8740 O.3   1609  IHP1609    -0.1145
     21  O43      100.0290   50.1170  -22.1020 O.3   1609  IHP1609    -0.1145
     22  O14       96.9530   51.1070  -20.3730 O.3   1609  IHP1609    -0.2675
     23  P4        97.9120   51.6720  -19.2210 P.3   1609  IHP1609     0.5327
     24  O24       97.9070   50.4660  -18.0360 O.3   1609  IHP1609    -0.1145
     25  O34       97.3860   53.1070  -18.5650 O.3   1609  IHP1609    -0.1145
     26  O44       99.2700   51.7860  -19.7360 O.2   1609  IHP1609    -0.2224
     27  O15       94.1590   51.4740  -20.2470 O.3   1609  IHP1609    -0.2675
     28  P5        93.1220   50.2710  -20.0770 P.3   1609  IHP1609     0.5327
     29  O25       93.4020   49.1600  -21.3120 O.2   1609  IHP1609    -0.2224
     30  O35       91.5000   50.7530  -20.1890 O.3   1609  IHP1609    -0.1145
     31  O45       93.4400   49.6300  -18.7780 O.3   1609  IHP1609    -0.1145
     32  O16       94.2240   53.4750  -22.6400 O.3   1609  IHP1609    -0.2675
     33  P6        92.9520   54.2880  -22.1240 P.3   1609  IHP1609     0.5327
     34  O26       93.3630   55.9600  -22.0710 O.3   1609  IHP1609    -0.1145
     35  O36       91.6510   53.9710  -23.1840 O.2   1609  IHP1609    -0.2224
     36  O46       92.5830   53.7350  -20.7760 O.3   1609  IHP1609    -0.1145
@<TRIPOS>BOND
     1    16    13    2
     2     9     8    2
     3    10     8    1
     4     8    11    1
     5     8     7    1
     6    13    15    1
     7    13    14    1
     8    13    12    1
     9    12     2    1
    10     7     1    1
    11    19    18    2
    12     1     2    1
    13     1     6    1
    14     2     3    1
    15    20    18    1
    16    18    17    1
    17    18    21    1
    18    35    33    2
    19     3    17    1
    20     3     4    1
    21    32     6    1
    22    32    33    1
    23     6     5    1
    24    33    34    1
    25    33    36    1
    26     5     4    1
    27     5    27    1
    28     4    22    1
    29    29    28    2
    30    22    23    1
    31    27    28    1
    32    30    28    1
    33    28    31    1
    34    26    23    2
    35    23    25    1
    36    23    24    1
