@<TRIPOS>MOLECULE
2vgo_AD5_A_1.pdb
 29 33 0 0 0
SMALL
GASTEIGER

@<TRIPOS>ATOM
      1  CAK        7.4330    0.4430    2.4390 C.3   1357  AD51357     0.0217
      2  CAG        6.2010    1.2800    2.0640 C.3   1357  AD51357     0.0018
      3  CAF        5.0300    1.0330    3.0310 C.3   1357  AD51357     0.0001
      4  CAH        5.5070    0.4120    4.3540 C.3   1357  AD51357     0.0018
      5  CAL        6.8000    1.0790    4.8350 C.3   1357  AD51357     0.0217
      6  CBB        7.9550    0.8340    3.8350 C.3   1357  AD51357     0.0951
      7  N6         8.7770    2.0490    3.7300 N.pl3 1357  AD51357    -0.2089
      8  C6         9.9290    2.1840    4.4000 C.2   1357  AD51357     0.2409
      9  N1        10.8870    1.2450    4.3620 N.2   1357  AD51357    -0.3071
     10  C5        10.0780    3.2980    5.1130 C.2   1357  AD51357     0.1988
     11  N7         9.2900    4.3510    5.3070 N.2   1357  AD51357    -0.2289
     12  C8         9.9270    5.1930    6.1150 C.3   1357  AD51357     0.2627
     13  N9        11.1070    4.6580    6.4190 N.2   1357  AD51357    -0.1807
     14  C4        11.2040    3.4870    5.8020 C.1   1357  AD51357     0.1202
     15  N3        12.1770    2.5600    5.7730 N.2   1357  AD51357    -0.2703
     16  C2        12.0290    1.4300    5.0480 C.1   1357  AD51357     0.2349
     17  N2        13.0270    0.5220    5.0650 N.pl3 1357  AD51357    -0.1248
     18  CAV       13.2180   -0.4310    4.1230 C.ar  1357  AD51357     0.0836
     19  CAB       14.5080   -0.9480    4.0140 C.ar  1357  AD51357     0.0186
     20  CAD       14.8090   -1.9400    3.0920 C.ar  1357  AD51357     0.0159
     21  CAA       12.2140   -0.9380    3.2900 C.ar  1357  AD51357     0.0186
     22  CAC       12.5110   -1.9290    2.3510 C.ar  1357  AD51357     0.0159
     23  CAW       13.8110   -2.4370    2.2540 C.ar  1357  AD51357     0.0481
     24  NBC       14.1310   -3.3890    1.3550 N.pl3 1357  AD51357    -0.3028
     25  CAM       13.4760   -4.7300    1.3930 C.3   1357  AD51357     0.1231
     26  CAI       14.4290   -5.8380    0.9340 C.3   1357  AD51357     0.1636
     27  OAU       15.1330   -5.4230   -0.2650 O.3   1357  AD51357    -0.3501
     28  CAJ       16.0110   -4.3030   -0.0030 C.3   1357  AD51357     0.1636
     29  CAN       15.1600   -3.0750    0.3180 C.3   1357  AD51357     0.1231
@<TRIPOS>BOND
     1    27    28    1
     2    27    26    1
     3    28    29    1
     4    29    24    1
     5    26    25    1
     6    24    25    1
     7    24    23    1
     8     2     1    1
     9     2     3    1
    10    23    22   ar
    11    23    20   ar
    12    22    21   ar
    13     1     6    1
    14     3     4    1
    15    20    19   ar
    16    21    18   ar
    17     7     6    1
    18     7     8    1
    19     6     5    1
    20    19    18   ar
    21    18    17    1
    22     4     5    1
    23     9     8    2
    24     9    16    2
    25     8    10    1
    26    16    17    1
    27    16    15    2
    28    10    11    2
    29    10    14    1
    30    11    12    1
    31    15    14    2
    32    14    13    2
    33    12    13    1
