@<TRIPOS>MOLECULE
2vgp_AD6_A_1.pdb
 17 18 0 0 0
SMALL
GASTEIGER

@<TRIPOS>ATOM
      1  NAI       12.3400    2.8260    6.2340 N.ar  1357  AD61357    -0.2205
      2  CAH       11.3700    3.7560    6.3430 C.ar  1357  AD61357     0.1141
      3  CAN       10.2810    3.4710    5.6180 C.ar  1357  AD61357     0.0856
      4  SAL       10.4890    2.0760    4.8150 S.2   1357  AD61357    -0.0429
      5  CAQ       12.0480    1.8060    5.4180 C.ar  1357  AD61357     0.1839
      6  NAK       12.9140    0.7800    5.2240 N.pl3 1357  AD61357    -0.1886
      7  CAO       12.8580   -0.1470    4.2400 C.ar  1357  AD61357     0.0726
      8  CAE       11.6990   -0.5010    3.5400 C.ar  1357  AD61357     0.0167
      9  CAG       11.7400   -1.4780    2.5370 C.ar  1357  AD61357     0.0059
     10  CAD       14.0540   -0.7990    3.9310 C.ar  1357  AD61357     0.0167
     11  CAF       14.0960   -1.7810    2.9350 C.ar  1357  AD61357     0.0059
     12  CAP       12.9410   -2.1260    2.2250 C.ar  1357  AD61357     0.0551
     13  CAM       12.9890   -3.1020    1.2160 C.2   1357  AD61357     0.2648
     14  OAB       13.7630   -4.0620    1.2910 O.2   1357  AD61357    -0.2684
     15  NAJ       12.1480   -2.8920    0.1780 N.am  1357  AD61357    -0.1998
     16  CAA       12.1300   -3.8630   -0.9340 C.3   1357  AD61357     0.1388
     17 BR          8.7360    4.5630    5.5650 Br    1357  AD61357    -0.0402
@<TRIPOS>BOND
     1    16    15    1
     2    15    13   am
     3    13    14    2
     4    13    12    1
     5    12     9   ar
     6    12    11   ar
     7     9     8   ar
     8    11    10   ar
     9     8     7   ar
    10    10     7   ar
    11     7     6    1
    12     4     5   ar
    13     4     3   ar
    14     6     5    1
    15     5     1   ar
    16    17     3    1
    17     3     2   ar
    18     1     2   ar
