@<TRIPOS>MOLECULE
2vgq_MTT_A_1.pdb
 45 48 0 0 0
SMALL
GASTEIGER

@<TRIPOS>ATOM
      1  O14      -14.4230   24.9410   11.4230 O.3   1463  MTT1463    -0.2176
      2  C14      -15.6210   24.4210   10.8670 C.3   1463  MTT1463     0.2144
      3  C13      -15.3210   23.0210   10.3790 C.3   1463  MTT1463     0.2198
      4  O13      -14.3100   23.1170    9.3640 O.3   1463  MTT1463    -0.2174
      5  C12      -16.6110   22.3990    9.8450 C.3   1463  MTT1463     0.2406
      6  O12      -16.3450   21.0980    9.3030 O.3   1463  MTT1463    -0.2149
      7  C11      -17.7170   22.3520   10.9250 C.3   1463  MTT1463     0.2695
      8  C15      -16.7120   24.4220   11.9340 C.3   1463  MTT1463     0.1835
      9  O15      -17.8700   23.6330   11.5760 O.3   1463  MTT1463    -0.3256
     10  C16      -17.1800   25.8540   12.1530 C.3   1463  MTT1463     0.2142
     11  O16      -17.4600   25.9160   13.5510 O.3   1463  MTT1463    -0.2176
     12  O24      -17.5400   21.2510   11.8590 O.3   1463  MTT1463    -0.3257
     13  C24      -18.6570   20.8890   12.6950 C.3   1463  MTT1463     0.1804
     14  C23      -19.4490   19.7250   12.0600 C.3   1463  MTT1463     0.2167
     15  O23      -20.1560   20.1790   10.9000 O.3   1463  MTT1463    -0.2175
     16  C22      -20.4170   18.9740   13.0100 C.3   1463  MTT1463     0.2404
     17  O22      -20.8910   17.7490   12.3780 O.3   1463  MTT1463    -0.2149
     18  C21      -19.6740   18.5840   14.2710 C.3   1463  MTT1463     0.2695
     19  C25      -18.0790   20.4410   14.0440 C.3   1463  MTT1463     0.1803
     20  O25      -19.0570   19.7510   14.8380 O.3   1463  MTT1463    -0.3257
     21  C26      -17.6850   21.6100   14.9130 C.3   1463  MTT1463     0.2141
     22  O26      -16.6680   21.1470   15.8060 O.3   1463  MTT1463    -0.2176
     23  O34      -18.6040   17.6820   13.9430 O.3   1463  MTT1463    -0.3257
     24  C34      -18.5110   16.5180   14.7750 C.3   1463  MTT1463     0.1804
     25  C33      -18.7710   15.2880   13.8950 C.3   1463  MTT1463     0.2167
     26  O33      -20.1200   15.3400   13.3890 O.3   1463  MTT1463    -0.2175
     27  C32      -18.5740   14.0100   14.7440 C.3   1463  MTT1463     0.2404
     28  O32      -18.8070   12.8180   13.9780 O.3   1463  MTT1463    -0.2149
     29  C31      -17.1450   13.9960   15.2770 C.3   1463  MTT1463     0.2695
     30  C35      -17.1220   16.4400   15.4370 C.3   1463  MTT1463     0.1803
     31  O35      -16.9480   15.1560   16.0970 O.3   1463  MTT1463    -0.3257
     32  C36      -16.8840   17.5810   16.4420 C.3   1463  MTT1463     0.2141
     33  O36      -15.4560   17.7440   16.6280 O.3   1463  MTT1463    -0.2176
     34  O44      -16.2840   14.0090   14.1320 O.3   1463  MTT1463    -0.3257
     35  C44      -15.1270   13.2070   14.2440 C.3   1463  MTT1463     0.1804
     36  C43      -15.4110   11.9560   13.3810 C.3   1463  MTT1463     0.2168
     37  O43      -16.5080   11.1840   13.9220 O.3   1463  MTT1463    -0.2175
     38  C42      -14.1620   11.0790   13.2660 C.3   1463  MTT1463     0.2433
     39  O42      -14.4060   10.1110   12.2410 O.3   1463  MTT1463    -0.2148
     40  C41      -12.9600   11.9210   12.8450 C.3   1463  MTT1463     0.3023
     41  O41      -13.0830   12.2460   11.4690 O.3   1463  MTT1463    -0.1869
     42  C45      -13.9520   14.0150   13.6940 C.3   1463  MTT1463     0.1804
     43  O45      -12.8070   13.1500   13.5870 O.3   1463  MTT1463    -0.3237
     44  C46      -13.5810   15.2430   14.5610 C.3   1463  MTT1463     0.2141
     45  O46      -12.5650   15.9960   13.8870 O.3   1463  MTT1463    -0.2176
@<TRIPOS>BOND
     1     6     5    1
     2     4     3    1
     3     5     3    1
     4     5     7    1
     5     3     2    1
     6     2     1    1
     7     2     8    1
     8    15    14    1
     9     7     9    1
    10     7    12    1
    11    41    40    1
    12     9     8    1
    13    12    13    1
    14     8    10    1
    15    14    13    1
    16    14    16    1
    17    10    11    1
    18    39    38    1
    19    17    16    1
    20    13    19    1
    21    40    38    1
    22    40    43    1
    23    16    18    1
    24    38    36    1
    25    36    37    1
    26    36    35    1
    27    26    25    1
    28    43    42    1
    29    42    35    1
    30    42    44    1
    31    45    44    1
    32    25    27    1
    33    25    24    1
    34    23    18    1
    35    23    24    1
    36    28    27    1
    37    19    20    1
    38    19    21    1
    39    34    35    1
    40    34    29    1
    41    18    20    1
    42    27    29    1
    43    24    30    1
    44    21    22    1
    45    29    31    1
    46    30    31    1
    47    30    32    1
    48    32    33    1
