@<TRIPOS>MOLECULE
2vgr_BLA_A_1.pdb
 43 46 0 0 0
SMALL
GASTEIGER

@<TRIPOS>ATOM
      1  CHA      -15.7850   24.2080    1.0020 C.3   1234  BLA1234     0.1170
      2  NA       -17.0240   26.1780    1.8160 N.2   1234  BLA1234    -0.4104
      3  C1A      -16.0600   25.1860    1.9420 C.2   1234  BLA1234     0.1114
      4  C2A      -15.4340   25.3590    3.2060 C.2   1234  BLA1234     0.0024
      5  C3A      -16.0380   26.4660    3.8040 C.2   1234  BLA1234     0.0021
      6  C4A      -17.0300   26.9540    2.8900 C.2   1234  BLA1234     0.1114
      7  CMA      -15.7010   27.0530    5.1450 C.3   1234  BLA1234     0.0331
      8  CAA      -14.2480   24.5150    3.7920 C.3   1234  BLA1234     0.0402
      9  CBA      -14.6490   23.5060    4.8820 C.3   1234  BLA1234     0.1188
     10  CGA      -15.6020   22.4520    4.4310 C.2   1234  BLA1234     0.3652
     11  O1A      -15.4620   21.9670    3.2810 O.co2 1234  BLA1234    -0.2456
     12  O2A      -16.4600   22.1060    5.2650 O.co2 1234  BLA1234    -0.2456
     13  CHB      -17.9590   28.0970    3.1080 C.3   1234  BLA1234     0.1181
     14  NB       -18.9360   28.2310    0.8540 N.2   1234  BLA1234    -0.3372
     15  C1B      -18.8500   28.5880    2.2090 C.2   1234  BLA1234     0.1257
     16  C2B      -19.8840   29.6320    2.4480 C.2   1234  BLA1234     0.0168
     17  C3B      -20.5270   29.8120    1.2660 C.2   1234  BLA1234     0.0929
     18  C4B      -19.9380   28.9380    0.2620 C.1   1234  BLA1234     0.2041
     19  CMB      -20.1640   30.3040    3.7330 C.3   1234  BLA1234     0.0342
     20  OB       -20.2690   28.8500   -0.9340 O.2   1234  BLA1234    -0.2093
     21  CAB      -21.6310   30.7380    1.0140 C.2   1234  BLA1234     0.0124
     22  CBB      -22.2800   30.9080   -0.0740 C.2   1234  BLA1234     0.0008
     23  NC       -20.4940   25.0520   -0.3480 N.2   1234  BLA1234    -0.3371
     24  C1C      -21.6940   25.5930   -0.0090 C.1   1234  BLA1234     0.2003
     25  C2C      -22.3700   26.0760   -1.2640 C.2   1234  BLA1234     0.0749
     26  C3C      -21.5240   25.7780   -2.3020 C.2   1234  BLA1234     0.0347
     27  C4C      -20.3260   25.1460   -1.6840 C.2   1234  BLA1234     0.1293
     28  CMC      -23.7020   26.7300   -1.3140 C.3   1234  BLA1234     0.0448
     29  OC       -22.1140   25.6600    1.1300 O.2   1234  BLA1234    -0.2096
     30  CAC      -21.6390   26.0190   -3.7670 C.2   1234  BLA1234     0.0027
     31  CBC      -22.5240   26.6240   -4.4580 C.2   1234  BLA1234     0.0001
     32  CHD      -19.2660   24.6690   -2.3500 C.3   1234  BLA1234     0.1184
     33  ND       -17.6980   24.6350   -0.5120 N.2   1234  BLA1234    -0.4104
     34  C1D      -18.0770   24.2640   -1.7070 C.2   1234  BLA1234     0.1115
     35  C2D      -17.1600   23.2640   -2.2120 C.2   1234  BLA1234     0.0021
     36  C3D      -16.1640   23.1060   -1.2870 C.2   1234  BLA1234     0.0024
     37  C4D      -16.4700   23.9910   -0.1910 C.2   1234  BLA1234     0.1114
     38  CMD      -17.3000   22.6000   -3.5150 C.3   1234  BLA1234     0.0331
     39  CAD      -14.9680   22.1360   -1.4830 C.3   1234  BLA1234     0.0402
     40  CBD      -13.7200   22.4750   -0.6930 C.3   1234  BLA1234     0.1188
     41  CGD      -12.6750   21.4640   -1.0000 C.2   1234  BLA1234     0.3652
     42  O1D      -12.0520   21.6010   -2.0760 O.co2 1234  BLA1234    -0.2456
     43  O2D      -12.5140   20.5490   -0.1650 O.co2 1234  BLA1234    -0.2456
@<TRIPOS>BOND
     1    31    30    2
     2    30    26    1
     3    38    35    1
     4    32    34    1
     5    32    27    1
     6    26    27    1
     7    26    25    2
     8    35    34    1
     9    35    36    2
    10    42    41   ar
    11    34    33    2
    12    27    23    2
    13    39    36    1
    14    39    40    1
    15    28    25    1
    16    36    37    1
    17    25    24    1
    18    41    40    1
    19    41    43   ar
    20    20    18    2
    21    33    37    2
    22    23    24    2
    23    37     1    1
    24    22    21    2
    25    24    29    2
    26    18    14    2
    27    18    17    1
    28    14    15    2
    29     1     3    1
    30    21    17    1
    31    17    16    2
    32     2     3    2
    33     2     6    2
    34     3     4    1
    35    15    16    1
    36    15    13    1
    37    16    19    1
    38     6    13    1
    39     6     5    1
    40     4     8    1
    41     4     5    2
    42    11    10   ar
    43     8     9    1
    44     5     7    1
    45    10     9    1
    46    10    12   ar
