@<TRIPOS>MOLECULE
2vgs_PLP_A_1.pdb
 15 15 0 0 0
SMALL
GASTEIGER

@<TRIPOS>ATOM
      1  N1         9.4180    9.4370   22.6690 N.2   1407  PLP1407    -0.2458
      2  C2        10.0550   10.4730   21.9970 C.2   1407  PLP1407     0.0942
      3  C2A       11.3490   11.0310   22.5290 C.3   1407  PLP1407     0.0552
      4  C3         9.4890   10.9890   20.8280 C.2   1407  PLP1407     0.1899
      5  O3        10.0600   11.9100   20.2330 O.2   1407  PLP1407    -0.2898
      6  C4         8.2890   10.4620   20.3290 C.3   1407  PLP1407     0.0852
      7  C4A        7.6960   11.0210   19.0570 C.3   1407  PLP1407     0.0127
      8  C5         7.6640    9.4150   21.0220 C.2   1407  PLP1407     0.0118
      9  C6         8.2270    8.9160   22.1960 C.2   1407  PLP1407     0.0929
     10  C5A        6.3440    8.8470   20.5920 C.3   1407  PLP1407     0.1779
     11  O4P        6.1270    7.7880   19.6560 O.3   1407  PLP1407    -0.2656
     12  P          4.6470    7.5340   19.0780 P.3   1407  PLP1407     0.5329
     13  O1P        3.8930    6.9490   20.2000 O.3   1407  PLP1407    -0.1145
     14  O2P        4.1310    8.8810   18.6860 O.3   1407  PLP1407    -0.1145
     15  O3P        4.9510    6.6290   17.9470 O.2   1407  PLP1407    -0.2224
@<TRIPOS>BOND
     1    15    12    2
     2    14    12    1
     3     7     6    1
     4    12    11    1
     5    12    13    1
     6    11    10    1
     7     5     4    2
     8     6     4    1
     9     6     8    1
    10    10     8    1
    11     4     2    1
    12     8     9    2
    13     2     3    1
    14     2     1    2
    15     9     1    1
