@<TRIPOS>MOLECULE
2vgt_PLP_A_1.pdb
 15 15 0 0 0
SMALL
GASTEIGER

@<TRIPOS>ATOM
      1  N1         9.6650    9.3080   22.4130 N.ar  1406  PLP1406    -0.2452
      2  C2         9.9880   10.5950   22.0210 C.ar  1406  PLP1406     0.0978
      3  C2A       11.3280   11.1710   22.4060 C.3   1406  PLP1406     0.0555
      4  C3         9.0640   11.3260   21.2680 C.ar  1406  PLP1406     0.2049
      5  O3         9.3680   12.5900   20.8670 O.3   1406  PLP1406    -0.2857
      6  C4         7.8180   10.7700   20.9120 C.ar  1406  PLP1406     0.0182
      7  C4A        6.8130   11.5750   20.1110 C.3   1406  PLP1406     0.0342
      8  C5         7.5230    9.4670   21.3370 C.ar  1406  PLP1406     0.0261
      9  C6         8.4500    8.7440   22.0810 C.ar  1406  PLP1406     0.0965
     10  C5A        6.1340    8.8770   21.1930 C.3   1406  PLP1406     0.1815
     11  O4P        6.0810    8.1580   19.9810 O.3   1406  PLP1406    -0.2653
     12  P          4.6400    7.6540   19.3970 P.3   1406  PLP1406     0.5329
     13  O1P        3.8930    6.9780   20.5360 O.3   1406  PLP1406    -0.1145
     14  O2P        3.9400    8.9370   18.9890 O.3   1406  PLP1406    -0.1145
     15  O3P        4.9480    6.7240   18.2350 O.2   1406  PLP1406    -0.2224
@<TRIPOS>BOND
     1    15    12    2
     2    14    12    1
     3    12    11    1
     4    12    13    1
     5    11    10    1
     6     7     6    1
     7     5     4    1
     8     6     4   ar
     9     6     8   ar
    10    10     8    1
    11     4     2   ar
    12     8     9   ar
    13     2     3    1
    14     2     1   ar
    15     9     1   ar
