@<TRIPOS>MOLECULE
2vgu_PLP_A_1.pdb
 15 15 0 0 0
SMALL
GASTEIGER

@<TRIPOS>ATOM
      1  N1         9.5850    9.3070   22.4490 N.ar  1407  PLP1407    -0.2452
      2  C2         9.9460   10.5680   22.0110 C.ar  1407  PLP1407     0.0978
      3  C2A       11.2790   11.1440   22.4190 C.3   1407  PLP1407     0.0555
      4  C3         9.0660   11.2810   21.1940 C.ar  1407  PLP1407     0.2049
      5  O3         9.4050   12.5220   20.7330 O.3   1407  PLP1407    -0.2857
      6  C4         7.8230   10.7340   20.8160 C.ar  1407  PLP1407     0.0182
      7  C4A        6.9000   11.5770   19.9480 C.3   1407  PLP1407     0.0342
      8  C5         7.4830    9.4570   21.2950 C.ar  1407  PLP1407     0.0261
      9  C6         8.3700    8.7530   22.1060 C.ar  1407  PLP1407     0.0965
     10  C5A        6.0960    8.8870   21.1080 C.3   1407  PLP1407     0.1815
     11  O4P        6.0550    8.1140   19.9220 O.3   1407  PLP1407    -0.2653
     12  P          4.6070    7.6390   19.3620 P.3   1407  PLP1407     0.5329
     13  O1P        3.8540    6.9490   20.4780 O.3   1407  PLP1407    -0.1145
     14  O2P        3.9480    8.9460   18.9470 O.3   1407  PLP1407    -0.1145
     15  O3P        4.8780    6.6940   18.2090 O.2   1407  PLP1407    -0.2224
@<TRIPOS>BOND
     1    15    12    2
     2    14    12    1
     3    12    11    1
     4    12    13    1
     5    11    10    1
     6     7     6    1
     7     5     4    1
     8     6     4   ar
     9     6     8   ar
    10    10     8    1
    11     4     2   ar
    12     8     9   ar
    13     2     3    1
    14     2     1   ar
    15     9     1   ar
