@<TRIPOS>MOLECULE
2vgv_PLP_A_1.pdb
 15 15 0 0 0
SMALL
GASTEIGER

@<TRIPOS>ATOM
      1  N1         9.6460    9.1900   22.1950 N.ar  1407  PLP1407    -0.2452
      2  C2         9.9740   10.4920   21.8670 C.ar  1407  PLP1407     0.0978
      3  C2A       11.2910   11.0550   22.3200 C.3   1407  PLP1407     0.0555
      4  C3         9.0810   11.2630   21.1200 C.ar  1407  PLP1407     0.2049
      5  O3         9.4050   12.5560   20.7920 O.3   1407  PLP1407    -0.2857
      6  C4         7.8580   10.7180   20.7090 C.ar  1407  PLP1407     0.0182
      7  C4A        6.8800   11.5400   19.9070 C.3   1407  PLP1407     0.0342
      8  C5         7.5400    9.3950   21.0530 C.ar  1407  PLP1407     0.0261
      9  C6         8.4420    8.6380   21.7970 C.ar  1407  PLP1407     0.0965
     10  C5A        6.1180    8.8930   20.9460 C.3   1407  PLP1407     0.1815
     11  O4P        6.0120    8.0850   19.8000 O.3   1407  PLP1407    -0.2653
     12  P          4.5700    7.6620   19.2190 P.3   1407  PLP1407     0.5329
     13  O1P        3.7180    7.1010   20.3350 O.3   1407  PLP1407    -0.1145
     14  O2P        3.9340    8.9030   18.6360 O.3   1407  PLP1407    -0.1145
     15  O3P        4.7900    6.6110   18.1540 O.2   1407  PLP1407    -0.2224
@<TRIPOS>BOND
     1    15    12    2
     2    14    12    1
     3    12    11    1
     4    12    13    1
     5    11    10    1
     6     7     6    1
     7     6     8   ar
     8     6     4   ar
     9     5     4    1
    10    10     8    1
    11     8     9   ar
    12     4     2   ar
    13     9     1   ar
    14     2     1   ar
    15     2     3    1
