@<TRIPOS>MOLECULE
2vgw_PLP_A_1.pdb
 15 15 0 0 0
SMALL
GASTEIGER

@<TRIPOS>ATOM
      1  N1         9.5710    9.3690   22.3380 N.2   1407  PLP1407    -0.2458
      2  C2        10.0150   10.6500   21.9870 C.2   1407  PLP1407     0.0942
      3  C2A       11.1530   11.2880   22.7560 C.3   1407  PLP1407     0.0552
      4  C3         9.4000   11.3260   20.9150 C.2   1407  PLP1407     0.1899
      5  O3         9.7370   12.4650   20.5590 O.2   1407  PLP1407    -0.2898
      6  C4         8.3610   10.7270   20.2030 C.3   1407  PLP1407     0.0852
      7  C4A        7.7620   11.5050   19.0480 C.3   1407  PLP1407     0.0127
      8  C5         7.9240    9.4500   20.5760 C.2   1407  PLP1407     0.0118
      9  C6         8.5300    8.7670   21.6370 C.2   1407  PLP1407     0.0929
     10  C5A        6.8070    8.8300   19.7900 C.3   1407  PLP1407     0.1779
     11  O4P        5.6320    9.6260   19.4340 O.3   1407  PLP1407    -0.2656
     12  P          4.5120   10.2420   20.4300 P.3   1407  PLP1407     0.5329
     13  O1P        4.2530    9.2190   21.4720 O.3   1407  PLP1407    -0.1145
     14  O2P        5.1010   11.4960   20.9610 O.3   1407  PLP1407    -0.1145
     15  O3P        3.3820   10.4760   19.5020 O.2   1407  PLP1407    -0.2224
@<TRIPOS>BOND
     1     7     6    1
     2    11    10    1
     3    11    12    1
     4    15    12    2
     5    10     8    1
     6     6     8    1
     7     6     4    1
     8    12    14    1
     9    12    13    1
    10     5     4    2
    11     8     9    2
    12     4     2    1
    13     9     1    1
    14     2     1    2
    15     2     3    1
