@<TRIPOS>MOLECULE
2vh0_GSI_A_1.pdb
 34 37 0 0 0
SMALL
GASTEIGER

@<TRIPOS>ATOM
      1 CL1        13.8220    7.2750   26.2150 Cl    1247  GSI1247    -0.0752
      2  C1        12.0990    7.5040   26.2290 C.ar  1247  GSI1247     0.0867
      3  C2        11.2500    7.0320   27.2940 C.ar  1247  GSI1247     0.0181
      4  C3         9.8870    7.3570   26.9870 C.ar  1247  GSI1247     0.0036
      5  S2        11.2770    8.2770   24.9550 S.2   1247  GSI1247    -0.0798
      6  C4         9.7590    8.0390   25.7290 C.ar  1247  GSI1247     0.0099
      7  C5         8.4560    8.4510   25.2120 C.3   1247  GSI1247     0.0600
      8  C6         8.2340    8.9080   23.9620 C.3   1247  GSI1247     0.1757
      9  S1         6.5700    9.3200   23.6640 S.O2  1247  GSI1247     0.0581
     10  O2         6.5740   10.5810   23.0020 O.2   1247  GSI1247    -0.1561
     11  O1         5.8520    9.0250   24.8490 O.2   1247  GSI1247    -0.1561
     12  N1         6.0100    8.3860   22.4760 N.3   1247  GSI1247    -0.0741
     13  C12        5.9270    6.9520   22.6020 C.3   1247  GSI1247     0.1753
     14  C13        4.5830    6.4590   22.0640 C.3   1247  GSI1247     0.0505
     15  C14        4.9730    5.1140   21.4430 C.3   1247  GSI1247     0.1003
     16  C50        6.9650    6.2580   21.7380 C.2   1247  GSI1247     0.2472
     17  O3         8.1330    6.5980   21.5950 O.2   1247  GSI1247    -0.2730
     18  N2         6.3930    5.2080   21.1390 N.am  1247  GSI1247    -0.2554
     19  C15        7.0570    4.3150   20.3450 C.ar  1247  GSI1247     0.0815
     20  C21        6.9650    2.9290   20.6350 C.ar  1247  GSI1247     0.0187
     21  C24        7.6610    2.0260   19.8050 C.ar  1247  GSI1247     0.0190
     22  C27        8.4110    2.4810   18.7050 C.ar  1247  GSI1247     0.0675
     23  C26        8.5050    3.8650   18.4230 C.ar  1247  GSI1247     0.0485
     24  C22        7.8250    4.7560   19.2610 C.ar  1247  GSI1247     0.1551
     25  F1         7.8870    6.0780   19.0150 F     1247  GSI1247    -0.2028
     26  N4         9.1000    1.5920   17.8680 N.ar  1247  GSI1247    -0.2911
     27  C9        10.2050    0.8970   18.2840 C.ar  1247  GSI1247     0.1019
     28  C7        10.6520    0.1200   17.1880 C.ar  1247  GSI1247     0.1192
     29  N3         9.7910    0.3760   16.1670 N.ar  1247  GSI1247    -0.2276
     30  C8         8.8540    1.2630   16.5750 C.ar  1247  GSI1247     0.1407
     31  C10        7.7370    1.7940   15.6870 C.3   1247  GSI1247     0.1375
     32  N5         7.1110    0.7450   14.8510 N.3   1247  GSI1247    -0.2639
     33  C11        6.4140   -0.2540   15.6790 C.3   1247  GSI1247     0.0900
     34  C16        6.1700    1.3710   13.9110 C.3   1247  GSI1247     0.0900
@<TRIPOS>BOND
     1    34    32    1
     2    32    33    1
     3    32    31    1
     4    31    30    1
     5    29    30   ar
     6    29    28   ar
     7    30    26   ar
     8    28    27   ar
     9    26    27   ar
    10    26    22    1
    11    23    22   ar
    12    23    24   ar
    13    22    21   ar
    14    25    24    1
    15    24    19   ar
    16    21    20   ar
    17    19    20   ar
    18    19    18    1
    19    18    15    1
    20    18    16   am
    21    15    14    1
    22    17    16    2
    23    16    13    1
    24    14    13    1
    25    12    13    1
    26    12     9    1
    27    10     9    2
    28     9     8    1
    29     9    11    2
    30     8     7    1
    31     5     6   ar
    32     5     2   ar
    33     7     6    1
    34     6     4   ar
    35     1     2    1
    36     2     3   ar
    37     4     3   ar
