@<TRIPOS>MOLECULE
2vh6_GSV_A_1.pdb
 35 38 0 0 0
SMALL
GASTEIGER

@<TRIPOS>ATOM
      1  C35        5.3980    1.7590   16.8250 C.3   1245  GSV1245     0.1816
      2  S32        6.5130    1.6950   15.4480 S.O2  1245  GSV1245     0.0104
      3  O37        6.5460    3.0100   14.9000 O.2   1245  GSV1245    -0.1686
      4  O36        6.1050    0.6180   14.6100 O.2   1245  GSV1245    -0.1686
      5  C29        8.1430    1.1590   15.9910 C.ar  1245  GSV1245     0.1057
      6  C31        8.8370    0.2110   15.2000 C.ar  1245  GSV1245     0.0183
      7  C34       10.1150   -0.2600   15.5850 C.ar  1245  GSV1245     0.0013
      8  C33       10.7180    0.2140   16.7690 C.ar  1245  GSV1245     0.0001
      9  C30       10.0240    1.1540   17.5570 C.ar  1245  GSV1245     0.0013
     10  C28        8.7400    1.6320   17.1750 C.ar  1245  GSV1245     0.0172
     11  C27        8.0860    2.6280   18.0810 C.ar  1245  GSV1245     0.0036
     12  C26        8.1710    4.0080   17.8100 C.ar  1245  GSV1245     0.0310
     13  C22        7.5330    4.8890   18.6990 C.ar  1245  GSV1245     0.1537
     14  F          7.6030    6.2140   18.4860 F     1245  GSV1245    -0.2029
     15  C24        7.3590    2.1550   19.2120 C.ar  1245  GSV1245     0.0015
     16  C21        6.7180    3.0380   20.0990 C.ar  1245  GSV1245     0.0172
     17  C15        6.8110    4.4280   19.8350 C.ar  1245  GSV1245     0.0814
     18  N2         6.1610    5.3220   20.7220 N.am  1245  GSV1245    -0.2554
     19  C50        6.7540    6.4400   21.2260 C.2   1245  GSV1245     0.2472
     20  O3         7.9050    6.8070   21.0640 O.2   1245  GSV1245    -0.2730
     21  C14        4.7860    5.1480   21.1700 C.3   1245  GSV1245     0.1003
     22  C13        4.3920    6.5800   21.5330 C.3   1245  GSV1245     0.0506
     23  C12        5.7190    7.1900   22.0220 C.3   1245  GSV1245     0.1757
     24  N1         5.8070    8.6150   21.7500 N.3   1245  GSV1245    -0.0698
     25  S1         6.3570    9.6930   22.8230 S.O2  1245  GSV1245     0.0785
     26  O2         6.4290   10.8720   22.0080 O.2   1245  GSV1245    -0.1515
     27  O1         5.5530    9.6540   23.9990 O.2   1245  GSV1245    -0.1515
     28  C6         7.9360    9.1700   23.3460 C.2   1245  GSV1245     0.1426
     29  C5         8.0730    8.7070   24.7320 C.2   1245  GSV1245     0.0278
     30  C4         9.3330    8.2030   25.3280 C.ar  1245  GSV1245     0.0317
     31  S2        10.8280    8.4590   24.5420 S.2   1245  GSV1245    -0.0755
     32  C3         9.4020    7.5390   26.5640 C.ar  1245  GSV1245     0.0079
     33  C2        10.7570    7.2180   26.8570 C.ar  1245  GSV1245     0.0185
     34  C1        11.6060    7.6650   25.8140 C.ar  1245  GSV1245     0.0870
     35 CL         13.3210    7.4580   25.7710 Cl    1245  GSV1245    -0.0752
@<TRIPOS>BOND
     1     4     2    2
     2     3     2    2
     3     6     7   ar
     4     6     5   ar
     5     2     5    1
     6     2     1    1
     7     7     8   ar
     8     5    10   ar
     9     8     9   ar
    10    10     9   ar
    11    10    11    1
    12    12    11   ar
    13    12    13   ar
    14    11    15   ar
    15    14    13    1
    16    13    17   ar
    17    15    16   ar
    18    17    16   ar
    19    17    18    1
    20    18    21    1
    21    18    19   am
    22    20    19    2
    23    21    22    1
    24    19    23    1
    25    22    23    1
    26    24    23    1
    27    24    25    1
    28    26    25    2
    29    25    28    1
    30    25    27    2
    31    28    29    2
    32    31    30   ar
    33    31    34   ar
    34    29    30    1
    35    30    32   ar
    36    35    34    1
    37    34    33   ar
    38    32    33   ar
