@<TRIPOS>MOLECULE
2vh9_BGC_A_1.pdb
 11 11 0 0 0
SMALL
GASTEIGER

@<TRIPOS>ATOM
      1  C2        14.5490   21.7080   74.9070 C.3   1269  BGC1269     0.2141
      2  C3        13.5890   22.7300   74.3190 C.3   1269  BGC1269     0.2173
      3  C4        12.1840   22.1660   74.2540 C.3   1269  BGC1269     0.2142
      4  C5        11.6790   21.4180   75.4680 C.3   1269  BGC1269     0.1810
      5  C6        10.2750   20.8730   75.1930 C.3   1269  BGC1269     0.2141
      6  C1        13.9400   20.7110   75.9040 C.3   1269  BGC1269     0.1777
      7  O2        15.5630   22.4500   75.5910 O.3   1269  BGC1269    -0.2176
      8  O3        13.9900   23.1120   72.9850 O.3   1269  BGC1269    -0.2175
      9  O4        11.3560   23.2820   74.1790 O.3   1269  BGC1269    -0.2176
     10  O5        12.5660   20.3560   75.7030 O.3   1269  BGC1269    -0.3481
     11  O6        10.2290   20.1410   73.9440 O.3   1269  BGC1269    -0.2176
@<TRIPOS>BOND
     1     8     2    1
     2    11     5    1
     3     9     3    1
     4     3     2    1
     5     3     4    1
     6     2     1    1
     7     1     7    1
     8     1     6    1
     9     5     4    1
    10     4    10    1
    11    10     6    1
