@<TRIPOS>MOLECULE
2vha_GLU_A_1.pdb
 10 9 0 0 0
SMALL
GASTEIGER

@<TRIPOS>ATOM
      1  N         37.5710   34.6710   -1.5240 N.3   1280  GLU1280    -0.1208
      2  CA        36.3790   35.1970   -0.8160 C.3   1280  GLU1280     0.1949
      3  C         36.7120   35.5630    0.6130 C.2   1280  GLU1280     0.3819
      4  O         37.8550   35.2760    1.0540 O.co2 1280  GLU1280    -0.2441
      5  CB        35.1790   34.3510   -0.9860 C.3   1280  GLU1280     0.0424
      6  CG        35.3580   32.9550   -0.8810 C.3   1280  GLU1280     0.1161
      7  CD        35.5370   32.4560    0.4750 C.2   1280  GLU1280     0.3649
      8  OE1       35.6630   33.1380    1.5100 O.co2 1280  GLU1280    -0.2457
      9  OE2       35.5840   31.2390    0.4510 O.co2 1280  GLU1280    -0.2457
     10  OXT       35.8590   36.2390    1.2490 O.co2 1280  GLU1280    -0.2441
@<TRIPOS>BOND
     1     1     2    1
     2     5     6    1
     3     5     2    1
     4     6     7    1
     5     2     3    1
     6     9     7   ar
     7     7     8   ar
     8     3     4   ar
     9     3    10   ar
