@<TRIPOS>MOLECULE
2vhb_HEM_A_1.pdb
 43 50 0 0 0
SMALL
GASTEIGER

@<TRIPOS>ATOM
      1 FE         41.9970    7.9460   59.8430 Fe    150  HEM150      0.0000
      2  CHA       44.8210    9.2430   58.4690 C.2   150  HEM150      0.0000
      3  CHB       40.4040   10.8640   59.4930 C.2   150  HEM150      0.0000
      4  CHC       39.0680    6.4130   60.7930 C.2   150  HEM150      0.0000
      5  CHD       43.7280    5.2180   60.7430 C.2   150  HEM150      0.0000
      6  NA        42.5330    9.7100   59.1220 N.ar  150  HEM150      0.0000
      7  C1A       43.7620   10.1170   58.6560 C.ar  150  HEM150      0.0000
      8  C2A       43.6980   11.5580   58.3720 C.ar  150  HEM150      0.0000
      9  C3A       42.4830   11.9910   58.6590 C.ar  150  HEM150      0.0000
     10  C4A       41.7190   10.8310   59.1150 C.ar  150  HEM150      0.0000
     11  CMA       41.9470   13.4450   58.4730 C.3   150  HEM150      0.0000
     12  CAA       44.8860   12.3840   57.8560 C.3   150  HEM150      0.0000
     13  CBA       45.0670   12.5600   56.3580 C.3   150  HEM150      0.0000
     14  CGA       46.1780   13.4970   55.9820 C.2   150  HEM150      0.0000
     15  O1A       46.1410   14.7250   56.3030 O.co2 150  HEM150      0.0000
     16  O2A       47.0510   12.9280   55.3080 O.co2 150  HEM150      0.0000
     17  NB        40.1910    8.4920   60.0110 N.2   150  HEM150      0.0000
     18  C1B       39.6540    9.7770   59.8330 C.2   150  HEM150      0.0000
     19  C2B       38.2470    9.8070   60.0330 C.2   150  HEM150      0.0000
     20  C3B       37.8920    8.5540   60.3330 C.2   150  HEM150      0.0000
     21  C4B       39.0810    7.7470   60.3730 C.2   150  HEM150      0.0000
     22  CMB       37.3590   11.0590   59.9100 C.3   150  HEM150      0.0000
     23  CAB       36.5280    8.0040   60.7770 C.2   150  HEM150      0.0000
     24  CBB       35.3830    8.4200   60.2130 C.2   150  HEM150      0.0000
     25  NC        41.4940    6.1830   60.6230 N.ar  150  HEM150      0.0000
     26  C1C       40.2480    5.7180   60.9180 C.ar  150  HEM150      0.0000
     27  C2C       40.3610    4.3350   61.3630 C.ar  150  HEM150      0.0000
     28  C3C       41.6520    4.0110   61.4140 C.ar  150  HEM150      0.0000
     29  C4C       42.3740    5.1640   60.9510 C.ar  150  HEM150      0.0000
     30  CMC       39.0950    3.5380   61.6280 C.3   150  HEM150      0.0000
     31  CAC       42.3350    2.6700   61.7730 C.2   150  HEM150      0.0000
     32  CBC       43.0290    2.5290   62.9080 C.2   150  HEM150      0.0000
     33  ND        43.7540    7.4700   59.6550 N.2   150  HEM150      0.0000
     34  C1D       44.3130    6.2540   60.0350 C.2   150  HEM150      0.0000
     35  C2D       45.7090    6.1150   59.7060 C.2   150  HEM150      0.0000
     36  C3D       46.0000    7.1450   58.9680 C.2   150  HEM150      0.0000
     37  C4D       44.8220    7.9610   58.9750 C.2   150  HEM150      0.0000
     38  CMD       46.6140    4.8770   59.9680 C.3   150  HEM150      0.0000
     39  CAD       47.3850    7.5280   58.4090 C.3   150  HEM150      0.0000
     40  CBD       48.3910    8.2250   59.3670 C.3   150  HEM150      0.0000
     41  CGD       48.7730    9.5220   58.7070 C.2   150  HEM150      0.0000
     42  O1D       47.8570   10.3680   58.5200 O.co2 150  HEM150      0.0000
     43  O2D       49.9580    9.6320   58.3110 O.co2 150  HEM150      0.0000
@<TRIPOS>BOND
     1    16    14   ar
     2    14    15   ar
     3    14    13    1
     4    13    12    1
     5    12     8    1
     6    43    41   ar
     7     8     7   ar
     8     8     9   ar
     9    39    36    1
    10    39    40    1
    11     2     7    2
    12     2    37    1
    13    11     9    1
    14    42    41   ar
    15     7     6   ar
    16     9    10   ar
    17    41    40    1
    18    36    37    1
    19    36    35    2
    20    37    33    2
    21    10     6   ar
    22    10     3    2
    23     6     1    1
    24     3    18    1
    25    33     1    1
    26    33    34    1
    27    35    38    1
    28    35    34    1
    29    18    17    2
    30    18    19    1
    31     1    17    1
    32     1    25    1
    33    22    19    1
    34    17    21    1
    35    19    20    2
    36    34     5    2
    37    24    23    2
    38    20    21    1
    39    20    23    1
    40    21     4    2
    41    25    26   ar
    42    25    29   ar
    43     5    29    1
    44     4    26    1
    45    26    27   ar
    46    29    28   ar
    47    27    28   ar
    48    27    30    1
    49    28    31    1
    50    31    32    2
