@<TRIPOS>MOLECULE
2vhc_APC_A_1.pdb
 31 33 0 0 0
SMALL
GASTEIGER

@<TRIPOS>ATOM
      1  PG        80.0640   49.4540    3.5750 P.3   1300  APC1300     0.5389
      2  O1G       81.0870   48.4250    3.1440 O.3   1300  APC1300    -0.1143
      3  O2G       79.6110   50.2880    2.4000 O.2   1300  APC1300    -0.2220
      4  O3G       79.0140   49.0020    4.5770 O.3   1300  APC1300    -0.1143
      5  PB        82.3540   50.7030    4.7480 P.3   1300  APC1300     0.3895
      6  O1B       82.8290   49.4630    5.4740 O.3   1300  APC1300    -0.1388
      7  O2B       82.4430   52.0530    5.4610 O.2   1300  APC1300    -0.2544
      8  O3B       80.7710   50.5420    4.5340 O.3   1300  APC1300    -0.2026
      9  PA        84.4730   49.4960    2.8910 P.3   1300  APC1300     0.3820
     10  O1A       85.0280   49.6770    1.4930 O.2   1300  APC1300    -0.2548
     11  O2A       84.0420   48.0860    3.2550 O.3   1300  APC1300    -0.1392
     12  C3A       83.1280   50.7230    3.0920 C.3   1300  APC1300     0.2357
     13  O5'       85.6650   49.8810    3.8880 O.3   1300  APC1300    -0.2896
     14  C5'       86.7000   50.7340    3.4170 C.3   1300  APC1300     0.1836
     15  C4'       86.2940   52.1780    3.6600 C.3   1300  APC1300     0.1822
     16  O4'       87.1930   52.7100    4.6230 O.3   1300  APC1300    -0.3135
     17  C3'       86.3700   53.1030    2.4500 C.3   1300  APC1300     0.2184
     18  O3'       85.1210   53.2110    1.7560 O.3   1300  APC1300    -0.2174
     19  C2'       86.7430   54.4260    3.0750 C.3   1300  APC1300     0.2570
     20  O2'       85.5590   55.0960    3.5590 O.3   1300  APC1300    -0.2130
     21  C1'       87.5940   54.0330    4.2640 C.3   1300  APC1300     0.3186
     22  N9        89.0750   54.0570    4.0620 N.pl3 1300  APC1300    -0.1439
     23  C8        89.8660   53.0040    3.7830 C.3   1300  APC1300     0.3377
     24  N7        91.1690   53.3880    3.7280 N.2   1300  APC1300    -0.2095
     25  C5        91.2280   54.7070    3.9980 C.2   1300  APC1300     0.2526
     26  C6        92.2860   55.7470    4.0990 C.2   1300  APC1300     0.4393
     27  N6        93.5870   55.4340    3.8980 N.pl3 1300  APC1300     0.2180
     28  N1        91.9080   57.0130    4.3980 N.2   1300  APC1300     0.0021
     29  C2        90.6160   57.3500    4.6060 C.3   1300  APC1300     0.5254
     30  N3        89.6040   56.4570    4.5300 N.2   1300  APC1300    -0.0055
     31  C4        89.8430   55.1450    4.2320 C.2   1300  APC1300     0.3518
@<TRIPOS>BOND
     1    10     9    2
     2    18    17    1
     3     3     1    2
     4    17    19    1
     5    17    15    1
     6     9    12    1
     7     9    11    1
     8     9    13    1
     9    19    20    1
    10    19    21    1
    11    12     5    1
    12     2     1    1
    13    14    15    1
    14    14    13    1
    15     1     8    1
    16     1     4    1
    17    15    16    1
    18    24    23    1
    19    24    25    2
    20    23    22    1
    21    27    26    1
    22    25    26    1
    23    25    31    1
    24    22    31    1
    25    22    21    1
    26    26    28    2
    27    31    30    2
    28    21    16    1
    29    28    29    1
    30    30    29    1
    31     8     5    1
    32     5     7    2
    33     5     6    1
