@<TRIPOS>MOLECULE
2vhd_HEC_A_1.pdb
 43 50 0 0 0
SMALL
GASTEIGER

@<TRIPOS>ATOM
      1 FE         14.3350   -7.8820   21.0830 Fe    401  HEC401      0.0000
      2  CHA       17.4700   -9.0590   20.6520 C.2   401  HEC401      0.0000
      3  CHB       15.1080   -5.1840   19.1570 C.2   401  HEC401      0.0000
      4  CHC       11.0090   -7.0950   20.9520 C.2   401  HEC401      0.0000
      5  CHD       13.7090  -10.1550   23.5690 C.2   401  HEC401      0.0000
      6  NA        15.9990   -7.2270   20.0730 N.ar  401  HEC401      0.0000
      7  C1A       17.2350   -7.8310   20.1070 C.ar  401  HEC401      0.0000
      8  C2A       18.1840   -6.9800   19.4280 C.ar  401  HEC401      0.0000
      9  C3A       17.5180   -5.8740   19.0130 C.ar  401  HEC401      0.0000
     10  C4A       16.1330   -6.0270   19.4190 C.ar  401  HEC401      0.0000
     11  CMA       18.0730   -4.6450   18.2510 C.3   401  HEC401      0.0000
     12  CAA       19.6850   -7.3090   19.2570 C.3   401  HEC401      0.0000
     13  CBA       20.6550   -6.2550   19.7740 C.3   401  HEC401      0.0000
     14  CGA       22.0310   -6.8450   20.0250 C.2   401  HEC401      0.0000
     15  O1A       22.3230   -7.9800   19.5760 O.co2 401  HEC401      0.0000
     16  O2A       22.8770   -6.1990   20.6960 O.co2 401  HEC401      0.0000
     17  NB        13.2610   -6.4030   20.2060 N.2   401  HEC401      0.0000
     18  C1B       13.7670   -5.4830   19.3310 C.2   401  HEC401      0.0000
     19  C2B       12.6260   -4.8650   18.6570 C.2   401  HEC401      0.0000
     20  C3B       11.4800   -5.3800   19.1560 C.2   401  HEC401      0.0000
     21  C4B       11.8590   -6.3590   20.1470 C.2   401  HEC401      0.0000
     22  CMB       12.7790   -3.7470   17.5990 C.3   401  HEC401      0.0000
     23  CAB       10.0090   -5.0260   18.7250 C.3   401  HEC401      0.0000
     24  CBB        9.8410   -5.2350   17.2000 C.3   401  HEC401      0.0000
     25  NC        12.6720   -8.4720   22.1160 N.ar  401  HEC401      0.0000
     26  C1C       11.3790   -8.0440   21.8910 C.ar  401  HEC401      0.0000
     27  C2C       10.4790   -8.8510   22.7150 C.ar  401  HEC401      0.0000
     28  C3C       11.2420   -9.6460   23.5100 C.ar  401  HEC401      0.0000
     29  C4C       12.6220   -9.4630   23.0820 C.ar  401  HEC401      0.0000
     30  CMC        8.9540   -8.5590   22.8470 C.3   401  HEC401      0.0000
     31  CAC       10.8880  -10.7010   24.6190 C.3   401  HEC401      0.0000
     32  CBC        9.4650  -11.2400   24.7870 C.3   401  HEC401      0.0000
     33  ND        15.4100   -9.3410   21.9870 N.2   401  HEC401      0.0000
     34  C1D       14.9240  -10.2470   22.9280 C.2   401  HEC401      0.0000
     35  C2D       15.9140  -11.2730   23.1520 C.2   401  HEC401      0.0000
     36  C3D       17.0750  -10.9350   22.2380 C.2   401  HEC401      0.0000
     37  C4D       16.6810   -9.7170   21.5480 C.2   401  HEC401      0.0000
     38  CMD       15.8420  -12.4920   24.0820 C.3   401  HEC401      0.0000
     39  CAD       18.3530  -11.7740   22.0680 C.3   401  HEC401      0.0000
     40  CBD       17.8630  -13.0770   21.3870 C.3   401  HEC401      0.0000
     41  CGD       18.9170  -13.7080   20.4960 C.2   401  HEC401      0.0000
     42  O1D       18.6030  -14.7940   19.9140 O.co2 401  HEC401      0.0000
     43  O2D       20.0580  -13.1550   20.3830 O.co2 401  HEC401      0.0000
@<TRIPOS>BOND
     1    24    23    1
     2    22    19    1
     3    11     9    1
     4    19    20    2
     5    19    18    1
     6    23    20    1
     7     9    10   ar
     8     9     8   ar
     9    20    21    1
    10     3    18    1
    11     3    10    2
    12    12     8    1
    13    12    13    1
    14    18    17    2
    15    10     6   ar
    16     8     7   ar
    17    15    14   ar
    18    13    14    1
    19    42    41   ar
    20    14    16   ar
    21     6     7   ar
    22     6     1    1
    23     7     2    2
    24    21    17    1
    25    21     4    2
    26    17     1    1
    27    43    41   ar
    28    41    40    1
    29     2    37    1
    30     4    26    1
    31     1    33    1
    32     1    25    1
    33    40    39    1
    34    37    33    2
    35    37    36    1
    36    26    25   ar
    37    26    27   ar
    38    33    34    1
    39    39    36    1
    40    25    29   ar
    41    36    35    2
    42    27    30    1
    43    27    28   ar
    44    34    35    1
    45    34     5    2
    46    29    28   ar
    47    29     5    1
    48    35    38    1
    49    28    31    1
    50    31    32    1
