@<TRIPOS>MOLECULE
2vhe_COA_A_1.pdb
 48 50 0 0 0
SMALL
GASTEIGER

@<TRIPOS>ATOM
      1  N1A        7.6070    0.8340   18.6700 N.2   300  COA300      0.0021
      2  C2A        7.4410    0.7050   20.0340 C.3   300  COA300      0.5254
      3  N3A        8.5400    0.5000   20.8480 N.2   300  COA300     -0.0055
      4  C4A        9.7850    0.4320   20.3090 C.2   300  COA300      0.3518
      5  C5A        9.9830    0.5600   18.9390 C.2   300  COA300      0.2526
      6  C6A        8.8700    0.7750   18.1090 C.2   300  COA300      0.4393
      7  N6A        9.0380    1.1480   16.8390 N.pl3 300  COA300      0.2180
      8  N7A       11.3200    0.4490   18.6970 N.2   300  COA300     -0.2095
      9  C8A       11.9570    0.2520   19.8740 C.3   300  COA300      0.3377
     10  N9A       11.0100    0.2380   20.8710 N.pl3 300  COA300     -0.1439
     11  C1B       11.2320   -0.0150   22.3080 C.3   300  COA300      0.3185
     12  C2B       11.8290   -1.3970   22.5440 C.3   300  COA300      0.2543
     13  O2B       10.8580   -2.4090   22.6650 O.3   300  COA300     -0.2131
     14  C3B       12.5750   -1.1750   23.8440 C.3   300  COA300      0.1928
     15  O3B       11.6830   -1.3060   24.9350 O.3   300  COA300     -0.2673
     16  P3B       12.1540   -1.9260   26.3580 P.3   300  COA300      0.5327
     17  O7A       12.6060   -3.3620   26.1550 O.2   300  COA300     -0.2224
     18  O8A       13.3130   -1.0990   26.8920 O.3   300  COA300     -0.1145
     19  O9A       10.9700   -1.8630   27.3000 O.3   300  COA300     -0.1145
     20  C4B       13.0400    0.2760   23.7470 C.3   300  COA300      0.1795
     21  O4B       12.1400    0.9300   22.8640 O.3   300  COA300     -0.3136
     22  C5B       14.4860    0.3740   23.2500 C.3   300  COA300      0.1812
     23  O5B       14.6810   -0.4940   22.1440 O.3   300  COA300     -0.3112
     24  P1A       15.9400   -0.3380   21.1490 P.3   300  COA300      0.2189
     25  O1A       15.7400   -1.1810   19.9050 O.2   300  COA300     -0.5170
     26  O2A       17.1970   -0.7310   21.8980 O.3   300  COA300     -0.4371
     27  O3A       15.8750    1.2420   20.7830 O.3   300  COA300     -0.2703
     28  P2A       16.7030    2.0340   19.6370 P.3   300  COA300      0.2188
     29  O4A       17.9250    1.2930   19.1290 O.2   300  COA300     -0.5170
     30  O5A       17.0650    3.4060   20.1550 O.3   300  COA300     -0.4371
     31  O6A       15.6530    2.1570   18.4090 O.3   300  COA300     -0.3138
     32  CBP       13.8060    3.1510   17.1750 C.3   300  COA300      0.0645
     33  CCP       14.5210    2.9950   18.5180 C.3   300  COA300      0.1519
     34  CDP       12.4080    3.6690   17.4990 C.3   300  COA300      0.0056
     35  CEP       14.5470    4.2280   16.3900 C.3   300  COA300      0.0056
     36  CAP       13.7720    1.8440   16.3350 C.3   300  COA300      0.2312
     37  OAP       13.2920    0.7350   17.0710 O.3   300  COA300     -0.2131
     38  C9P       12.9090    1.9830   15.0950 C.2   300  COA300      0.2719
     39  O9P       11.5130    1.8050   15.2000 O.2   300  COA300     -0.2706
     40  N8P       13.5160    2.2890   13.9510 N.am  300  COA300     -0.2028
     41  C7P       12.8220    2.1250   12.6910 C.3   300  COA300      0.1248
     42  C6P       13.6090    1.3020   11.6730 C.3   300  COA300      0.1102
     43  C5P       12.8300    1.1590   10.3650 C.2   300  COA300      0.2432
     44  O5P       11.5740    1.2810   10.3000 O.2   300  COA300     -0.2733
     45  N4P       13.6000    0.8730    9.3100 N.am  300  COA300     -0.2044
     46  C3P       13.1570    1.2260    7.9640 C.3   300  COA300      0.1276
     47  C2P       12.6840   -0.0140    7.2400 C.3   300  COA300      0.0920
     48  S1P       11.8810    0.3750    5.6600 S.3   300  COA300     -0.0802
@<TRIPOS>BOND
     1    48    47    1
     2    47    46    1
     3    46    45    1
     4    45    43   am
     5    44    43    2
     6    43    42    1
     7    42    41    1
     8    41    40    1
     9    40    38   am
    10    38    39    2
    11    38    36    1
    12    36    37    1
    13    36    32    1
    14    35    32    1
    15     7     6    1
    16    32    34    1
    17    32    33    1
    18     6     1    2
    19     6     5    1
    20    31    33    1
    21    31    28    1
    22     1     2    1
    23     8     5    2
    24     8     9    1
    25     5     4    1
    26    29    28    2
    27    28    30    1
    28    28    27    1
    29     9    10    1
    30    25    24    2
    31     2     3    1
    32     4     3    2
    33     4    10    1
    34    27    24    1
    35    10    11    1
    36    24    26    1
    37    24    23    1
    38    23    22    1
    39    11    12    1
    40    11    21    1
    41    12    13    1
    42    12    14    1
    43    21    20    1
    44    22    20    1
    45    20    14    1
    46    14    15    1
    47    15    16    1
    48    17    16    2
    49    16    18    1
    50    16    19    1
