@<TRIPOS>MOLECULE
2vhj_ADP_A_1.pdb
 27 29 0 0 0
SMALL
GASTEIGER

@<TRIPOS>ATOM
      1  PB        82.3950   49.4680    4.9070 P.3   1301  ADP1301     0.5373
      2  O1B       81.8260   48.0800    4.7170 O.2   1301  ADP1301    -0.2221
      3  O2B       83.4800   49.5640    5.9450 O.3   1301  ADP1301    -0.1143
      4  O3B       81.3470   50.5540    5.0370 O.3   1301  ADP1301    -0.1143
      5  PA        84.6730   49.1350    3.3000 P.3   1301  ADP1301     0.2231
      6  O1A       85.1380   49.4540    1.8960 O.2   1301  ADP1301    -0.5169
      7  O2A       84.5900   47.6880    3.7090 O.3   1301  ADP1301    -0.4370
      8  O3A       83.2090   49.7790    3.5450 O.3   1301  ADP1301    -0.2261
      9  O5'       85.6080   49.9260    4.3450 O.3   1301  ADP1301    -0.3111
     10  C5'       86.7460   50.6650    3.9040 C.3   1301  ADP1301     0.1813
     11  C4'       86.2890   52.0300    3.4160 C.3   1301  ADP1301     0.1821
     12  O4'       87.0630   53.0710    4.0200 O.3   1301  ADP1301    -0.3135
     13  C3'       86.3770   52.2070    1.9050 C.3   1301  ADP1301     0.2184
     14  O3'       85.0590   52.3500    1.3820 O.3   1301  ADP1301    -0.2174
     15  C2'       87.2040   53.4550    1.6550 C.3   1301  ADP1301     0.2570
     16  O2'       86.5040   54.4360    0.8700 O.3   1301  ADP1301    -0.2130
     17  C1'       87.5480   53.9950    3.0400 C.3   1301  ADP1301     0.3186
     18  N9        89.0110   54.1150    3.2030 N.pl3 1301  ADP1301    -0.1439
     19  C8        89.8700   53.0820    3.1570 C.3   1301  ADP1301     0.3377
     20  N7        91.1410   53.5190    3.3440 N.2   1301  ADP1301    -0.2095
     21  C5        91.1010   54.8500    3.5240 C.2   1301  ADP1301     0.2526
     22  C6        92.0930   55.9190    3.7740 C.2   1301  ADP1301     0.4393
     23  N6        93.4080   55.6140    3.8690 N.pl3 1301  ADP1301     0.2180
     24  N1        91.6380   57.1900    3.9000 N.2   1301  ADP1301     0.0021
     25  C2        90.3230   57.4910    3.8050 C.3   1301  ADP1301     0.5254
     26  N3        89.3690   56.5600    3.5780 N.2   1301  ADP1301    -0.0055
     27  C4        89.6890   55.2460    3.4300 C.2   1301  ADP1301     0.3518
@<TRIPOS>BOND
     1    16    15    1
     2    14    13    1
     3    15    13    1
     4    15    17    1
     5     6     5    2
     6    13    11    1
     7    17    18    1
     8    17    12    1
     9    19    18    1
    10    19    20    1
    11    18    27    1
    12     5     8    1
    13     5     7    1
    14     5     9    1
    15    20    21    2
    16    11    10    1
    17    11    12    1
    18    27    21    1
    19    27    26    2
    20    21    22    1
    21     8     1    1
    22    26    25    1
    23    22    23    1
    24    22    24    2
    25    25    24    1
    26    10     9    1
    27     2     1    2
    28     1     4    1
    29     1     3    1
