@<TRIPOS>MOLECULE
2vhl_GLP_A_1.pdb
 16 16 0 0 0
SMALL
GASTEIGER

@<TRIPOS>ATOM
      1  C1        21.2610   16.8960  104.6770 C.3   1395  GLP1395     0.2893
      2  C2        22.2960   17.7740  103.9140 C.3   1395  GLP1395     0.1836
      3  C3        22.2160   17.5340  102.4000 C.3   1395  GLP1395     0.2071
      4  C4        22.1980   16.0230  102.0290 C.3   1395  GLP1395     0.2132
      5  C5        21.1100   15.3300  102.8810 C.3   1395  GLP1395     0.1807
      6  C6        20.8210   13.8810  102.4910 C.3   1395  GLP1395     0.1859
      7  O1        19.9100   17.1890  104.3070 O.3   1395  GLP1395    -0.1882
      8  N2        22.0400   19.1870  104.2320 N.3   1395  GLP1395    -0.1247
      9  O3        23.3180   18.1420  101.7540 O.3   1395  GLP1395    -0.2186
     10  O4        21.9250   15.8530  100.6360 O.3   1395  GLP1395    -0.2176
     11  O5        21.5300   15.5580  104.2740 O.3   1395  GLP1395    -0.3245
     12  O6        22.0210   13.1590  102.4460 O.3   1395  GLP1395    -0.2675
     13  P         22.0530   11.6170  102.0100 P.3   1395  GLP1395     0.5327
     14  O1P       21.3600   10.8000  103.1480 O.3   1395  GLP1395    -0.1145
     15  O2P       23.5020   11.1560  101.8660 O.3   1395  GLP1395    -0.1145
     16  O3P       21.4470   11.4170  100.6780 O.2   1395  GLP1395    -0.2224
@<TRIPOS>BOND
     1    10     4    1
     2    16    13    2
     3     9     3    1
     4    15    13    1
     5    13    12    1
     6    13    14    1
     7     4     3    1
     8     4     5    1
     9     3     2    1
    10    12     6    1
    11     6     5    1
    12     5    11    1
    13     2     8    1
    14     2     1    1
    15    11     1    1
    16     7     1    1
