@<TRIPOS>MOLECULE
2vhq_ATP_A_1.pdb
 31 33 0 0 0
SMALL
GASTEIGER

@<TRIPOS>ATOM
      1  PG        80.7790   48.7600    2.9690 P.3   1327  ATP1327     0.5373
      2  O1G       81.8470   47.6980    2.8590 O.3   1327  ATP1327    -0.1143
      3  O2G       80.6720   49.6650    1.7570 O.2   1327  ATP1327    -0.2221
      4  O3G       79.4890   48.1180    3.4240 O.3   1327  ATP1327    -0.1143
      5  PB        82.6080   50.3480    4.6640 P.3   1327  ATP1327     0.2277
      6  O1B       82.5020   51.8250    4.9520 O.2   1327  ATP1327    -0.5168
      7  O2B       83.1540   49.4450    5.7370 O.3   1327  ATP1327    -0.4368
      8  O3B       81.1340   49.8260    4.1780 O.3   1327  ATP1327    -0.2258
      9  PA        84.6650   49.0590    3.2810 P.3   1327  ATP1327     0.2189
     10  O1A       85.3560   49.2300    1.9480 O.2   1327  ATP1327    -0.5170
     11  O2A       84.2050   47.6670    3.6580 O.3   1327  ATP1327    -0.4371
     12  O3A       83.4530   50.0930    3.3290 O.3   1327  ATP1327    -0.2700
     13  O5'       85.5930   49.6980    4.4310 O.3   1327  ATP1327    -0.3112
     14  C5'       86.7440   50.4680    4.0960 C.3   1327  ATP1327     0.1813
     15  C4'       86.3780   51.9450    4.0590 C.3   1327  ATP1327     0.1821
     16  O4'       87.0520   52.6430    5.1200 O.3   1327  ATP1327    -0.3135
     17  C3'       86.8060   52.6400    2.7700 C.3   1327  ATP1327     0.2184
     18  O3'       85.8450   52.5040    1.7150 O.3   1327  ATP1327    -0.2174
     19  C2'       86.9980   54.0630    3.2350 C.3   1327  ATP1327     0.2570
     20  O2'       85.7250   54.7050    3.3000 O.3   1327  ATP1327    -0.2130
     21  C1'       87.5470   53.8950    4.6420 C.3   1327  ATP1327     0.3186
     22  N9        89.0210   53.8510    4.5890 N.pl3 1327  ATP1327    -0.1439
     23  C8        89.7630   52.7600    4.3450 C.3   1327  ATP1327     0.3377
     24  N7        91.0790   53.0610    4.3680 N.2   1327  ATP1327    -0.2095
     25  C5        91.1840   54.3670    4.6150 C.2   1327  ATP1327     0.2526
     26  C6        92.2930   55.3180    4.7620 C.2   1327  ATP1327     0.4393
     27  N6        93.5560   54.8750    4.6340 N.pl3 1327  ATP1327     0.2180
     28  N1        92.0040   56.6040    5.0340 N.2   1327  ATP1327     0.0021
     29  C2        90.7300   57.0330    5.1580 C.3   1327  ATP1327     0.5254
     30  N3        89.6570   56.2140    5.0270 N.2   1327  ATP1327    -0.0055
     31  C4        89.8270   54.8930    4.7610 C.2   1327  ATP1327     0.3518
@<TRIPOS>BOND
     1    18    17    1
     2     3     1    2
     3    10     9    2
     4    17    19    1
     5    17    15    1
     6     2     1    1
     7     1     4    1
     8     1     8    1
     9    19    20    1
    10    19    21    1
    11     9    12    1
    12     9    11    1
    13     9    13    1
    14    12     5    1
    15    15    14    1
    16    15    16    1
    17    14    13    1
    18     8     5    1
    19    23    24    1
    20    23    22    1
    21    24    25    2
    22    22    21    1
    23    22    31    1
    24    25    31    1
    25    25    26    1
    26    27    26    1
    27    21    16    1
    28     5     6    2
    29     5     7    1
    30    31    30    2
    31    26    28    2
    32    30    29    1
    33    28    29    1
