@<TRIPOS>MOLECULE
2vht_ATP_A_1.pdb
 31 33 0 0 0
SMALL
GASTEIGER

@<TRIPOS>ATOM
      1  PG        81.1860   49.7870    3.6070 P.3   1330  ATP1330     0.5373
      2  O1G       82.2750   48.8500    4.0780 O.3   1330  ATP1330    -0.1143
      3  O2G       81.0460   49.8390    2.1030 O.2   1330  ATP1330    -0.2221
      4  O3G       79.8720   49.6310    4.3320 O.3   1330  ATP1330    -0.1143
      5  PB        82.5910   51.7040    5.2500 P.3   1330  ATP1330     0.2277
      6  O1B       82.7290   50.5420    6.2020 O.3   1330  ATP1330    -0.4368
      7  O2B       82.1030   53.0350    5.7700 O.2   1330  ATP1330    -0.5168
      8  O3B       81.6600   51.2890    3.9900 O.3   1330  ATP1330    -0.2258
      9  PA        84.8690   50.8590    3.7310 P.3   1330  ATP1330     0.2189
     10  O1A       84.2070   50.6420    2.3870 O.2   1330  ATP1330    -0.5170
     11  O2A       85.1190   49.6540    4.6030 O.3   1330  ATP1330    -0.4371
     12  O3A       84.0340   51.9670    4.5760 O.3   1330  ATP1330    -0.2700
     13  O5'       86.2870   51.5990    3.4820 O.3   1330  ATP1330    -0.3112
     14  C5'       86.8570   52.5070    4.4330 C.3   1330  ATP1330     0.1813
     15  C4'       86.4990   53.9590    4.1100 C.3   1330  ATP1330     0.1821
     16  O4'       87.3320   54.8560    4.8550 O.3   1330  ATP1330    -0.3135
     17  C3'       86.6880   54.2730    2.6360 C.3   1330  ATP1330     0.2184
     18  O3'       85.4620   54.7920    2.1160 O.3   1330  ATP1330    -0.2174
     19  C2'       87.8250   55.2830    2.5590 C.3   1330  ATP1330     0.2570
     20  O2'       87.4800   56.4540    1.8040 O.3   1330  ATP1330    -0.2130
     21  C1'       88.1850   55.6300    4.0030 C.3   1330  ATP1330     0.3186
     22  N9        89.6200   55.2990    4.2440 N.pl3 1330  ATP1330    -0.1439
     23  C8        90.1350   54.0540    4.2710 C.3   1330  ATP1330     0.3377
     24  N7        91.4700   54.0750    4.5010 N.2   1330  ATP1330    -0.2095
     25  C5        91.8400   55.3570    4.6260 C.2   1330  ATP1330     0.2526
     26  C6        93.1130   56.0740    4.8770 C.2   1330  ATP1330     0.4393
     27  N6        94.2700   55.3860    5.0460 N.pl3 1330  ATP1330     0.2180
     28  N1        93.0750   57.4290    4.9340 N.2   1330  ATP1330     0.0021
     29  C2        91.9250   58.1150    4.7690 C.3   1330  ATP1330     0.5254
     30  N3        90.7350   57.5230    4.5370 N.2   1330  ATP1330    -0.0055
     31  C4        90.6210   56.1690    4.4560 C.2   1330  ATP1330     0.3518
@<TRIPOS>BOND
     1    20    19    1
     2     3     1    2
     3    18    17    1
     4    10     9    2
     5    19    17    1
     6    19    21    1
     7    17    15    1
     8    13     9    1
     9    13    14    1
    10     1     8    1
    11     1     2    1
    12     1     4    1
    13     9    12    1
    14     9    11    1
    15     8     5    1
    16    21    22    1
    17    21    16    1
    18    15    14    1
    19    15    16    1
    20    22    23    1
    21    22    31    1
    22    23    24    1
    23    31    30    2
    24    31    25    1
    25    24    25    2
    26    30    29    1
    27    12     5    1
    28    25    26    1
    29    29    28    1
    30    26    28    2
    31    26    27    1
    32     5     7    2
    33     5     6    1
