@<TRIPOS>MOLECULE
2vhu_ADP_A_1.pdb
 27 29 0 0 0
SMALL
GASTEIGER

@<TRIPOS>ATOM
      1  PB        82.5120   49.8610    4.7630 P.3   1301  ADP1301     0.5373
      2  O1B       81.1310   49.4420    4.3190 O.2   1301  ADP1301    -0.2221
      3  O2B       83.1460   48.9390    5.7730 O.3   1301  ADP1301    -0.1143
      4  O3B       82.6320   51.3290    5.1140 O.3   1301  ADP1301    -0.1143
      5  PA        84.6790   48.6610    3.3110 P.3   1301  ADP1301     0.2231
      6  O1A       85.2160   48.7500    1.8980 O.2   1301  ADP1301    -0.5169
      7  O2A       84.2700   47.3040    3.8350 O.3   1301  ADP1301    -0.4370
      8  O3A       83.4100   49.6670    3.4280 O.3   1301  ADP1301    -0.2261
      9  O5'       85.7580   49.3570    4.2970 O.3   1301  ADP1301    -0.3111
     10  C5'       86.7800   50.2400    3.8160 C.3   1301  ADP1301     0.1813
     11  C4'       86.3100   51.6970    3.8160 C.3   1301  ADP1301     0.1821
     12  O4'       87.2270   52.5350    4.5300 O.3   1301  ADP1301    -0.3135
     13  C3'       86.2180   52.2640    2.4110 C.3   1301  ADP1301     0.2184
     14  O3'       85.0000   52.9960    2.3250 O.3   1301  ADP1301    -0.2174
     15  C2'       87.3930   53.2200    2.2670 C.3   1301  ADP1301     0.2570
     16  O2'       87.0530   54.4010    1.5250 O.3   1301  ADP1301    -0.2130
     17  C1'       87.8050   53.5480    3.6950 C.3   1301  ADP1301     0.3186
     18  N9        89.2870   53.5410    3.8460 N.pl3 1301  ADP1301    -0.1439
     19  C8        90.0690   52.4450    3.8510 C.3   1301  ADP1301     0.3377
     20  N7        91.3730   52.7790    4.0150 N.2   1301  ADP1301    -0.2095
     21  C5        91.4510   54.1160    4.1250 C.2   1301  ADP1301     0.2526
     22  C6        92.5330   55.1170    4.3210 C.2   1301  ADP1301     0.4393
     23  N6        93.8320   54.7440    4.4290 N.pl3 1301  ADP1301     0.2180
     24  N1        92.1810   56.4220    4.3850 N.2   1301  ADP1301     0.0021
     25  C2        90.8950   56.8120    4.2740 C.3   1301  ADP1301     0.5254
     26  N3        89.8670   55.9570    4.0960 N.2   1301  ADP1301    -0.0055
     27  C4        90.0700   54.6160    4.0150 C.2   1301  ADP1301     0.3518
@<TRIPOS>BOND
     1    16    15    1
     2     6     5    2
     3    15    13    1
     4    15    17    1
     5    14    13    1
     6    13    11    1
     7     5     8    1
     8     5     7    1
     9     5     9    1
    10     8     1    1
    11    17    18    1
    12    17    12    1
    13    10    11    1
    14    10     9    1
    15    11    12    1
    16    18    19    1
    17    18    27    1
    18    19    20    1
    19    27    26    2
    20    27    21    1
    21    20    21    2
    22    26    25    1
    23    21    22    1
    24    25    24    1
    25     2     1    2
    26    22    24    2
    27    22    23    1
    28     1     4    1
    29     1     3    1
