@<TRIPOS>MOLECULE
2vhv_NAI_A_1.pdb
 44 48 0 0 0
SMALL
GASTEIGER

@<TRIPOS>ATOM
      1  PA       -33.2330   31.7110   17.4630 P.3   1372  NAI1372     0.2189
      2  O1A      -34.4120   31.3100   18.3160 O.3   1372  NAI1372    -0.4371
      3  O2A      -31.9660   32.2860   18.0450 O.2   1372  NAI1372    -0.5170
      4  O5B      -33.7530   32.8170   16.4210 O.3   1372  NAI1372    -0.3112
      5  C5B      -34.9480   32.6500   15.6440 C.3   1372  NAI1372     0.1813
      6  C4B      -35.7160   33.9670   15.6070 C.3   1372  NAI1372     0.1821
      7  O4B      -36.7580   33.9140   14.6280 O.3   1372  NAI1372    -0.3135
      8  C3B      -36.3760   34.2250   16.9560 C.3   1372  NAI1372     0.2184
      9  O3B      -35.8740   35.4490   17.4990 O.3   1372  NAI1372    -0.2174
     10  C2B      -37.8690   34.2930   16.6550 C.3   1372  NAI1372     0.2570
     11  O2B      -38.5550   35.3060   17.3850 O.3   1372  NAI1372    -0.2130
     12  C1B      -37.9010   34.5990   15.1710 C.3   1372  NAI1372     0.3186
     13  N9A      -39.2220   34.2290   14.5680 N.pl3 1372  NAI1372    -0.1439
     14  C8A      -39.9750   33.1470   14.8590 C.3   1372  NAI1372     0.3377
     15  N7A      -41.1180   33.1380   14.1440 N.2   1372  NAI1372    -0.2095
     16  C5A      -41.1160   34.2350   13.3710 C.2   1372  NAI1372     0.2526
     17  C6A      -42.0310   34.8440   12.3750 C.2   1372  NAI1372     0.4393
     18  N6A      -43.1900   34.2340   12.0470 N.pl3 1372  NAI1372     0.2180
     19  N1A      -41.6570   36.0110   11.7900 N.2   1372  NAI1372     0.0021
     20  C2A      -40.4920   36.6250   12.1050 C.3   1372  NAI1372     0.5254
     21  N3A      -39.6180   36.1320   13.0010 N.2   1372  NAI1372    -0.0055
     22  C4A      -39.8670   34.9570   13.6510 C.2   1372  NAI1372     0.3518
     23  O3       -32.8840   30.5260   16.4630 O.3   1372  NAI1372    -0.2703
     24  PN       -31.4480   30.4830   15.7600 P.3   1372  NAI1372     0.2189
     25  O1N      -30.5670   29.7670   16.7470 O.3   1372  NAI1372    -0.4371
     26  O2N      -31.0650   31.8580   15.2760 O.2   1372  NAI1372    -0.5170
     27  O5D      -31.7500   29.5690   14.4680 O.3   1372  NAI1372    -0.3112
     28  C5D      -32.5400   30.0020   13.3570 C.3   1372  NAI1372     0.1813
     29  C4D      -32.5840   28.8730   12.3350 C.3   1372  NAI1372     0.1799
     30  O4D      -31.2720   28.5770   11.8500 O.3   1372  NAI1372    -0.3327
     31  C3D      -33.0880   27.5580   12.9300 C.3   1372  NAI1372     0.2158
     32  O3D      -34.1470   27.0230   12.1010 O.3   1372  NAI1372    -0.2175
     33  C2D      -31.8610   26.6610   12.9420 C.3   1372  NAI1372     0.2309
     34  O2D      -32.1540   25.2580   12.9150 O.3   1372  NAI1372    -0.2158
     35  C1D      -31.1630   27.1660   11.6930 C.3   1372  NAI1372     0.2263
     36  N1N      -29.7700   26.7400   11.5750 N.pl3 1372  NAI1372    -0.2787
     37  C2N      -29.3380   26.2570   10.3800 C.3   1372  NAI1372     0.1244
     38  C3N      -28.0160   25.8280   10.2090 C.2   1372  NAI1372     0.0544
     39  C7N      -27.5040   25.3120    8.8830 C.2   1372  NAI1372     0.2818
     40  O7N      -26.4250   24.7400    8.8150 O.2   1372  NAI1372    -0.2670
     41  N7N      -28.2020   25.5200    7.7630 N.am  1372  NAI1372    -0.0839
     42  C4N      -27.1500   25.9140   11.3000 C.2   1372  NAI1372     0.0033
     43  C5N      -27.6160   26.4170   12.5190 C.2   1372  NAI1372     0.0157
     44  C6N      -28.9430   26.8380   12.6390 C.2   1372  NAI1372     0.0633
@<TRIPOS>BOND
     1    41    39   am
     2    40    39    2
     3    39    38    1
     4    38    37    1
     5    38    42    2
     6    37    36    1
     7    42    43    1
     8    36    35    1
     9    36    44    1
    10    35    30    1
    11    35    33    1
    12    19    20    1
    13    19    17    2
    14    30    29    1
    15    18    17    1
    16    32    31    1
    17    20    21    1
    18    29    31    1
    19    29    28    1
    20    17    16    1
    21    43    44    2
    22    34    33    1
    23    31    33    1
    24    21    22    2
    25    28    27    1
    26    16    22    1
    27    16    15    2
    28    22    13    1
    29    15    14    1
    30    27    24    1
    31    13    14    1
    32    13    12    1
    33     7    12    1
    34     7     6    1
    35    12    10    1
    36    26    24    2
    37     6     5    1
    38     6     8    1
    39     5     4    1
    40    24    23    1
    41    24    25    1
    42     4     1    1
    43    23     1    1
    44    10     8    1
    45    10    11    1
    46     8     9    1
    47     1     3    2
    48     1     2    1
