@<TRIPOS>MOLECULE
2vhw_NAI_A_1.pdb
 44 48 0 0 0
SMALL
GASTEIGER

@<TRIPOS>ATOM
      1  PA       -54.5640   60.1980    9.9640 P.3   1373  NAI1373     0.2189
      2  O1A      -55.4730   61.4170    9.9480 O.2   1373  NAI1373    -0.5170
      3  O2A      -55.1760   58.8800   10.3420 O.3   1373  NAI1373    -0.4371
      4  O5B      -53.3660   60.5240   10.9800 O.3   1373  NAI1373    -0.3112
      5  C5B      -52.5120   61.6460   10.8450 C.3   1373  NAI1373     0.1813
      6  C4B      -51.9920   61.9860   12.2310 C.3   1373  NAI1373     0.1821
      7  O4B      -51.0120   63.0040   12.0990 O.3   1373  NAI1373    -0.3135
      8  C3B      -53.0410   62.5190   13.2100 C.3   1373  NAI1373     0.2184
      9  O3B      -53.2270   61.6270   14.3230 O.3   1373  NAI1373    -0.2174
     10  C2B      -52.5010   63.8810   13.6170 C.3   1373  NAI1373     0.2570
     11  O2B      -52.7420   64.3090   14.9650 O.3   1373  NAI1373    -0.2130
     12  C1B      -51.0320   63.7000   13.3330 C.3   1373  NAI1373     0.3186
     13  N9A      -50.3430   64.9880   13.3230 N.pl3 1373  NAI1373    -0.1439
     14  C8A      -50.7860   66.1530   12.8050 C.3   1373  NAI1373     0.3377
     15  N7A      -49.8780   67.1310   13.0280 N.2   1373  NAI1373    -0.2095
     16  C5A      -48.8430   66.6060   13.7230 C.2   1373  NAI1373     0.2526
     17  C6A      -47.5540   67.0660   14.3100 C.2   1373  NAI1373     0.4393
     18  N6A      -47.1390   68.3360   14.1860 N.pl3 1373  NAI1373     0.2180
     19  N1A      -46.7660   66.1720   14.9540 N.2   1373  NAI1373     0.0021
     20  C2A      -47.1360   64.8890   15.0840 C.3   1373  NAI1373     0.5254
     21  N3A      -48.2870   64.4220   14.5990 N.2   1373  NAI1373    -0.0055
     22  C4A      -49.1620   65.1960   13.9200 C.2   1373  NAI1373     0.3518
     23  O3       -53.7840   60.1980    8.5570 O.3   1373  NAI1373    -0.2703
     24  PN       -53.2050   58.9070    7.7700 P.3   1373  NAI1373     0.2189
     25  O1N      -54.3220   58.1890    7.1000 O.2   1373  NAI1373    -0.5170
     26  O2N      -52.3220   58.1690    8.7750 O.3   1373  NAI1373    -0.4371
     27  O5D      -52.2970   59.5990    6.6640 O.3   1373  NAI1373    -0.3112
     28  C5D      -51.0630   60.2800    6.8590 C.3   1373  NAI1373     0.1813
     29  C4D      -50.5710   60.7150    5.4790 C.3   1373  NAI1373     0.1799
     30  O4D      -50.2000   59.5850    4.6670 O.3   1373  NAI1373    -0.3327
     31  C3D      -51.6680   61.4380    4.6800 C.3   1373  NAI1373     0.2158
     32  O3D      -51.1230   62.6440    4.1410 O.3   1373  NAI1373    -0.2175
     33  C2D      -52.0320   60.4660    3.5780 C.3   1373  NAI1373     0.2309
     34  O2D      -52.6120   61.1080    2.4400 O.3   1373  NAI1373    -0.2158
     35  C1D      -50.6770   59.7990    3.3280 C.3   1373  NAI1373     0.2263
     36  N1N      -50.7200   58.5660    2.5220 N.pl3 1373  NAI1373    -0.2787
     37  C2N      -49.7390   58.4050    1.6230 C.3   1373  NAI1373     0.1244
     38  C3N      -49.6950   57.2860    0.8080 C.2   1373  NAI1373     0.0544
     39  C7N      -48.5540   57.1170   -0.1420 C.2   1373  NAI1373     0.2818
     40  O7N      -48.5990   56.2240   -0.9700 O.2   1373  NAI1373    -0.2670
     41  N7N      -47.4910   57.9140   -0.0240 N.am  1373  NAI1373    -0.0839
     42  C4N      -50.6770   56.3150    0.9280 C.2   1373  NAI1373     0.0033
     43  C5N      -51.6770   56.4990    1.8690 C.2   1373  NAI1373     0.0157
     44  C6N      -51.6720   57.6360    2.6600 C.2   1373  NAI1373     0.0633
@<TRIPOS>BOND
     1    40    39    2
     2    39    41   am
     3    39    38    1
     4    38    42    2
     5    38    37    1
     6    42    43    1
     7    37    36    1
     8    43    44    2
     9    34    33    1
    10    36    44    1
    11    36    35    1
    12    35    33    1
    13    35    30    1
    14    33    31    1
    15    32    31    1
    16    30    29    1
    17    31    29    1
    18    29    28    1
    19    27    28    1
    20    27    24    1
    21    25    24    2
    22    24    23    1
    23    24    26    1
    24    23     1    1
    25     2     1    2
    26     1     3    1
    27     1     4    1
    28     5     4    1
    29     5     6    1
    30     7     6    1
    31     7    12    1
    32     6     8    1
    33    14    15    1
    34    14    13    1
    35    15    16    2
    36     8    10    1
    37     8     9    1
    38    13    12    1
    39    13    22    1
    40    12    10    1
    41    10    11    1
    42    16    22    1
    43    16    17    1
    44    22    21    2
    45    18    17    1
    46    17    19    2
    47    21    20    1
    48    19    20    1
