@<TRIPOS>MOLECULE
2vhx_NAD_E_1.pdb
 44 48 0 0 0
SMALL
GASTEIGER

@<TRIPOS>ATOM
      1  PA       -15.1640   41.6010  -16.9960 P.3   1375  NAD1375     0.2189
      2  O1A      -14.3120   42.6620  -16.4580 O.3   1375  NAD1375    -0.4371
      3  O2A      -16.0180   42.1360  -18.0930 O.2   1375  NAD1375    -0.5170
      4  O5B      -16.0250   41.0270  -15.7480 O.3   1375  NAD1375    -0.3112
      5  C5B      -15.3720   40.5370  -14.6040 C.3   1375  NAD1375     0.1813
      6  C4B      -16.3550   40.7550  -13.4710 C.3   1375  NAD1375     0.1821
      7  O4B      -15.9210   40.0700  -12.3160 O.3   1375  NAD1375    -0.3135
      8  C3B      -16.5420   42.2290  -13.1370 C.3   1375  NAD1375     0.2184
      9  O3B      -17.9020   42.5930  -13.3210 O.3   1375  NAD1375    -0.2174
     10  C2B      -16.1820   42.3020  -11.6620 C.3   1375  NAD1375     0.2570
     11  O2B      -16.9840   43.1990  -10.9000 O.3   1375  NAD1375    -0.2130
     12  C1B      -16.3710   40.8490  -11.2390 C.3   1375  NAD1375     0.3186
     13  N9A      -15.6520   40.5050  -10.0190 N.pl3 1375  NAD1375    -0.1439
     14  C8A      -14.3390   40.7920   -9.7380 C.3   1375  NAD1375     0.3377
     15  N7A      -14.0660   40.2850   -8.5130 N.2   1375  NAD1375    -0.2095
     16  C5A      -15.1620   39.6970   -8.0130 C.2   1375  NAD1375     0.2526
     17  C6A      -15.3920   39.0570   -6.7940 C.2   1375  NAD1375     0.4393
     18  N6A      -14.3880   38.9820   -5.9090 N.pl3 1375  NAD1375     0.2180
     19  N1A      -16.6520   38.5230   -6.5350 N.2   1375  NAD1375     0.0021
     20  C2A      -17.6460   38.6350   -7.5140 C.3   1375  NAD1375     0.5254
     21  N3A      -17.4010   39.2890   -8.7090 N.2   1375  NAD1375    -0.0055
     22  C4A      -16.1810   39.8160   -8.9540 C.2   1375  NAD1375     0.3518
     23  O3       -14.2370   40.4230  -17.4920 O.3   1375  NAD1375    -0.2703
     24  PN       -14.5810   39.3330  -18.6080 P.3   1375  NAD1375     0.2189
     25  O1N      -14.2090   39.8120  -19.9850 O.2   1375  NAD1375    -0.5170
     26  O2N      -15.9470   38.7940  -18.3320 O.3   1375  NAD1375    -0.4371
     27  O5D      -13.5430   38.1620  -18.3120 O.3   1375  NAD1375    -0.3112
     28  C5D      -13.7260   37.1760  -17.3330 C.3   1375  NAD1375     0.1813
     29  C4D      -12.5710   36.1860  -17.3220 C.3   1375  NAD1375     0.1799
     30  O4D      -12.7390   35.2930  -18.4100 O.3   1375  NAD1375    -0.3327
     31  C3D      -11.2030   36.8500  -17.4750 C.3   1375  NAD1375     0.2158
     32  O3D      -10.2270   36.1880  -16.6970 O.3   1375  NAD1375    -0.2175
     33  C2D      -10.8970   36.5490  -18.9130 C.3   1375  NAD1375     0.2309
     34  O2D       -9.5190   36.6240  -19.1820 O.3   1375  NAD1375    -0.2158
     35  C1D      -11.4770   35.1420  -19.0150 C.3   1375  NAD1375     0.2263
     36  N1N      -11.4530   34.5970  -20.3850 N.pl3 1375  NAD1375    -0.2787
     37  C2N      -10.9890   33.3180  -20.5170 C.3   1375  NAD1375     0.1244
     38  C3N      -10.8890   32.7170  -21.7730 C.2   1375  NAD1375     0.0544
     39  C7N      -10.6600   31.2330  -21.8430 C.2   1375  NAD1375     0.2818
     40  O7N      -10.5880   30.6350  -23.1000 O.2   1375  NAD1375    -0.2670
     41  N7N      -10.5740   30.4960  -20.7320 N.am  1375  NAD1375    -0.0839
     42  C4N      -11.2800   33.4450  -22.9180 C.2   1375  NAD1375     0.0033
     43  C5N      -11.7700   34.7520  -22.7590 C.2   1375  NAD1375     0.0157
     44  C6N      -11.8470   35.3240  -21.4840 C.2   1375  NAD1375     0.0633
@<TRIPOS>BOND
     1    40    39    2
     2    42    43    1
     3    42    38    2
     4    43    44    2
     5    39    38    1
     6    39    41   am
     7    38    37    1
     8    44    36    1
     9    37    36    1
    10    36    35    1
    11    25    24    2
    12    34    33    1
    13    35    33    1
    14    35    30    1
    15    33    31    1
    16    24    26    1
    17    24    27    1
    18    24    23    1
    19    30    29    1
    20    27    28    1
    21     3     1    2
    22    23     1    1
    23    31    29    1
    24    31    32    1
    25    28    29    1
    26     1     2    1
    27     1     4    1
    28     4     5    1
    29     5     6    1
    30     6     8    1
    31     6     7    1
    32     9     8    1
    33     8    10    1
    34     7    12    1
    35    10    12    1
    36    10    11    1
    37    12    13    1
    38    13    14    1
    39    13    22    1
    40    14    15    1
    41    22    21    2
    42    22    16    1
    43    21    20    1
    44    15    16    2
    45    16    17    1
    46    20    19    1
    47    17    19    2
    48    17    18    1
