@<TRIPOS>MOLECULE
2vhz_NAI_A_1.pdb
 44 48 0 0 0
SMALL
GASTEIGER

@<TRIPOS>ATOM
      1  PA        17.6370   -3.4700    1.8630 P.3   1372  NAI1372     0.2189
      2  O1A       16.8860   -4.1230    0.7570 O.2   1372  NAI1372    -0.5170
      3  O2A       16.9310   -2.8770    3.0770 O.3   1372  NAI1372    -0.4371
      4  O5B       18.5550   -2.3200    1.2040 O.3   1372  NAI1372    -0.3112
      5  C5B       19.3920   -2.5160    0.0550 C.3   1372  NAI1372     0.1813
      6  C4B       19.5170   -1.1820   -0.6850 C.3   1372  NAI1372     0.1821
      7  O4B       20.4890   -1.2970   -1.7350 O.3   1372  NAI1372    -0.3135
      8  C3B       18.1890   -0.7890   -1.3540 C.3   1372  NAI1372     0.2184
      9  O3B       17.7970    0.4810   -0.8560 O.3   1372  NAI1372    -0.2174
     10  C2B       18.5020   -0.7520   -2.8480 C.3   1372  NAI1372     0.2570
     11  O2B       17.8160    0.2470   -3.6370 O.3   1372  NAI1372    -0.2130
     12  C1B       20.0020   -0.5410   -2.8310 C.3   1372  NAI1372     0.3186
     13  N9A       20.6180   -0.9750   -4.1000 N.pl3 1372  NAI1372    -0.1439
     14  C8A       20.3610   -2.1110   -4.8090 C.3   1372  NAI1372     0.3377
     15  N7A       21.1320   -2.1330   -5.9180 N.2   1372  NAI1372    -0.2095
     16  C5A       21.8840   -1.0110   -5.9160 C.2   1372  NAI1372     0.2526
     17  C6A       22.8960   -0.4110   -6.7960 C.2   1372  NAI1372     0.4393
     18  N6A       23.2620   -1.0560   -7.9430 N.pl3 1372  NAI1372     0.2180
     19  N1A       23.4280    0.7770   -6.4160 N.2   1372  NAI1372     0.0021
     20  C2A       23.0700    1.4380   -5.2860 C.3   1372  NAI1372     0.5254
     21  N3A       22.1510    0.9390   -4.4240 N.2   1372  NAI1372    -0.0055
     22  C4A       21.5500   -0.2510   -4.7000 C.2   1372  NAI1372     0.3518
     23  O3        18.7740   -4.5150    2.3060 O.3   1372  NAI1372    -0.2703
     24  PN        19.4770   -4.6050    3.7120 P.3   1372  NAI1372     0.2189
     25  O1N       18.6100   -5.3720    4.6760 O.3   1372  NAI1372    -0.4371
     26  O2N       20.0810   -3.2950    4.1430 O.2   1372  NAI1372    -0.5170
     27  O5D       20.6870   -5.5710    3.3150 O.3   1372  NAI1372    -0.3112
     28  C5D       21.8960   -5.1770    2.6580 C.3   1372  NAI1372     0.1813
     29  C4D       22.8540   -6.3670    2.6500 C.3   1372  NAI1372     0.1799
     30  O4D       23.3180   -6.6300    3.9880 O.3   1372  NAI1372    -0.3327
     31  C3D       22.1830   -7.6840    2.1910 C.3   1372  NAI1372     0.2158
     32  O3D       23.0550   -8.4700    1.3470 O.3   1372  NAI1372    -0.2175
     33  C2D       22.0030   -8.4420    3.4870 C.3   1372  NAI1372     0.2309
     34  O2D       21.8030   -9.8450    3.2700 O.3   1372  NAI1372    -0.2158
     35  C1D       23.3160   -8.0510    4.1420 C.3   1372  NAI1372     0.2263
     36  N1N       23.5030   -8.4770    5.5320 N.pl3 1372  NAI1372    -0.2787
     37  C2N       24.7180   -8.9520    5.8600 C.3   1372  NAI1372     0.1244
     38  C3N       24.9980   -9.3860    7.1580 C.2   1372  NAI1372     0.0544
     39  C7N       26.3770   -9.8830    7.5040 C.2   1372  NAI1372     0.2818
     40  O7N       26.5330  -10.4950    8.5520 O.2   1372  NAI1372    -0.2670
     41  N7N       27.4140   -9.6220    6.6690 N.am  1372  NAI1372    -0.0839
     42  C4N       23.9820   -9.3370    8.1290 C.2   1372  NAI1372     0.0033
     43  C5N       22.7310   -8.8330    7.7640 C.2   1372  NAI1372     0.0157
     44  C6N       22.5050   -8.4040    6.4480 C.2   1372  NAI1372     0.0633
@<TRIPOS>BOND
     1    18    17    1
     2    17    19    2
     3    17    16    1
     4    19    20    1
     5    15    16    2
     6    15    14    1
     7    16    22    1
     8    20    21    1
     9    14    13    1
    10    22    21    2
    11    22    13    1
    12    13    12    1
    13    11    10    1
    14    10    12    1
    15    10     8    1
    16    12     7    1
    17     7     6    1
    18     8     9    1
    19     8     6    1
    20     6     5    1
    21     5     4    1
    22     2     1    2
    23     4     1    1
    24    32    31    1
    25     1    23    1
    26     1     3    1
    27    31    29    1
    28    31    33    1
    29    23    24    1
    30    29    28    1
    31    29    30    1
    32    28    27    1
    33    34    33    1
    34    27    24    1
    35    33    35    1
    36    24    26    2
    37    24    25    1
    38    30    35    1
    39    35    36    1
    40    36    37    1
    41    36    44    1
    42    37    38    1
    43    44    43    2
    44    41    39   am
    45    38    39    1
    46    38    42    2
    47    39    40    2
    48    43    42    1
