@<TRIPOS>MOLECULE
2vi0_BGC_A_1.pdb
 12 12 0 0 0
SMALL
GASTEIGER

@<TRIPOS>ATOM
      1  C2        10.3900   38.2910   12.3170 C.3   1284  BGC1284     0.2434
      2  C3        11.4820   37.8460   13.2840 C.3   1284  BGC1284     0.2199
      3  C4        11.9500   38.9550   14.2380 C.3   1284  BGC1284     0.2144
      4  C5        10.7790   39.8080   14.7520 C.3   1284  BGC1284     0.1836
      5  C6        11.2470   41.1330   15.3700 C.3   1284  BGC1284     0.2142
      6  C1         9.2790   39.0510   13.0550 C.3   1284  BGC1284     0.3024
      7  O1         8.2840   39.5380   12.1650 O.3   1284  BGC1284    -0.1869
      8  O2         9.9160   37.1310   11.6590 O.3   1284  BGC1284    -0.2148
      9  O3        12.5280   37.3850   12.4600 O.3   1284  BGC1284    -0.2174
     10  O4        12.6810   38.4320   15.3440 O.3   1284  BGC1284    -0.2176
     11  O5         9.8670   40.1450   13.7210 O.3   1284  BGC1284    -0.3236
     12  O6        12.3480   40.9010   16.2280 O.3   1284  BGC1284    -0.2176
@<TRIPOS>BOND
     1     8     1    1
     2     7     6    1
     3     1     6    1
     4     1     2    1
     5     9     2    1
     6     6    11    1
     7     2     3    1
     8    11     4    1
     9     3     4    1
    10     3    10    1
    11     4     5    1
    12     5    12    1
