@<TRIPOS>MOLECULE
2vi0_VAM_A_1.pdb
 24 25 0 0 0
SMALL
GASTEIGER

@<TRIPOS>ATOM
      1  O10       23.1590   30.4310   19.5240 O.3   1283  VAM1283    -0.2176
      2  C12       23.5760   30.1510   18.1790 C.3   1283  VAM1283     0.2141
      3  C11       23.6010   31.4630   17.3910 C.3   1283  VAM1283     0.1803
      4  O11       22.2990   32.0940   17.4190 O.3   1283  VAM1283    -0.3257
      5  C7        22.2520   33.2980   16.6420 C.3   1283  VAM1283     0.2695
      6  O7        21.0450   33.6930   15.9870 O.3   1283  VAM1283    -0.3259
      7  CM        20.1660   32.6060   15.6540 C.3   1283  VAM1283     0.1769
      8  C10       24.6620   32.4340   17.9330 C.3   1283  VAM1283     0.1804
      9  O9        25.8930   31.6900   17.9110 O.3   1283  VAM1283    -0.3257
     10  C9        24.7140   33.7230   17.0990 C.3   1283  VAM1283     0.2167
     11  C8        23.3180   34.3530   16.9990 C.3   1283  VAM1283     0.2404
     12  O8        23.3240   35.4550   16.0760 O.3   1283  VAM1283    -0.2149
     13  O1        25.6110   34.6780   17.6990 O.3   1283  VAM1283    -0.2175
     14  O6        29.7010   30.0930   20.2760 O.3   1283  VAM1283    -0.2192
     15  C2        29.8620   34.0560   17.2650 C.3   1283  VAM1283     0.2125
     16  O2        29.2130   35.2820   16.9600 O.3   1283  VAM1283    -0.2177
     17  C3        29.0710   33.2420   18.2830 C.3   1283  VAM1283     0.1639
     18  O3        27.8760   32.7630   17.6900 O.3   1283  VAM1283    -0.3274
     19  C4        29.8350   32.0240   18.7810 C.3   1283  VAM1283     0.1208
     20  C5        29.0000   31.2560   19.8090 C.3   1283  VAM1283     0.2003
     21  C6        27.6700   30.8770   19.1780 C.3   1283  VAM1283     0.2389
     22  C70       27.0090   32.1220   18.6300 C.3   1283  VAM1283     0.2694
     23  O5        26.8000   30.2700   20.1360 O.3   1283  VAM1283    -0.2149
     24  S10       31.3460   32.5750   19.5320 S.3   1283  VAM1283    -0.0776
@<TRIPOS>BOND
     1     7     6    1
     2     6     5    1
     3    12    11    1
     4     5    11    1
     5     5     4    1
     6    16    15    1
     7    11    10    1
     8    10    13    1
     9    10     8    1
    10    15    17    1
    11     3     4    1
    12     3     8    1
    13     3     2    1
    14    18    17    1
    15    18    22    1
    16     9     8    1
    17     9    22    1
    18     2     1    1
    19    17    19    1
    20    22    21    1
    21    19    24    1
    22    19    20    1
    23    21    20    1
    24    21    23    1
    25    20    14    1
