@<TRIPOS>MOLECULE
2vi5_Y19_A_1.pdb
 23 23 0 0 0
SMALL
GASTEIGER

@<TRIPOS>ATOM
      1  O2        10.1130   10.0660  -15.1780 O.2   201  Y19201     -0.1745
      2  C2        10.0010    8.9590  -15.7480 C.1   201  Y19201      0.3663
      3  N3         8.9900    8.7480  -16.6240 N.2   201  Y19201     -0.2348
      4  C4         8.8320    7.5730  -17.2710 C.1   201  Y19201      0.2214
      5  O4         7.8770    7.4210  -18.0650 O.2   201  Y19201     -0.2111
      6  N1        10.9030    7.9910  -15.4820 N.2   201  Y19201     -0.2927
      7  C6        10.8500    6.7680  -16.0670 C.2   201  Y19201      0.2286
      8  C5         9.7490    6.4350  -17.0130 C.3   201  Y19201      0.2814
      9  N13       10.1990    5.7750  -18.2340 N.am  201  Y19201     -0.1807
     10  C14        9.7830    4.5470  -18.5710 C.2   201  Y19201      0.2428
     11  C15        8.8240    3.8310  -17.6400 C.3   201  Y19201      0.0869
     12  C16        7.4430    3.6950  -18.2480 C.3   201  Y19201      0.0101
     13  O23       10.1620    3.9920  -19.5880 O.2   201  Y19201     -0.2733
     14  N7        11.7790    5.8320  -15.7370 N.pl3 201  Y19201     -0.2074
     15  C8        12.8640    6.1340  -14.8120 C.3   201  Y19201      0.1501
     16  C9        12.4450    5.9120  -13.3620 C.3   201  Y19201      0.2063
     17  O9        11.6230    6.9950  -12.9160 O.3   201  Y19201     -0.2184
     18  C10       13.6870    5.8490  -12.4760 C.3   201  Y19201      0.2166
     19  O10       14.5910    6.9060  -12.8280 O.3   201  Y19201     -0.2175
     20  C11       14.3880    4.4930  -12.5900 C.3   201  Y19201      0.2175
     21  O11       13.5200    3.4550  -12.1140 O.3   201  Y19201     -0.2175
     22  C12       15.7070    4.4590  -11.8220 C.3   201  Y19201      0.2175
     23  O12       15.4770    4.6080  -10.4170 O.3   201  Y19201     -0.2175
@<TRIPOS>BOND
     1    13    10    2
     2    10     9   am
     3    10    11    1
     4    12    11    1
     5     9     8    1
     6     5     4    2
     7     4     8    1
     8     4     3    2
     9     8     7    1
    10     3     2    2
    11     7    14    1
    12     7     6    2
    13     2     6    2
    14     2     1    2
    15    14    15    1
    16    15    16    1
    17    16    17    1
    18    16    18    1
    19    19    18    1
    20    20    18    1
    21    20    21    1
    22    20    22    1
    23    22    23    1
