@<TRIPOS>MOLECULE
2vi8_PLP_A_1.pdb
 15 15 0 0 0
SMALL
GASTEIGER

@<TRIPOS>ATOM
      1  N1         9.3970    9.3900   22.9540 N.2   1406  PLP1406    -0.2458
      2  C2        10.0640   10.3560   22.2230 C.2   1406  PLP1406     0.0942
      3  C2A       11.3570   10.9310   22.7430 C.3   1406  PLP1406     0.0552
      4  C3         9.5370   10.7990   21.0070 C.2   1406  PLP1406     0.1899
      5  O3        10.1540   11.6600   20.3710 O.2   1406  PLP1406    -0.2898
      6  C4         8.3330   10.2630   20.5150 C.3   1406  PLP1406     0.0852
      7  C4A        7.8050   10.7440   19.1810 C.3   1406  PLP1406     0.0127
      8  C5         7.6720    9.2800   21.2860 C.2   1406  PLP1406     0.0118
      9  C6         8.2090    8.8620   22.5000 C.2   1406  PLP1406     0.0929
     10  C5A        6.3590    8.6560   20.9030 C.3   1406  PLP1406     0.1779
     11  O4P        6.1840    7.8970   19.7000 O.3   1406  PLP1406    -0.2656
     12  P          4.6970    7.5680   19.1740 P.3   1406  PLP1406     0.5329
     13  O1P        3.9950    6.8920   20.2980 O.3   1406  PLP1406    -0.1145
     14  O2P        4.1390    8.9030   18.8370 O.3   1406  PLP1406    -0.1145
     15  O3P        4.9900    6.7160   18.0040 O.2   1406  PLP1406    -0.2224
@<TRIPOS>BOND
     1    15    12    2
     2    14    12    1
     3    12    11    1
     4    12    13    1
     5     7     6    1
     6    11    10    1
     7     5     4    2
     8     6     4    1
     9     6     8    1
    10    10     8    1
    11     4     2    1
    12     8     9    2
    13     2     3    1
    14     2     1    2
    15     9     1    1
