@<TRIPOS>MOLECULE
2via_PLP_A_1.pdb
 15 15 0 0 0
SMALL
GASTEIGER

@<TRIPOS>ATOM
      1  N1         9.6770    9.2340   22.3740 N.ar  1406  PLP1406    -0.2452
      2  C2         9.9940   10.5130   21.9650 C.ar  1406  PLP1406     0.0978
      3  C2A       11.3290   11.0950   22.3480 C.3   1406  PLP1406     0.0555
      4  C3         9.0790   11.2370   21.1910 C.ar  1406  PLP1406     0.2049
      5  O3         9.3870   12.5130   20.7730 O.3   1406  PLP1406    -0.2857
      6  C4         7.8310   10.6580   20.8550 C.ar  1406  PLP1406     0.0182
      7  C4A        6.8390   11.4460   20.0280 C.3   1406  PLP1406     0.0342
      8  C5         7.5310    9.3520   21.3080 C.ar  1406  PLP1406     0.0261
      9  C6         8.4580    8.6500   22.0700 C.ar  1406  PLP1406     0.0965
     10  C5A        6.1440    8.7500   21.1750 C.3   1406  PLP1406     0.1815
     11  O4P        6.0430    8.1020   19.9260 O.3   1406  PLP1406    -0.2653
     12  P          4.5810    7.6940   19.3490 P.3   1406  PLP1406     0.5329
     13  O1P        3.8040    7.0440   20.4810 O.3   1406  PLP1406    -0.1145
     14  O2P        3.9460    8.9930   18.9090 O.3   1406  PLP1406    -0.1145
     15  O3P        4.8130    6.7390   18.2100 O.2   1406  PLP1406    -0.2224
@<TRIPOS>BOND
     1    15    12    2
     2    14    12    1
     3    12    11    1
     4    12    13    1
     5    11    10    1
     6     7     6    1
     7     5     4    1
     8     6     4   ar
     9     6     8   ar
    10    10     8    1
    11     4     2   ar
    12     8     9   ar
    13     2     3    1
    14     2     1   ar
    15     9     1   ar
