@<TRIPOS>MOLECULE
2vib_PLP_A_1.pdb
 15 15 0 0 0
SMALL
GASTEIGER

@<TRIPOS>ATOM
      1  N1         9.6680    9.2530   22.5390 N.ar  1406  PLP1406    -0.2452
      2  C2         9.9980   10.5160   22.0880 C.ar  1406  PLP1406     0.0978
      3  C2A       11.3490   11.0940   22.4210 C.3   1406  PLP1406     0.0555
      4  C3         9.0740   11.2310   21.3280 C.ar  1406  PLP1406     0.2049
      5  O3         9.3870   12.4840   20.8720 O.3   1406  PLP1406    -0.2857
      6  C4         7.8210   10.6740   21.0290 C.ar  1406  PLP1406     0.0182
      7  C4A        6.8160   11.4620   20.2120 C.3   1406  PLP1406     0.0342
      8  C5         7.5160    9.3860   21.5040 C.ar  1406  PLP1406     0.0261
      9  C6         8.4430    8.6830   22.2540 C.ar  1406  PLP1406     0.0965
     10  C5A        6.1770    8.7320   21.2420 C.3   1406  PLP1406     0.1815
     11  O4P        6.1400    8.0610   20.0150 O.3   1406  PLP1406    -0.2653
     12  P          4.6990    7.6970   19.3760 P.3   1406  PLP1406     0.5329
     13  O1P        3.8660    6.9370   20.3790 O.3   1406  PLP1406    -0.1145
     14  O2P        4.0140    9.0090   19.0620 O.3   1406  PLP1406    -0.1145
     15  O3P        4.9620    6.8740   18.1480 O.2   1406  PLP1406    -0.2224
@<TRIPOS>BOND
     1    15    12    2
     2    14    12    1
     3    12    11    1
     4    12    13    1
     5    11    10    1
     6     7     6    1
     7     5     4    1
     8     6     4   ar
     9     6     8   ar
    10    10     8    1
    11     4     2   ar
    12     8     9   ar
    13     2     3    1
    14     2     1   ar
    15     9     1   ar
