@<TRIPOS>MOLECULE
2vie_VG0_A_1.pdb
 39 41 0 0 0
SMALL
GASTEIGER

@<TRIPOS>ATOM
      1  C1        30.2790    1.1150   34.4740 C.2   1448  VG01448     0.2649
      2  N2        29.1200    1.2170   33.7580 N.am  1448  VG01448    -0.2004
      3  C3        28.8550    2.2250   32.7220 C.3   1448  VG01448     0.1316
      4  C4        28.0190    3.3310   33.3620 C.3   1448  VG01448     0.1893
      5  C5        28.1940    1.4800   31.5300 C.3   1448  VG01448     0.0507
      6  C6        28.7940    4.2260   34.3130 C.3   1448  VG01448     0.1232
      7  O7        31.2190    1.8920   34.3140 O.2   1448  VG01448    -0.2684
      8  C8        30.3540    0.0080   35.4220 C.ar  1448  VG01448     0.0576
      9  C9        30.9220    0.1570   36.7070 C.ar  1448  VG01448     0.0195
     10  C10       30.9930   -0.9330   37.5980 C.ar  1448  VG01448     0.0552
     11  C11       30.4800   -2.2020   37.1840 C.ar  1448  VG01448     0.0310
     12  C12       29.9040   -2.3840   35.9040 C.ar  1448  VG01448     0.0667
     13  C13       29.8440   -1.2630   35.0180 C.ar  1448  VG01448     0.0207
     14  C14       28.8490    0.1540   31.2130 C.ar  1448  VG01448    -0.0204
     15  C15       30.2530    0.0640   30.9870 C.ar  1448  VG01448    -0.0042
     16  C16       30.8600   -1.1780   30.7020 C.ar  1448  VG01448    -0.0003
     17  C17       30.0720   -2.3500   30.6330 C.ar  1448  VG01448    -0.0000
     18  C18       28.6780   -2.2740   30.8550 C.ar  1448  VG01448    -0.0003
     19  C19       28.0690   -1.0260   31.1440 C.ar  1448  VG01448    -0.0042
     20  N20       27.9880    5.3780   34.7240 N.3   1448  VG01448    -0.2180
     21  O21       27.4970    4.1580   32.3360 O.3   1448  VG01448    -0.2197
     22  N38       29.4120   -3.6240   35.5230 N.pl3 1448  VG01448    -0.2376
     23  C39       28.7940   -3.9450   34.2270 C.3   1448  VG01448     0.1123
     24  C40       27.2710   -3.9270   34.3460 C.3   1448  VG01448     0.0251
     25  N46       31.5640   -0.7590   38.8520 N.am  1448  VG01448    -0.2586
     26  C47       32.8600   -0.0840   39.0580 C.3   1448  VG01448     0.0987
     27  C48       33.2480   -0.4180   40.4940 C.3   1448  VG01448     0.0315
     28  C49       31.9410   -0.7980   41.1910 C.3   1448  VG01448     0.0874
     29  C50       31.0140   -1.1720   40.0330 C.2   1448  VG01448     0.2294
     30  O57       29.9470   -1.7550   40.1890 O.2   1448  VG01448    -0.2745
     31  C59       28.6540    6.5500   35.3500 C.3   1448  VG01448     0.0596
     32  C61       29.3290    6.0510   36.6520 C.3   1448  VG01448     0.0174
     33  C65       27.6200    7.6390   35.7150 C.3   1448  VG01448     0.0174
     34  C69       29.7290    7.1100   34.3670 C.3   1448  VG01448     0.0161
     35  C70       29.1920    7.6280   33.0190 C.3   1448  VG01448     0.0014
     36  C73       30.3070    8.1770   32.1200 C.3   1448  VG01448     0.0000
     37  C76       29.8180    8.7140   30.7630 C.3   1448  VG01448     0.0000
     38  C79       30.9960    9.3440   30.0130 C.3   1448  VG01448     0.0000
     39  C83       28.7040    9.7680   30.9170 C.3   1448  VG01448     0.0000
@<TRIPOS>BOND
     1    38    37    1
     2    17    16   ar
     3    17    18   ar
     4    16    15   ar
     5    37    39    1
     6    37    36    1
     7    18    19   ar
     8    15    14   ar
     9    19    14   ar
    10    14     5    1
    11     5     3    1
    12    36    35    1
    13    21     4    1
    14     3     4    1
    15     3     2    1
    16    35    34    1
    17     4     6    1
    18     2     1   am
    19    23    24    1
    20    23    22    1
    21     6    20    1
    22     7     1    2
    23    34    31    1
    24     1     8    1
    25    20    31    1
    26    13     8   ar
    27    13    12   ar
    28    31    33    1
    29    31    32    1
    30     8     9   ar
    31    22    12    1
    32    12    11   ar
    33     9    10   ar
    34    11    10   ar
    35    10    25    1
    36    25    26    1
    37    25    29   am
    38    26    27    1
    39    29    30    2
    40    29    28    1
    41    27    28    1
