@<TRIPOS>MOLECULE
2vig_COS_B_1.pdb
 49 51 0 0 0
SMALL
GASTEIGER

@<TRIPOS>ATOM
      1  N1A       16.0380   -1.9400   12.3000 N.2   605  COS605      0.0021
      2  C2A       16.5300   -2.0560   11.0700 C.3   605  COS605      0.5254
      3  N3A       15.7390   -2.0880   10.0050 N.2   605  COS605     -0.0055
      4  C4A       14.4040   -2.0060   10.1540 C.2   605  COS605      0.3518
      5  C5A       13.8580   -1.8890   11.4220 C.2   605  COS605      0.2526
      6  C6A       14.7140   -1.8520   12.5160 C.2   605  COS605      0.4393
      7  N6A       14.2270   -1.7370   13.7490 N.pl3 605  COS605      0.2180
      8  N7A       12.5360   -1.8260   11.2890 N.2   605  COS605     -0.2095
      9  C8A       12.2530   -1.9030    9.9910 C.3   605  COS605      0.3377
     10  N9A       13.3900   -2.0090    9.2960 N.pl3 605  COS605     -0.1439
     11  C1B       13.5110   -2.1370    7.8230 C.3   605  COS605      0.3185
     12  C2B       12.9020   -3.4920    7.4500 C.3   605  COS605      0.2543
     13  O2B       13.8590   -4.5450    7.6390 O.3   605  COS605     -0.2131
     14  C3B       12.5670   -3.3120    5.9760 C.3   605  COS605      0.1928
     15  O3B       13.6530   -3.7860    5.1750 O.3   605  COS605     -0.2673
     16  P3B       13.3820   -4.3890    3.7020 P.3   605  COS605      0.5327
     17  O7A       14.8170   -4.9570    3.2190 O.3   605  COS605     -0.1145
     18  O8A       12.4540   -5.7010    3.9230 O.3   605  COS605     -0.1145
     19  O9A       12.7890   -3.3940    2.7750 O.2   605  COS605     -0.2224
     20  C4B       12.4290   -1.7880    5.8040 C.3   605  COS605      0.1795
     21  O4B       12.6980   -1.1880    7.1020 O.3   605  COS605     -0.3136
     22  C5B       10.9700   -1.3900    5.3580 C.3   605  COS605      0.1812
     23  O5B        9.9840   -2.4590    5.5280 O.3   605  COS605     -0.3112
     24  P1A        8.9810   -2.5650    6.8200 P.3   605  COS605      0.2189
     25  O1A        9.9280   -2.8510    8.1040 O.3   605  COS605     -0.4371
     26  O2A        7.9720   -3.6410    6.6420 O.2   605  COS605     -0.5170
     27  O3A        8.3460   -1.0900    7.0550 O.3   605  COS605     -0.2703
     28  P2A        6.7510   -0.8220    7.2220 P.3   605  COS605      0.2188
     29  O4A        5.9710   -1.8810    6.5410 O.2   605  COS605     -0.5170
     30  O5A        6.4910    0.5970    6.8880 O.3   605  COS605     -0.4371
     31  O6A        6.5290   -1.0190    8.8080 O.3   605  COS605     -0.3138
     32  CBP        6.3320    0.8930   10.3320 C.3   605  COS605      0.0645
     33  CCP        7.2290   -0.2000    9.7420 C.3   605  COS605      0.1519
     34  CDP        5.0840    1.1340    9.4910 C.3   605  COS605      0.0056
     35  CEP        7.1320    2.1990   10.3760 C.3   605  COS605      0.0056
     36  CAP        5.8510    0.4480   11.7350 C.3   605  COS605      0.2312
     37  OAP        5.9540   -0.9730   11.8840 O.3   605  COS605     -0.2131
     38  C9P        6.6570    1.1490   12.8340 C.2   605  COS605      0.2719
     39  O9P        7.4770    0.5610   13.5510 O.2   605  COS605     -0.2706
     40  N8P        6.3730    2.4400   12.9190 N.am  605  COS605     -0.2028
     41  C7P        7.0190    3.3100   13.8800 C.3   605  COS605      0.1248
     42  C6P        5.9840    4.2910   14.3670 C.3   605  COS605      0.1102
     43  C5P        6.6700    5.1920   15.3570 C.2   605  COS605      0.2432
     44  O5P        7.5880    4.7610   16.0630 O.2   605  COS605     -0.2733
     45  N4P        6.1960    6.4330   15.3700 N.am  605  COS605     -0.2044
     46  C3P        6.7340    7.4570   16.2580 C.3   605  COS605      0.1277
     47  C2P        8.1920    7.6840   15.8920 C.3   605  COS605      0.0929
     48  S1P        8.8270    9.2670   16.5310 S.3   605  COS605     -0.0689
     49  S'P        8.1400    9.3490   18.4520 S.3   605  COS605     -0.0122
@<TRIPOS>BOND
     1    19    16    2
     2    17    16    1
     3    16    18    1
     4    16    15    1
     5    15    14    1
     6    22    23    1
     7    22    20    1
     8    23    24    1
     9    20    14    1
    10    20    21    1
    11    14    12    1
    12    29    28    2
    13    26    24    2
    14    24    27    1
    15    24    25    1
    16    30    28    1
    17    27    28    1
    18    21    11    1
    19    28    31    1
    20    12    13    1
    21    12    11    1
    22    11    10    1
    23    31    33    1
    24    10     9    1
    25    10     4    1
    26    34    32    1
    27    33    32    1
    28     9     8    1
    29     3     4    2
    30     3     2    1
    31     4     5    1
    32    32    35    1
    33    32    36    1
    34     2     1    1
    35     8     5    2
    36     5     6    1
    37    36    37    1
    38    36    38    1
    39     1     6    2
    40     6     7    1
    41    38    40   am
    42    38    39    2
    43    40    41    1
    44    41    42    1
    45    42    43    1
    46    43    45   am
    47    43    44    2
    48    45    46    1
    49    47    46    1
    50    47    48    1
    51    48    49    1
