@<TRIPOS>MOLECULE
2vii_AMP_A_1.pdb
 23 25 0 0 0
SMALL
GASTEIGER

@<TRIPOS>ATOM
      1  P         32.6780    9.4750   -2.9490 P.3   260  AMP260      0.5327
      2  O1P       32.7110   10.5600   -3.8430 O.2   260  AMP260     -0.2224
      3  O2P       32.1050    8.3760   -3.5880 O.3   260  AMP260     -0.1145
      4  O3P       32.0980    9.7720   -1.6830 O.3   260  AMP260     -0.1145
      5  O5'       34.1120    9.0830   -2.5450 O.3   260  AMP260     -0.2675
      6  C5'       34.4020    8.3390   -1.4200 C.3   260  AMP260      0.1860
      7  C4'       35.5670    7.3610   -1.3710 C.3   260  AMP260      0.1823
      8  O4'       36.7250    7.6590   -2.0990 O.3   260  AMP260     -0.3135
      9  C3'       36.0180    7.2490    0.0240 C.3   260  AMP260      0.2184
     10  O3'       36.1800    5.8970    0.3750 O.3   260  AMP260     -0.2174
     11  C2'       37.3370    7.8770    0.0890 C.3   260  AMP260      0.2570
     12  O2'       37.9060    7.6430    1.3720 O.3   260  AMP260     -0.2130
     13  C1'       37.8870    7.6230   -1.2960 C.3   260  AMP260      0.3186
     14  N9        38.6960    8.8110   -1.6100 N.pl3 260  AMP260     -0.1439
     15  C8        38.2250    9.8440   -2.2640 C.3   260  AMP260      0.3377
     16  N7        39.1230   10.7710   -2.4290 N.2   260  AMP260     -0.2095
     17  C5        40.2450   10.3880   -1.8800 C.2   260  AMP260      0.2526
     18  C6        41.6000   10.9560   -1.7330 C.2   260  AMP260      0.4393
     19  N6        41.9690   12.1550   -2.2050 N.pl3 260  AMP260      0.2180
     20  N1        42.4780   10.2030   -1.0810 N.2   260  AMP260      0.0021
     21  C2        42.1840    8.9810   -0.5720 C.3   260  AMP260      0.5254
     22  N3        40.9860    8.4180   -0.6790 N.2   260  AMP260     -0.0055
     23  C4        39.9630    9.0640   -1.3200 C.2   260  AMP260      0.3518
@<TRIPOS>BOND
     1     2     1    2
     2     3     1    1
     3     1     5    1
     4     1     4    1
     5     5     6    1
     6    16    15    1
     7    16    17    2
     8    15    14    1
     9    19    18    1
    10     8     7    1
    11     8    13    1
    12    17    18    1
    13    17    23    1
    14    18    20    2
    15    14    23    1
    16    14    13    1
    17     6     7    1
    18     7     9    1
    19    23    22    2
    20    13    11    1
    21    20    21    1
    22    22    21    1
    23     9    11    1
    24     9    10    1
    25    11    12    1
