@<TRIPOS>MOLECULE
2vij_C44_A_1.pdb
 42 46 0 0 0
SMALL
GASTEIGER

@<TRIPOS>ATOM
      1  C1        30.2050    1.5220   34.5170 C.2   3000  C443000     0.2649
      2  N2        28.9560    1.6770   34.0080 N.am  3000  C443000    -0.2004
      3  C3        28.6740    2.5240   32.8540 C.3   3000  C443000     0.1316
      4  C4        27.8950    3.7520   33.3640 C.3   3000  C443000     0.1894
      5  C5        27.9250    1.6750   31.7880 C.3   3000  C443000     0.0507
      6  C6        28.6060    4.5960   34.4170 C.3   3000  C443000     0.1236
      7  O7        31.1080    2.3240   34.2700 O.2   3000  C443000    -0.2684
      8  C8        30.4010    0.3500   35.3680 C.ar  3000  C443000     0.0576
      9  C9        29.9880   -0.9460   34.9670 C.ar  3000  C443000     0.0207
     10  C10       30.2040   -2.0650   35.8190 C.ar  3000  C443000     0.0667
     11  C11       30.8430   -1.8660   37.0790 C.ar  3000  C443000     0.0322
     12  C12       31.2610   -0.5560   37.4890 C.ar  3000  C443000     0.0699
     13  C13       31.0290    0.5340   36.6190 C.ar  3000  C443000     0.0208
     14  C14       28.6870    0.4410   31.3520 C.ar  3000  C443000    -0.0204
     15  C15       30.0840    0.4490   31.0780 C.ar  3000  C443000    -0.0042
     16  C16       30.7410   -0.7450   30.6860 C.ar  3000  C443000    -0.0003
     17  C17       30.0060   -1.9500   30.5660 C.ar  3000  C443000    -0.0000
     18  C18       28.6190   -1.9630   30.8350 C.ar  3000  C443000    -0.0003
     19  C19       27.9670   -0.7720   31.2260 C.ar  3000  C443000    -0.0042
     20  N20       27.7540    5.7420   34.7740 N.3   3000  C443000    -0.2123
     21  N32       29.8130   -3.3460   35.4630 N.pl3 3000  C443000    -0.2376
     22  C33       29.2470   -3.7140   34.1570 C.3   3000  C443000     0.1123
     23  C34       27.7150   -3.7080   34.2120 C.3   3000  C443000     0.0251
     24  S41       31.4930   -1.1420   40.0680 S.O2  3000  C443000     0.0569
     25  C42       32.4790   -2.6260   40.1570 C.3   3000  C443000     0.1727
     26  C43       33.9500   -2.2470   39.9490 C.3   3000  C443000     0.0292
     27  C44       34.1570   -1.4990   38.6200 C.3   3000  C443000     0.0252
     28  C45       33.3840   -0.1610   38.5600 C.3   3000  C443000     0.1155
     29  O52       31.8290   -0.3030   41.1740 O.2   3000  C443000    -0.1543
     30  O53       30.1170   -1.5540   39.9900 O.2   3000  C443000    -0.1543
     31  C54       28.3850    6.9530   35.3670 C.3   3000  C443000     0.0947
     32  C56       28.8460    6.6620   36.8180 C.3   3000  C443000     0.0222
     33  C57       29.6560    7.8410   37.3930 C.3   3000  C443000     0.0064
     34  C58       30.9610    8.0510   36.5870 C.3   3000  C443000     0.0261
     35  C59       30.7660    7.9920   35.0740 C.ar  3000  C443000    -0.0248
     36  C60       29.5570    7.4780   34.4830 C.ar  3000  C443000    -0.0104
     37  C67       31.8080    8.4550   34.2290 C.ar  3000  C443000    -0.0045
     38  C68       31.6790    8.4210   32.8200 C.ar  3000  C443000    -0.0003
     39  C69       30.5020    7.9240   32.2280 C.ar  3000  C443000    -0.0003
     40  C70       29.4490    7.4570   33.0570 C.ar  3000  C443000    -0.0032
     41  N75       31.8930   -0.3000   38.7030 N.pl3 3000  C443000    -0.1943
     42  O82       27.5730    4.5850   32.2710 O.3   3000  C443000    -0.2197
@<TRIPOS>BOND
     1    17    16   ar
     2    17    18   ar
     3    16    15   ar
     4    18    19   ar
     5    15    14   ar
     6    19    14   ar
     7    14     5    1
     8     5     3    1
     9    39    38   ar
    10    39    40   ar
    11    42     4    1
    12    38    37   ar
    13     3     4    1
    14     3     2    1
    15    40    36   ar
    16     4     6    1
    17     2     1   am
    18    22    23    1
    19    22    21    1
    20    37    35   ar
    21     7     1    2
    22     6    20    1
    23    36    35   ar
    24    36    31    1
    25     1     8    1
    26    20    31    1
    27     9     8   ar
    28     9    10   ar
    29    35    34    1
    30    31    32    1
    31     8    13   ar
    32    21    10    1
    33    10    11   ar
    34    34    33    1
    35    13    12   ar
    36    32    33    1
    37    11    12   ar
    38    12    41    1
    39    28    27    1
    40    28    41    1
    41    27    26    1
    42    41    24    1
    43    26    25    1
    44    30    24    2
    45    24    25    1
    46    24    29    2
