@<TRIPOS>MOLECULE
2vin_505_A_1.pdb
 13 13 0 0 0
SMALL
GASTEIGER

@<TRIPOS>ATOM
      1  C1        31.5240    3.8010   28.2230 C.3   1247  5051247     0.0245
      2  C2        32.6170    4.7730   27.8010 C.3   1247  5051247     0.1354
      3  N3        33.0070    4.3980   26.4000 N.3   1247  5051247    -0.1290
      4  C4        32.1320    6.2200   27.8620 C.3   1247  5051247     0.2242
      5  O5        30.9340    6.3530   27.0450 O.3   1247  5051247    -0.4745
      6  C6        30.0970    7.4110   27.3030 C.ar  1247  5051247     0.1306
      7  C7        28.9130    7.1980   28.0380 C.ar  1247  5051247     0.0118
      8  C8        28.5620    5.8270   28.5530 C.3   1247  5051247     0.0342
      9  C9        28.0790    8.2770   28.2890 C.ar  1247  5051247    -0.0013
     10  C10       28.3930    9.5360   27.8170 C.ar  1247  5051247    -0.0004
     11  C11       29.5500    9.7460   27.0920 C.ar  1247  5051247    -0.0013
     12  C12       30.4180    8.6960   26.8250 C.ar  1247  5051247     0.0118
     13  C13       31.6810    8.9340   26.0370 C.3   1247  5051247     0.0342
@<TRIPOS>BOND
     1    13    12    1
     2     3     2    1
     3    12    11   ar
     4    12     6   ar
     5     5     6    1
     6     5     4    1
     7    11    10   ar
     8     6     7   ar
     9     2     4    1
    10     2     1    1
    11    10     9   ar
    12     7     9   ar
    13     7     8    1
