@<TRIPOS>MOLECULE
2vio_L1O_A_1.pdb
 15 15 0 0 0
SMALL
GASTEIGER

@<TRIPOS>ATOM
      1  N1        32.9440    4.6260   26.4540 N.3   1246  L1O1246    -0.1273
      2  C2        32.2610    4.7900   27.7650 C.3   1246  L1O1246     0.1565
      3  C3        31.7220    6.1920   27.9750 C.3   1246  L1O1246     0.2259
      4  O4        30.5740    6.3930   27.1050 O.3   1246  L1O1246    -0.4721
      5  C5        29.6610    7.3400   27.4920 C.ar  1246  L1O1246     0.1595
      6  C6        29.6120    8.6200   26.9170 C.ar  1246  L1O1246     0.0926
      7 CL7        30.6850    9.0490   25.6210 Cl    1246  L1O1246    -0.0791
      8  C8        28.6780    9.5430   27.3700 C.ar  1246  L1O1246     0.0211
      9  C9        27.8040    9.2200   28.4030 C.ar  1246  L1O1246     0.0816
     10  C10       27.8720    7.9570   28.9810 C.ar  1246  L1O1246     0.0211
     11  C11       28.7870    7.0180   28.5270 C.ar  1246  L1O1246     0.0926
     12 CL12       28.8440    5.4450   29.2570 Cl    1246  L1O1246    -0.0791
     13  C13       26.8180   10.2330   28.9010 C.2   1246  L1O1246     0.3878
     14  O14       26.3070   10.1600   30.0020 O.co2 1246  L1O1246    -0.2406
     15  O15       26.5880   11.2220   28.0750 O.co2 1246  L1O1246    -0.2406
@<TRIPOS>BOND
     1     7     6    1
     2     1     2    1
     3     6     8   ar
     4     6     5   ar
     5     4     5    1
     6     4     3    1
     7     8     9   ar
     8     5    11   ar
     9     2     3    1
    10    15    13   ar
    11     9    13    1
    12     9    10   ar
    13    11    10   ar
    14    11    12    1
    15    13    14   ar
