@<TRIPOS>MOLECULE
2vip_L1R_A_1.pdb
 25 26 0 0 0
SMALL
GASTEIGER

@<TRIPOS>ATOM
      1  C1        21.7770   10.7610   29.7930 C.3   1247  L1R1247     0.0472
      2  C2        21.6240   12.1830   29.2780 C.3   1247  L1R1247     0.1661
      3  C3        20.2380   12.6980   29.6220 C.3   1247  L1R1247     0.0472
      4  O4        22.5180   13.0810   29.9860 O.3   1247  L1R1247    -0.4791
      5  C5        23.7870   12.6660   30.3040 C.ar  1247  L1R1247     0.1397
      6  C6        24.2050   13.3960   31.4110 C.ar  1247  L1R1247     0.0370
      7  C7        25.4480   13.1740   31.9670 C.ar  1247  L1R1247     0.0044
      8  C8        26.3030   12.2460   31.4060 C.ar  1247  L1R1247     0.0168
      9  C9        25.9140   11.5150   30.2910 C.ar  1247  L1R1247     0.0767
     10  N10       26.8030   10.5670   29.7310 N.am  1247  L1R1247    -0.1753
     11  C11       27.0210   10.3670   28.4210 C.2   1247  L1R1247     0.2690
     12  O12       26.5120   11.0390   27.5520 O.2   1247  L1R1247    -0.2680
     13  C13       27.9750    9.2760   28.0520 C.ar  1247  L1R1247     0.0573
     14  C14       28.7900    9.5230   26.9540 C.ar  1247  L1R1247     0.0191
     15  C15       29.7070    8.5740   26.5430 C.ar  1247  L1R1247     0.0925
     16 CL1        30.7190    8.8960   25.1680 Cl    1247  L1R1247    -0.0791
     17  C17       29.8050    7.3560   27.2410 C.ar  1247  L1R1247     0.1595
     18  O18       30.6980    6.3760   26.9120 O.3   1247  L1R1247    -0.4721
     19  C19       31.8140    6.1920   27.8050 C.3   1247  L1R1247     0.2259
     20  C20       32.3920    4.8070   27.5900 C.3   1247  L1R1247     0.1565
     21  N21       33.1240    4.6980   26.2990 N.3   1247  L1R1247    -0.1273
     22  C22       28.9960    7.1170   28.3470 C.ar  1247  L1R1247     0.0925
     23 CL2        29.1410    5.6270   29.2200 Cl    1247  L1R1247    -0.0791
     24  C24       28.0810    8.0790   28.7570 C.ar  1247  L1R1247     0.0191
     25  C25       24.6570   11.7380   29.7380 C.ar  1247  L1R1247     0.0535
@<TRIPOS>BOND
     1    16    15    1
     2    21    20    1
     3    15    14   ar
     4    15    17   ar
     5    18    17    1
     6    18    19    1
     7    14    13   ar
     8    17    22   ar
     9    12    11    2
    10    20    19    1
    11    13    11    1
    12    13    24   ar
    13    22    24   ar
    14    22    23    1
    15    11    10   am
    16     2     3    1
    17     2     1    1
    18     2     4    1
    19    10     9    1
    20    25     9   ar
    21    25     5   ar
    22     4     5    1
    23     9     8   ar
    24     5     6   ar
    25     8     7   ar
    26     6     7   ar
