@<TRIPOS>MOLECULE
2viq_D55_A_1.pdb
 27 28 0 0 0
SMALL
GASTEIGER

@<TRIPOS>ATOM
      1  C3        28.2120   13.5920   32.1640 C.3   1246  D551246     0.2056
      2  C2        29.4890   13.2290   32.8760 C.3   1246  D551246     0.0512
      3  C5        21.6030   11.6100   29.5870 C.3   1246  D551246     0.2055
      4  C6        20.0960   11.6150   29.6850 C.3   1246  D551246     0.0512
      5  C9        25.2580   13.4490   32.1480 C.ar  1246  D551246     0.0414
      6  C8        23.9380   13.5030   31.7460 C.ar  1246  D551246     0.0401
      7  C7        23.4550   12.6240   30.7840 C.ar  1246  D551246     0.1401
      8  C31       24.3260   11.6990   30.2170 C.ar  1246  D551246     0.0566
      9  C12       25.6550   11.6270   30.6150 C.ar  1246  D551246     0.1105
     10  N13       26.5450   10.6840   30.0530 N.am  1246  D551246    -0.1723
     11  C14       26.9450   10.6390   28.7700 C.2   1246  D551246     0.2691
     12  O15       26.5510   11.4340   27.9530 O.2   1246  D551246    -0.2680
     13  C16       27.8950    9.5370   28.3950 C.ar  1246  D551246     0.0550
     14  C17       29.0130    9.7940   27.6080 C.ar  1246  D551246     0.0033
     15  C18       29.8980    8.7830   27.2490 C.ar  1246  D551246     0.0119
     16  C19       31.1010    9.0880   26.3950 C.3   1246  D551246     0.0342
     17  C20       29.6430    7.4730   27.6970 C.ar  1246  D551246     0.1306
     18  O21       30.4700    6.4250   27.3710 O.3   1246  D551246    -0.4745
     19  C22       31.6520    6.2260   28.1760 C.3   1246  D551246     0.2258
     20  C23       32.1140    4.7920   27.9960 C.3   1246  D551246     0.1565
     21  N24       32.8370    4.5820   26.7140 N.3   1246  D551246    -0.1273
     22  C28       28.5140    7.2000   28.4890 C.ar  1246  D551246     0.0119
     23  C29       28.2420    5.7980   28.9690 C.3   1246  D551246     0.0342
     24  O3        22.1350   12.6920   30.4070 O.3   1246  D551246    -0.4754
     25  C30       27.6590    8.2390   28.8250 C.ar  1246  D551246     0.0033
     26  O8        27.4570   12.3870   31.9140 O.3   1246  D551246    -0.4741
     27  C11       26.1280   12.5140   31.5980 C.ar  1246  D551246     0.1539
@<TRIPOS>BOND
     1    16    15    1
     2    21    20    1
     3    15    14   ar
     4    15    17   ar
     5    18    17    1
     6    18    19    1
     7    14    13   ar
     8    17    22   ar
     9    12    11    2
    10    20    19    1
    11    13    11    1
    12    13    25   ar
    13    22    25   ar
    14    22    23    1
    15    11    10   am
    16     3     4    1
    17     3    24    1
    18    10     9    1
    19     8     9   ar
    20     8     7   ar
    21    24     7    1
    22     9    27   ar
    23     7     6   ar
    24    27    26    1
    25    27     5   ar
    26     6     5   ar
    27    26     1    1
    28     1     2    1
