@<TRIPOS>MOLECULE
2viv_VG2_A_1.pdb
 28 30 0 0 0
SMALL
GASTEIGER

@<TRIPOS>ATOM
      1  N1        22.9540   13.6740   28.9440 N.pl3 1247  VG21247    -0.3074
      2  C2        23.6010   14.2240   27.7480 C.3   1247  VG21247     0.0908
      3  C3        22.5750   14.5100   26.6650 C.3   1247  VG21247     0.0215
      4  C4        21.5050   15.4620   27.1710 C.3   1247  VG21247     0.0035
      5  C5        20.9080   14.9570   28.4730 C.3   1247  VG21247     0.0215
      6  C6        21.9980   14.6470   29.4870 C.3   1247  VG21247     0.0908
      7  C7        23.8630   13.1370   29.8630 C.ar  1247  VG21247     0.0500
      8  C8        23.8760   13.5680   31.1820 C.ar  1247  VG21247     0.0260
      9  C9        24.7920   13.0350   32.0740 C.ar  1247  VG21247     0.0602
     10 CL         24.8050   13.5740   33.7120 Cl    1247  VG21247    -0.0822
     11  C11       25.7120   12.0810   31.6680 C.ar  1247  VG21247     0.0281
     12  C12       25.7010   11.6410   30.3570 C.ar  1247  VG21247     0.0757
     13  N13       26.6200   10.6660   29.9140 N.am  1247  VG21247    -0.1754
     14  C14       27.1440   10.6310   28.6830 C.2   1247  VG21247     0.2690
     15  O15       26.8720   11.4450   27.8340 O.2   1247  VG21247    -0.2680
     16  C16       28.0640    9.4980   28.3750 C.ar  1247  VG21247     0.0550
     17  C17       27.8230    8.2310   28.8890 C.ar  1247  VG21247     0.0033
     18  C18       28.6480    7.1650   28.5730 C.ar  1247  VG21247     0.0119
     19  C19       28.3650    5.7890   29.1170 C.3   1247  VG21247     0.0342
     20  C20       29.7420    7.3850   27.7470 C.ar  1247  VG21247     0.1306
     21  O21       30.5530    6.3150   27.4810 O.3   1247  VG21247    -0.4745
     22  C22       31.7010    6.1290   28.3510 C.3   1247  VG21247     0.2258
     23  C23       32.2710    4.7470   28.1020 C.3   1247  VG21247     0.1565
     24  N24       32.9250    4.6830   26.7690 N.3   1247  VG21247    -0.1273
     25  C28       30.0170    8.6640   27.2330 C.ar  1247  VG21247     0.0119
     26  C29       31.2150    8.9030   26.3510 C.3   1247  VG21247     0.0342
     27  C30       29.1610    9.7070   27.5510 C.ar  1247  VG21247     0.0033
     28  C31       24.7850   12.1780   29.4640 C.ar  1247  VG21247     0.0312
@<TRIPOS>BOND
     1    26    25    1
     2     3     4    1
     3     3     2    1
     4    24    23    1
     5     4     5    1
     6    25    27   ar
     7    25    20   ar
     8    21    20    1
     9    21    22    1
    10    27    16   ar
    11    20    18   ar
    12     2     1    1
    13    15    14    2
    14    23    22    1
    15    16    14    1
    16    16    17   ar
    17     5     6    1
    18    18    17   ar
    19    18    19    1
    20    14    13   am
    21     1     6    1
    22     1     7    1
    23    28     7   ar
    24    28    12   ar
    25     7     8   ar
    26    13    12    1
    27    12    11   ar
    28     8     9   ar
    29    11     9   ar
    30     9    10    1
