@<TRIPOS>MOLECULE
2viw_D56_A_1.pdb
 31 33 0 0 0
SMALL
GASTEIGER

@<TRIPOS>ATOM
      1  N1        22.3980   12.5370   29.2640 N.pl3 1246  D561246    -0.3074
      2  C2        21.6380   13.7920   29.2710 C.3   1246  D561246     0.0908
      3  C3        20.5380   13.7550   28.2210 C.3   1246  D561246     0.0215
      4  C4        19.6090   12.5740   28.4470 C.3   1246  D561246     0.0035
      5  C5        20.3980   11.2830   28.5750 C.3   1246  D561246     0.0215
      6  C6        21.5070   11.4220   29.6070 C.3   1246  D561246     0.0908
      7  C7        23.6920   12.4940   29.8640 C.ar  1246  D561246     0.0502
      8  C8        23.9320   13.1210   31.0800 C.ar  1246  D561246     0.0291
      9  C9        25.1860   13.0570   31.6720 C.ar  1246  D561246     0.0941
     10 CL         25.4520   13.8390   33.1940 Cl    1246  D561246    -0.0790
     11  C11       26.2190   12.3390   31.0560 C.ar  1246  D561246     0.1642
     12  C12       25.9880   11.7180   29.8320 C.ar  1246  D561246     0.1096
     13  N13       27.0480   11.0010   29.2510 N.am  1246  D561246    -0.1723
     14  C14       27.2980   10.8090   27.9530 C.2   1246  D561246     0.2690
     15  O15       26.7970   11.4760   27.0800 O.2   1246  D561246    -0.2680
     16  C16       28.2220    9.6830   27.6380 C.ar  1246  D561246     0.0550
     17  C17       27.9790    8.4350   28.2040 C.ar  1246  D561246     0.0033
     18  C18       28.7950    7.3490   27.9200 C.ar  1246  D561246     0.0119
     19  C10       29.6670   13.2840   31.9400 C.3   1246  D561246     0.0512
     20  C19       28.5230    6.0020   28.5350 C.3   1246  D561246     0.0342
     21  C20       29.8760    7.5340   27.0490 C.ar  1246  D561246     0.1306
     22  O21       30.7020    6.4720   26.7840 O.3   1246  D561246    -0.4745
     23  C22       31.6910    6.1440   27.7720 C.3   1246  D561246     0.2258
     24  C23       31.8350    4.6350   27.8070 C.3   1246  D561246     0.1565
     25  N24       33.1180    4.2180   27.1750 N.3   1246  D561246    -0.1273
     26  C28       30.1380    8.7930   26.4730 C.ar  1246  D561246     0.0119
     27  C29       31.3080    8.9850   25.5460 C.3   1246  D561246     0.0342
     28  C30       29.2980    9.8570   26.7760 C.ar  1246  D561246     0.0033
     29  C31       24.7260   11.7880   29.2590 C.ar  1246  D561246     0.0342
     30  O12       27.4860   12.2800   31.5860 O.3   1246  D561246    -0.4733
     31  C13       28.4710   13.2160   31.0450 C.3   1246  D561246     0.2056
@<TRIPOS>BOND
     1    27    26    1
     2    26    28   ar
     3    26    21   ar
     4    28    16   ar
     5    22    21    1
     6    22    23    1
     7    21    18   ar
     8    15    14    2
     9    25    24    1
    10    16    14    1
    11    16    17   ar
    12    23    24    1
    13    18    17   ar
    14    18    20    1
    15    14    13   am
    16     3     4    1
    17     3     2    1
    18     4     5    1
    19     5     6    1
    20    13    12    1
    21    29    12   ar
    22    29     7   ar
    23     1     2    1
    24     1     6    1
    25     1     7    1
    26    12    11   ar
    27     7     8   ar
    28    31    30    1
    29    31    19    1
    30    11    30    1
    31    11     9   ar
    32     8     9   ar
    33     9    10    1
