@<TRIPOS>MOLECULE
2viy_VG3_A_1.pdb
 40 42 0 0 0
SMALL
GASTEIGER

@<TRIPOS>ATOM
      1  C1        30.5470    1.2450   34.3590 C.2   1448  VG31448     0.2649
      2  N2        29.3600    1.4560   33.7170 N.am  1448  VG31448    -0.2004
      3  C3        29.2020    2.3450   32.5500 C.3   1448  VG31448     0.1316
      4  C4        28.3370    3.5240   33.0190 C.3   1448  VG31448     0.1894
      5  C5        28.5600    1.5640   31.3760 C.3   1448  VG31448     0.0507
      6  O6        31.5040    2.0170   34.2240 O.2   1448  VG31448    -0.2684
      7  C7        30.5720    0.0470   35.2150 C.ar  1448  VG31448     0.0563
      8  C8        30.1530   -1.2290   34.7310 C.ar  1448  VG31448     0.0046
      9  C9        30.1760   -2.3610   35.5830 C.ar  1448  VG31448     0.0015
     10  C10       30.6110   -2.2340   36.9210 C.ar  1448  VG31448     0.0183
     11  C11       31.0290   -0.9730   37.4100 C.ar  1448  VG31448     0.1058
     12  C12       31.0110    0.1680   36.5650 C.ar  1448  VG31448     0.0229
     13  C13       29.2090    0.2240   31.1020 C.ar  1448  VG31448    -0.0204
     14  C14       28.4280   -0.9650   31.0890 C.ar  1448  VG31448    -0.0042
     15  C15       29.0350   -2.2200   30.8350 C.ar  1448  VG31448    -0.0003
     16  C16       30.4270   -2.2960   30.5930 C.ar  1448  VG31448    -0.0000
     17  C17       31.2140   -1.1170   30.6050 C.ar  1448  VG31448    -0.0003
     18  C18       30.6090    0.1360   30.8570 C.ar  1448  VG31448    -0.0042
     19  O19       28.0980    4.4500   31.9870 O.3   1448  VG31448    -0.2197
     20  C20       28.9560    6.7450   34.8900 C.3   1448  VG31448     0.1505
     21  C21       28.9930    4.2820   34.1860 C.3   1448  VG31448     0.1238
     22  N22       28.2730    5.5240   34.4250 N.3   1448  VG31448    -0.2075
     23  S23       31.5550   -0.8330   39.1000 S.O2  1448  VG31448     0.0087
     24  C24       29.5260    6.5250   36.3070 C.3   1448  VG31448     0.0287
     25  C38       30.0910    7.1540   33.9040 C.2   1448  VG31448     0.2571
     26  N39       29.6350    7.9310   32.9040 N.am  1448  VG31448    -0.2060
     27  C40       30.4790    8.4020   31.8030 C.3   1448  VG31448     0.0954
     28  O41       31.2560    6.7770   34.0420 O.2   1448  VG31448    -0.2718
     29  C43       30.8950    9.8650   32.0780 C.3   1448  VG31448     0.0217
     30  C44       31.7800   10.4030   30.8840 C.3   1448  VG31448     0.0018
     31  C45       31.0860   10.2440   29.5070 C.3   1448  VG31448     0.0001
     32  C46       30.5680    8.7980   29.2790 C.3   1448  VG31448     0.0018
     33  C47       29.7070    8.2950   30.4680 C.3   1448  VG31448     0.0217
     34  C60       32.9950   -1.8910   39.1700 C.3   1448  VG31448     0.1559
     35  C61       33.5530   -1.8840   40.6000 C.3   1448  VG31448     0.0258
     36  C64       34.7870   -2.7790   40.7760 C.3   1448  VG31448     0.0018
     37  C67       35.3160   -2.7550   42.2180 C.3   1448  VG31448     0.0001
     38  C70       36.5490   -3.6500   42.4020 C.3   1448  VG31448     0.0000
     39  O76       30.5300   -1.4170   39.9240 O.2   1448  VG31448    -0.1686
     40  O77       31.9300    0.5250   39.3430 O.2   1448  VG31448    -0.1686
@<TRIPOS>BOND
     1    32    31    1
     2    32    33    1
     3    31    30    1
     4    33    27    1
     5    16    17   ar
     6    16    15   ar
     7    17    18   ar
     8    15    14   ar
     9    18    13   ar
    10    30    29    1
    11    14    13   ar
    12    13     5    1
    13     5     3    1
    14    27    29    1
    15    27    26    1
    16    19     4    1
    17     3     4    1
    18     3     2    1
    19    26    25   am
    20     4    21    1
    21     2     1   am
    22    25    28    2
    23    25    20    1
    24    21    22    1
    25     6     1    2
    26     1     7    1
    27    22    20    1
    28     8     7   ar
    29     8     9   ar
    30    20    24    1
    31     7    12   ar
    32     9    10   ar
    33    12    11   ar
    34    10    11   ar
    35    11    23    1
    36    23    34    1
    37    23    40    2
    38    23    39    2
    39    34    35    1
    40    35    36    1
    41    36    37    1
    42    37    38    1
