@<TRIPOS>MOLECULE
2viz_VG4_A_1.pdb
 42 45 0 0 0
SMALL
GASTEIGER

@<TRIPOS>ATOM
      1  C1        31.5100   -0.9090   37.2850 C.ar  1448  VG41448     0.0613
      2  C2        31.3940    0.2350   36.4430 C.ar  1448  VG41448     0.0200
      3  C3        30.8080    0.1230   35.1650 C.ar  1448  VG41448     0.0593
      4  C4        30.3370   -1.1480   34.7260 C.ar  1448  VG41448     0.0415
      5  C5        30.4410   -2.3070   35.5580 C.ar  1448  VG41448     0.1400
      6  C6        31.0320   -2.1620   36.8280 C.ar  1448  VG41448     0.0521
      7  C7        30.6730    1.2520   34.2370 C.2   1448  VG41448     0.2650
      8  N8        29.4940    1.3460   33.5510 N.am  1448  VG41448    -0.2004
      9  O9        31.5890    2.0580   34.0460 O.2   1448  VG41448    -0.2684
     10  C10       29.2670    2.3960   32.5350 C.3   1448  VG41448     0.1316
     11  C11       28.6550    1.7260   31.2730 C.3   1448  VG41448     0.0507
     12  C12       28.3700    3.5250   33.0850 C.3   1448  VG41448     0.1894
     13  O13       28.0910    4.4570   32.0560 O.3   1448  VG41448    -0.2197
     14  C14       29.2650    0.3720   30.9310 C.ar  1448  VG41448    -0.0204
     15  C15       29.0500    4.2820   34.2300 C.3   1448  VG41448     0.1238
     16  N16       28.3790    5.5520   34.4680 N.3   1448  VG41448    -0.2075
     17  C17       29.0770    6.7470   34.9730 C.3   1448  VG41448     0.1505
     18  C18       30.1520    7.1400   33.9370 C.2   1448  VG41448     0.2571
     19  N19       29.6650    7.8810   32.9270 N.am  1448  VG41448    -0.2060
     20  O20       31.3230    6.7800   34.0550 O.2   1448  VG41448    -0.2718
     21  C21       30.5040    8.3530   31.8250 C.3   1448  VG41448     0.0954
     22  C22       29.7210    6.4610   36.3500 C.3   1448  VG41448     0.0287
     23  C23       30.9800    9.8000   32.1030 C.3   1448  VG41448     0.0217
     24  C24       31.8630   10.3140   30.9390 C.3   1448  VG41448     0.0018
     25  C25       31.1300   10.2120   29.5710 C.3   1448  VG41448     0.0001
     26  C26       30.5810    8.7850   29.3120 C.3   1448  VG41448     0.0018
     27  C27       29.7130    8.2840   30.4930 C.3   1448  VG41448     0.0217
     28  C56       28.4140   -0.7390   30.7090 C.ar  1448  VG41448    -0.0042
     29  C57       28.9530   -2.0140   30.3910 C.ar  1448  VG41448    -0.0003
     30  C58       30.3560   -2.1900   30.2930 C.ar  1448  VG41448    -0.0000
     31  C59       31.2180   -1.0890   30.5100 C.ar  1448  VG41448    -0.0003
     32  C60       30.6750    0.1830   30.8250 C.ar  1448  VG41448    -0.0042
     33  O66       29.9560   -3.5530   35.0730 O.3   1448  VG41448    -0.4754
     34  C67       29.0920   -3.5810   33.9340 C.3   1448  VG41448     0.2054
     35  C68       27.6400   -3.4750   34.4080 C.3   1448  VG41448     0.0473
     36  C71       26.6630   -3.4700   33.2430 C.3   1448  VG41448     0.0040
     37  N77       32.0900   -0.8130   38.5260 N.am  1448  VG41448    -0.2361
     38  C78       33.4440   -0.2710   38.6680 C.2   1448  VG41448     0.0680
     39  C79       33.7540   -0.3290   40.1530 C.2   1448  VG41448    -0.0000
     40  C80       32.5450   -0.9630   40.8390 C.3   1448  VG41448     0.1133
     41  C81       31.5470   -1.2080   39.7110 C.2   1448  VG41448     0.2376
     42  O88       30.4390   -1.6990   39.8990 O.2   1448  VG41448    -0.2738
@<TRIPOS>BOND
     1    26    25    1
     2    26    27    1
     3    25    24    1
     4    30    29   ar
     5    30    31   ar
     6    29    28   ar
     7    27    21    1
     8    31    32   ar
     9    28    14   ar
    10    32    14   ar
    11    14    11    1
    12    24    23    1
    13    11    10    1
    14    21    23    1
    15    21    19    1
    16    13    12    1
    17    10    12    1
    18    10     8    1
    19    19    18   am
    20    12    15    1
    21    36    35    1
    22     8     7   am
    23    34    35    1
    24    34    33    1
    25    18    20    2
    26    18    17    1
    27     9     7    2
    28    15    16    1
    29     7     3    1
    30    16    17    1
    31     4     3   ar
    32     4     5   ar
    33    17    22    1
    34    33     5    1
    35     3     2   ar
    36     5     6   ar
    37     2     1   ar
    38     6     1   ar
    39     1    37    1
    40    37    38    1
    41    37    41   am
    42    38    39    2
    43    41    42    2
    44    41    40    1
    45    39    40    1
