@<TRIPOS>MOLECULE
2vj6_VG5_A_1.pdb
 41 44 0 0 0
SMALL
GASTEIGER

@<TRIPOS>ATOM
      1  C1        31.2710   -0.8080   37.3920 C.ar  1447  VG51447     0.0596
      2  C2        31.1650    0.3600   36.5140 C.ar  1447  VG51447     0.0199
      3  C3        30.5390    0.2240   35.2520 C.ar  1447  VG51447     0.0576
      4  C4        29.9990   -1.0800   34.8260 C.ar  1447  VG51447     0.0207
      5  C5        30.0940   -2.2490   35.6910 C.ar  1447  VG51447     0.0667
      6  C6        30.7280   -2.0860   36.9500 C.ar  1447  VG51447     0.0313
      7  C7        30.4120    1.3270   34.3220 C.2   1447  VG51447     0.2649
      8  N8        29.2160    1.4250   33.6650 N.am  1447  VG51447    -0.2004
      9  O9        31.3420    2.1110   34.1130 O.2   1447  VG51447    -0.2684
     10  C10       28.9190    2.4470   32.6270 C.3   1447  VG51447     0.1316
     11  C11       28.2300    1.6730   31.4520 C.3   1447  VG51447     0.0507
     12  C12       28.0280    3.5920   33.1590 C.3   1447  VG51447     0.1894
     13  O13       27.7760    4.5170   32.1050 O.3   1447  VG51447    -0.2197
     14  C14       28.9120    0.3460   31.1300 C.ar  1447  VG51447    -0.0204
     15  C15       28.7210    4.3580   34.2960 C.3   1447  VG51447     0.1238
     16  N16       28.0830    5.6590   34.5450 N.3   1447  VG51447    -0.2075
     17  C17       28.8170    6.8380   35.0720 C.3   1447  VG51447     0.1505
     18  C18       29.8780    7.2620   34.0130 C.2   1447  VG51447     0.2571
     19  N19       29.3410    7.9110   32.9590 N.am  1447  VG51447    -0.2060
     20  O20       31.0790    7.0110   34.1540 O.2   1447  VG51447    -0.2718
     21  C21       30.1510    8.4020   31.8360 C.3   1447  VG51447     0.0954
     22  C22       29.4890    6.5020   36.4340 C.3   1447  VG51447     0.0287
     23  C23       30.6100    9.8720   32.1020 C.3   1447  VG51447     0.0217
     24  C24       31.4680   10.4010   30.9080 C.3   1447  VG51447     0.0018
     25  C25       30.7140   10.2680   29.5350 C.3   1447  VG51447     0.0001
     26  C26       30.1520    8.8270   29.2950 C.3   1447  VG51447     0.0018
     27  C27       29.3300    8.3100   30.5150 C.3   1447  VG51447     0.0217
     28  C56       28.1200   -0.8470   31.0530 C.ar  1447  VG51447    -0.0042
     29  C57       28.7400   -2.1130   30.7580 C.ar  1447  VG51447    -0.0003
     30  C58       30.1590   -2.1940   30.5430 C.ar  1447  VG51447    -0.0000
     31  C59       30.9640   -1.0080   30.6180 C.ar  1447  VG51447    -0.0003
     32  C60       30.3460    0.2540   30.9080 C.ar  1447  VG51447    -0.0042
     33  N1        29.5790   -3.5360   35.3110 N.pl3 1447  VG51447    -0.2376
     34  C67       29.0220   -3.8230   34.0000 C.3   1447  VG51447     0.1123
     35  C68       27.4870   -3.7680   34.0760 C.3   1447  VG51447     0.0251
     36  N77       31.8740   -0.7040   38.6120 N.am  1447  VG51447    -0.2361
     37  C78       33.2150   -0.1180   38.7180 C.2   1447  VG51447     0.0680
     38  C79       33.5640   -0.1690   40.1970 C.2   1447  VG51447    -0.0000
     39  C80       32.3800   -0.8000   40.9220 C.3   1447  VG51447     0.1133
     40  C81       31.3660   -1.1000   39.8130 C.2   1447  VG51447     0.2376
     41  O88       30.2780   -1.6220   40.0320 O.2   1447  VG51447    -0.2738
@<TRIPOS>BOND
     1    26    25    1
     2    26    27    1
     3    25    24    1
     4    27    21    1
     5    30    31   ar
     6    30    29   ar
     7    31    32   ar
     8    29    28   ar
     9    32    14   ar
    10    24    23    1
    11    28    14   ar
    12    14    11    1
    13    11    10    1
    14    21    23    1
    15    21    19    1
    16    13    12    1
    17    10    12    1
    18    10     8    1
    19    19    18   am
    20    12    15    1
    21     8     7   am
    22    34    35    1
    23    34    33    1
    24    18    20    2
    25    18    17    1
    26     9     7    2
    27    15    16    1
    28     7     3    1
    29    16    17    1
    30     4     3   ar
    31     4     5   ar
    32    17    22    1
    33     3     2   ar
    34    33     5    1
    35     5     6   ar
    36     2     1   ar
    37     6     1   ar
    38     1    36    1
    39    36    37    1
    40    36    40   am
    41    37    38    2
    42    40    41    2
    43    40    39    1
    44    38    39    1
