@<TRIPOS>MOLECULE
2vj7_VG6_A_1.pdb
 41 44 0 0 0
SMALL
GASTEIGER

@<TRIPOS>ATOM
      1  C1        29.8760   -2.1360   35.5170 C.ar  1448  VG61448     0.0667
      2  C2        29.8320   -0.9890   34.6750 C.ar  1448  VG61448     0.0207
      3  C3        30.3820    0.2510   35.1050 C.ar  1448  VG61448     0.0576
      4  C4        30.9830    0.3370   36.3820 C.ar  1448  VG61448     0.0195
      5  C5        31.0370   -0.7980   37.2360 C.ar  1448  VG61448     0.0552
      6  C6        30.4780   -2.0280   36.7810 C.ar  1448  VG61448     0.0310
      7  C7        30.3540    1.4370   34.2410 C.2   1448  VG61448     0.2649
      8  N8        29.2570    1.5530   33.4700 N.am  1448  VG61448    -0.2004
      9  O9        31.2730    2.2560   34.1810 O.2   1448  VG61448    -0.2684
     10  C10       29.0870    2.6410   32.5160 C.3   1448  VG61448     0.1316
     11  C11       28.9080    2.1210   31.0630 C.3   1448  VG61448     0.0507
     12  C12       28.0860    3.7260   32.9980 C.3   1448  VG61448     0.1894
     13  O13       27.6930    4.5680   31.9430 O.3   1448  VG61448    -0.2197
     14  C14       29.0980    0.6270   30.8720 C.ar  1448  VG61448    -0.0204
     15  C15       28.7480    4.6250   34.0360 C.3   1448  VG61448     0.1237
     16  N16       27.8840    5.7190   34.4990 N.3   1448  VG61448    -0.2105
     17  C17       28.0220   -0.3000   30.8230 C.ar  1448  VG61448    -0.0042
     18  C18       28.2880   -1.6780   30.6280 C.ar  1448  VG61448    -0.0003
     19  C19       29.6190   -2.1400   30.4790 C.ar  1448  VG61448    -0.0000
     20  C20       30.6920   -1.2270   30.5270 C.ar  1448  VG61448    -0.0003
     21  C21       30.4300    0.1430   30.7200 C.ar  1448  VG61448    -0.0042
     22  N38       29.3610   -3.3620   35.1550 N.pl3 1448  VG61448    -0.2376
     23  C39       28.8020   -3.6900   33.8400 C.3   1448  VG61448     0.1123
     24  C41       27.2780   -3.5580   33.8770 C.3   1448  VG61448     0.0251
     25  N47       31.6340   -0.6980   38.4780 N.am  1448  VG61448    -0.2586
     26  C48       31.0740   -1.0890   39.6640 C.2   1448  VG61448     0.2294
     27  C49       32.0530   -0.8140   40.8040 C.3   1448  VG61448     0.0874
     28  C50       33.3720   -0.5650   40.0750 C.3   1448  VG61448     0.0315
     29  C51       32.9760   -0.1430   38.6670 C.3   1448  VG61448     0.0987
     30  O58       29.9670   -1.5870   39.8270 O.2   1448  VG61448    -0.2745
     31  C59       28.6360    6.8770   35.0540 C.3   1448  VG61448     0.1151
     32  C61       29.7010    7.4600   34.1320 C.ar  1448  VG61448    -0.0049
     33  C64       31.0620    7.4600   34.5370 C.ar  1448  VG61448    -0.0029
     34  C65       32.0670    7.9920   33.6960 C.ar  1448  VG61448    -0.0003
     35  C66       31.7270    8.5330   32.4350 C.ar  1448  VG61448     0.0038
     36  C67       30.3600    8.5560   31.9820 C.ar  1448  VG61448     0.0712
     37  C68       29.3610    8.0040   32.8690 C.ar  1448  VG61448     0.0010
     38  C73       29.9620    9.1520   30.5850 C.3   1448  VG61448     0.4186
     39  F74       28.9280    9.9810   30.7320 F     1448  VG61448    -0.1659
     40  F75       29.6230    8.1470   29.7990 F     1448  VG61448    -0.1659
     41  F76       30.9690    9.8210   30.0190 F     1448  VG61448    -0.1659
@<TRIPOS>BOND
     1    40    38    1
     2    41    38    1
     3    19    20   ar
     4    19    18   ar
     5    20    21   ar
     6    38    39    1
     7    38    36    1
     8    18    17   ar
     9    21    14   ar
    10    17    14   ar
    11    14    11    1
    12    11    10    1
    13    13    12    1
    14    36    35   ar
    15    36    37   ar
    16    35    34   ar
    17    10    12    1
    18    10     8    1
    19    37    32   ar
    20    12    15    1
    21     8     7   am
    22    34    33   ar
    23    23    24    1
    24    23    22    1
    25    15    16    1
    26    32    33   ar
    27    32    31    1
    28     9     7    2
    29     7     3    1
    30    16    31    1
    31     2     3   ar
    32     2     1   ar
    33     3     4   ar
    34    22     1    1
    35     1     6   ar
    36     4     5   ar
    37     6     5   ar
    38     5    25    1
    39    25    29    1
    40    25    26   am
    41    29    28    1
    42    26    30    2
    43    26    27    1
    44    28    27    1
