@<TRIPOS>MOLECULE
2vj8_HA2_A_1.pdb
 29 30 0 0 0
SMALL
GASTEIGER

@<TRIPOS>ATOM
      1  C3         8.1010   39.2790   67.5910 C.ar  1616  HA21616    -0.0007
      2  C2         8.0020   37.9160   67.9260 C.ar  1616  HA21616    -0.0002
      3  C1         7.7700   37.5000   69.2450 C.ar  1616  HA21616    -0.0000
      4  C6         7.6320   38.4700   70.2610 C.ar  1616  HA21616    -0.0002
      5  C5         7.7190   39.8380   69.9300 C.ar  1616  HA21616    -0.0007
      6  C4         7.9510   40.2510   68.6080 C.ar  1616  HA21616     0.0212
      7  C7         8.0420   41.7380   68.2960 C.3   1616  HA21616     0.2320
      8  O1         8.3770   41.9640   66.9270 O.3   1616  HA21616    -0.4706
      9  C8         9.7120   42.1700   66.4550 C.ar  1616  HA21616     0.1390
     10  C13        9.9750   43.1500   65.4750 C.ar  1616  HA21616     0.0366
     11  C12       11.2920   43.3460   65.0070 C.ar  1616  HA21616    -0.0011
     12  C9        10.7740   41.3750   66.9610 C.ar  1616  HA21616     0.0366
     13  C10       12.0850   41.5780   66.4950 C.ar  1616  HA21616    -0.0011
     14  C11       12.3420   42.5640   65.5250 C.ar  1616  HA21616    -0.0205
     15  C14       13.7930   42.7920   65.0760 C.3   1616  HA21616     0.0471
     16  C15       14.0900   42.0900   63.7170 C.3   1616  HA21616     0.1164
     17  N2        13.5620   40.7250   63.7290 N.3   1616  HA21616    -0.1307
     18  C16       15.6120   42.0380   63.4580 C.3   1616  HA21616     0.1169
     19  N3        16.3700   41.7450   64.7040 N.am  1616  HA21616    -0.2830
     20  O2        16.1120   40.6190   65.3950 O.3   1616  HA21616    -0.4197
     21  C17       17.2980   42.6210   65.1480 C.2   1616  HA21616     0.0675
     22  O3        17.5160   43.6810   64.5390 O.2   1616  HA21616    -0.5413
     23  C18       18.0540   42.3010   66.4240 C.3   1616  HA21616     0.0495
     24  C19       18.9630   43.4560   66.8290 C.3   1616  HA21616     0.0072
     25  C20       18.4750   44.0680   68.1380 C.3   1616  HA21616     0.0122
     26  C21       18.8490   45.5480   68.2010 C.3   1616  HA21616     0.1141
     27  C22       17.6250   46.4020   68.4790 C.2   1616  HA21616     0.3649
     28  O5        17.7790   47.3410   69.2660 O.co2 1616  HA21616    -0.2457
     29  O4        16.5540   46.0980   67.8910 O.co2 1616  HA21616    -0.2457
@<TRIPOS>BOND
     1    18    16    1
     2    18    19    1
     3    16    17    1
     4    16    15    1
     5    22    21    2
     6    19    21   am
     7    19    20    1
     8    11    10   ar
     9    11    14   ar
    10    15    14    1
    11    21    23    1
    12    10     9   ar
    13    14    13   ar
    14    23    24    1
    15     9     8    1
    16     9    12   ar
    17    13    12   ar
    18    24    25    1
    19     8     7    1
    20     1     2   ar
    21     1     6   ar
    22    29    27   ar
    23     2     3   ar
    24    25    26    1
    25    26    27    1
    26     7     6    1
    27    27    28   ar
    28     6     5   ar
    29     3     4   ar
    30     5     4   ar
