@<TRIPOS>MOLECULE
2vj9_VG7_A_1.pdb
 36 39 0 0 0
SMALL
GASTEIGER

@<TRIPOS>ATOM
      1  C1        30.4160   -2.0680   35.6070 C.ar  1452  VG71452     0.0667
      2  C2        30.3500   -0.9060   34.7600 C.ar  1452  VG71452     0.0207
      3  C3        30.9270    0.3560   35.1590 C.ar  1452  VG71452     0.0576
      4  C4        31.5850    0.4630   36.4240 C.ar  1452  VG71452     0.0195
      5  C5        31.6690   -0.6870   37.2960 C.ar  1452  VG71452     0.0552
      6  C6        31.0750   -1.9470   36.8630 C.ar  1452  VG71452     0.0310
      7  C7        30.8390    1.4850   34.2560 C.2   1452  VG71452     0.2649
      8  N8        29.6270    1.6330   33.6520 N.am  1452  VG71452    -0.2004
      9  O9        31.7920    2.2360   34.0140 O.2   1452  VG71452    -0.2684
     10  C10       29.3300    2.6770   32.6430 C.3   1452  VG71452     0.1316
     11  C11       28.5830    1.9580   31.4630 C.3   1452  VG71452     0.0507
     12  C12       28.5240    3.8590   33.2420 C.3   1452  VG71452     0.1894
     13  O13       28.2410    4.8090   32.2340 O.3   1452  VG71452    -0.2197
     14  C14       29.2160    0.6140   31.0950 C.ar  1452  VG71452    -0.0204
     15  C15       29.3280    4.6090   34.2810 C.3   1452  VG71452     0.1232
     16  C17       28.4020   -0.5810   31.0510 C.ar  1452  VG71452    -0.0042
     17  C18       28.9820   -1.8580   30.7130 C.ar  1452  VG71452    -0.0003
     18  C19       30.3840   -1.9580   30.4180 C.ar  1452  VG71452    -0.0000
     19  C20       31.2030   -0.7790   30.4580 C.ar  1452  VG71452    -0.0003
     20  C21       30.6270    0.4960   30.7930 C.ar  1452  VG71452    -0.0042
     21  N38       29.8780   -3.3040   35.2640 N.pl3 1452  VG71452    -0.2376
     22  C39       29.3400   -3.6850   33.9500 C.3   1452  VG71452     0.1123
     23  C41       27.8110   -3.5610   33.9370 C.3   1452  VG71452     0.0251
     24  N47       32.3160   -0.5860   38.5220 N.am  1452  VG71452    -0.2586
     25  C48       31.8190   -1.0230   39.7150 C.2   1452  VG71452     0.2294
     26  C49       32.8260   -0.7430   40.8260 C.3   1452  VG71452     0.0874
     27  C50       34.0990   -0.3550   40.0630 C.3   1452  VG71452     0.0315
     28  C51       33.6510    0.0210   38.6630 C.3   1452  VG71452     0.0987
     29  O58       30.7390   -1.5660   39.9160 O.2   1452  VG71452    -0.2745
     30  N16       28.6010    5.7460   34.8660 N.3   1452  VG71452    -0.2167
     31  C59       29.5290    6.7230   35.4960 C.3   1452  VG71452     0.0729
     32  C61       30.0620    6.1540   36.8580 C.3   1452  VG71452     0.0174
     33  C62       31.0550    7.1740   37.5690 C.3   1452  VG71452     0.0014
     34  C63       31.2610    8.5010   36.7230 C.3   1452  VG71452     0.0001
     35  C64       29.8260    9.1080   36.4330 C.3   1452  VG71452     0.0014
     36  C65       28.8330    8.0940   35.7380 C.3   1452  VG71452     0.0174
@<TRIPOS>BOND
     1    18    19   ar
     2    18    17   ar
     3    19    20   ar
     4    17    16   ar
     5    20    14   ar
     6    16    14   ar
     7    14    11    1
     8    11    10    1
     9    13    12    1
    10    10    12    1
    11    10     8    1
    12    12    15    1
    13     8     7   am
    14    23    22    1
    15    22    21    1
    16     9     7    2
    17     7     3    1
    18    15    30    1
    19     2     3   ar
    20     2     1   ar
    21    30    31    1
    22     3     4   ar
    23    21     1    1
    24    31    36    1
    25    31    32    1
    26     1     6   ar
    27    36    35    1
    28     4     5   ar
    29    35    34    1
    30    34    33    1
    31    32    33    1
    32     6     5   ar
    33     5    24    1
    34    24    28    1
    35    24    25   am
    36    28    27    1
    37    25    29    2
    38    25    26    1
    39    27    26    1
