@<TRIPOS>MOLECULE
2vja_CCD_A_1.pdb
 10 9 0 0 0
SMALL
GASTEIGER

@<TRIPOS>ATOM
      1  O7        89.5610   53.5840   22.2590 O.3   1540  CCD1540    -0.2232
      2  C5        90.2510   52.9940   23.3660 C.3   1540  CCD1540     0.1520
      3  C6        90.9480   54.0230   24.2610 C.3   1540  CCD1540     0.0355
      4  C4        91.5910   52.3070   23.0790 C.3   1540  CCD1540     0.0308
      5  C3        91.4090   51.2230   22.0170 C.3   1540  CCD1540    -0.0197
      6  C2        92.7450   50.6150   21.5690 C.3   1540  CCD1540    -0.0732
      7  N1        92.7530   49.5280   20.5670 N.4   1540  CCD1540     0.3857
      8  C9        92.3360   49.9410   19.2160 C.3   1540  CCD1540    -0.0960
      9  C10       94.1650   49.1500   20.3960 C.3   1540  CCD1540    -0.0960
     10  C8        92.0060   48.3210   20.9710 C.3   1540  CCD1540    -0.0960
@<TRIPOS>BOND
     1     8     7    1
     2     9     7    1
     3     7    10    1
     4     7     6    1
     5     6     5    1
     6     5     4    1
     7     1     2    1
     8     4     2    1
     9     2     3    1
