@<TRIPOS>MOLECULE
2vjb_CCD_A_1.pdb
 10 9 0 0 0
SMALL
GASTEIGER

@<TRIPOS>ATOM
      1  O7        89.6920   53.3660   22.3200 O.3   1539  CCD1539    -0.2232
      2  C5        90.3990   52.7710   23.4130 C.3   1539  CCD1539     0.1520
      3  C6        91.2400   53.6340   24.3610 C.3   1539  CCD1539     0.0355
      4  C4        91.7670   52.1320   23.1310 C.3   1539  CCD1539     0.0308
      5  C3        91.6350   51.0150   22.0910 C.3   1539  CCD1539    -0.0197
      6  C2        92.9870   50.4590   21.6180 C.3   1539  CCD1539    -0.0732
      7  N1        93.0400   49.4370   20.5470 N.4   1539  CCD1539     0.3857
      8  C9        92.6970   49.9620   19.2130 C.3   1539  CCD1539    -0.0960
      9  C10       94.4530   49.0160   20.4650 C.3   1539  CCD1539    -0.0960
     10  C8        92.2330   48.2280   20.8130 C.3   1539  CCD1539    -0.0960
@<TRIPOS>BOND
     1     8     7    1
     2     9     7    1
     3     7    10    1
     4     7     6    1
     5     6     5    1
     6     5     4    1
     7     1     2    1
     8     4     2    1
     9     2     3    1
