@<TRIPOS>MOLECULE
2vjc_CHH_A_1.pdb
 10 9 0 0 0
SMALL
GASTEIGER

@<TRIPOS>ATOM
      1  O7       100.6280   53.8380   20.9360 O.3   1538  CHH1538    -0.2232
      2  C5       100.0490   54.0320   22.2500 C.3   1538  CHH1538     0.1520
      3  C6        99.3880   52.8330   22.9540 C.3   1538  CHH1538     0.0355
      4  C4       100.3220   55.3300   23.0690 C.3   1538  CHH1538     0.0308
      5  C3       100.8750   56.4930   22.2260 C.3   1538  CHH1538    -0.0197
      6  C2       102.4630   56.5930   22.3350 C.3   1538  CHH1538    -0.0732
      7  N1       103.1340   57.9630   22.2300 N.4   1538  CHH1538     0.3857
      8  C9       104.5760   57.7790   22.4130 C.3   1538  CHH1538    -0.0960
      9  C10      102.9660   58.6090   20.9030 C.3   1538  CHH1538    -0.0960
     10  C8       102.7210   58.9210   23.2860 C.3   1538  CHH1538    -0.0960
@<TRIPOS>BOND
     1     9     7    1
     2     1     2    1
     3     5     6    1
     4     5     4    1
     5     7     6    1
     6     7     8    1
     7     7    10    1
     8     2     3    1
     9     2     4    1
