@<TRIPOS>MOLECULE
2vjc_CCD_A_1.pdb
 10 9 0 0 0
SMALL
GASTEIGER

@<TRIPOS>ATOM
      1  O7        89.5830   53.6060   22.3740 O.3   1537  CCD1537    -0.2232
      2  C5        90.2530   52.8720   23.4020 C.3   1537  CCD1537     0.1520
      3  C6        90.7880   53.9960   24.2910 C.3   1537  CCD1537     0.0355
      4  C4        91.5630   52.1320   23.1030 C.3   1537  CCD1537     0.0308
      5  C3        91.3840   51.1360   21.9540 C.3   1537  CCD1537    -0.0197
      6  C2        92.7100   50.4610   21.5740 C.3   1537  CCD1537    -0.0732
      7  N1        92.7810   49.3970   20.5460 N.4   1537  CCD1537     0.3857
      8  C9        92.4130   49.8090   19.1810 C.3   1537  CCD1537    -0.0960
      9  C10       94.2050   49.0340   20.4170 C.3   1537  CCD1537    -0.0960
     10  C8        92.0460   48.1700   20.9050 C.3   1537  CCD1537    -0.0960
@<TRIPOS>BOND
     1     8     7    1
     2     9     7    1
     3     7    10    1
     4     7     6    1
     5     6     5    1
     6     5     4    1
     7     1     2    1
     8     4     2    1
     9     2     3    1
