@<TRIPOS>MOLECULE
2vjd_CCD_A_1.pdb
 10 9 0 0 0
SMALL
GASTEIGER

@<TRIPOS>ATOM
      1  O7        89.7560   53.6200   22.3780 O.3   1541  CCD1541    -0.2232
      2  C5        90.4130   52.8930   23.4220 C.3   1541  CCD1541     0.1520
      3  C6        91.1720   53.8320   24.3650 C.3   1541  CCD1541     0.0355
      4  C4        91.7350   52.1470   23.1850 C.3   1541  CCD1541     0.0308
      5  C3        91.6030   51.1670   22.0170 C.3   1541  CCD1541    -0.0197
      6  C2        92.9240   50.4640   21.6670 C.3   1541  CCD1541    -0.0732
      7  N1        92.9950   49.4000   20.6350 N.4   1541  CCD1541     0.3857
      8  C9        92.6120   49.8170   19.2730 C.3   1541  CCD1541    -0.0960
      9  C10       94.4120   49.0010   20.5280 C.3   1541  CCD1541    -0.0960
     10  C8        92.2610   48.1700   20.9960 C.3   1541  CCD1541    -0.0960
@<TRIPOS>BOND
     1     8     7    1
     2     9     7    1
     3     7    10    1
     4     7     6    1
     5     6     5    1
     6     5     4    1
     7     1     2    1
     8     4     2    1
     9     2     3    1
