@<TRIPOS>MOLECULE
2vjh_PUB_B_1.pdb
 43 46 0 0 0
SMALL
GASTEIGER

@<TRIPOS>ATOM
      1  CHC        5.2790   62.7230   49.4320 C.3   1050  PUB1050     0.0879
      2  NC         6.6850   60.6150   49.2100 N.2   1050  PUB1050    -0.4107
      3  C1C        7.7870   60.1980   48.5500 C.2   1050  PUB1050     0.1114
      4  C2C        8.3850   61.2420   47.7120 C.2   1050  PUB1050     0.0024
      5  C3C        7.5060   62.3940   47.9100 C.2   1050  PUB1050     0.0018
      6  C4C        6.4540   61.9310   48.8810 C.2   1050  PUB1050     0.1067
      7  CMC        7.7310   63.7210   47.2220 C.3   1050  PUB1050     0.0331
      8  CAC        9.6030   61.1550   46.8290 C.3   1050  PUB1050     0.0402
      9  CBC        9.1480   60.7700   45.4280 C.3   1050  PUB1050     0.1188
     10  CGC       10.3500   60.7120   44.5040 C.2   1050  PUB1050     0.3652
     11  O1C       11.3930   60.1410   44.8890 O.co2 1050  PUB1050    -0.2456
     12  O2C       10.2610   61.2470   43.3870 O.co2 1050  PUB1050    -0.2456
     13  ND         6.6540   64.3780   50.5000 N.2   1050  PUB1050    -0.2002
     14  C1D        5.5510   63.4460   50.7620 C.3   1050  PUB1050     0.1405
     15  C2D        4.4370   64.3770   51.0710 C.2   1050  PUB1050    -0.0139
     16  C3D        4.7980   65.8020   50.9110 C.2   1050  PUB1050     0.0545
     17  C4D        6.2280   65.6440   50.5470 C.1   1050  PUB1050     0.1456
     18  CMD        3.0930   63.7400   51.4170 C.3   1050  PUB1050     0.0288
     19  CBD        4.4460   67.7000   52.3690 C.3   1050  PUB1050     0.0058
     20  OD         7.0110   66.6210   50.3030 O.2   1050  PUB1050    -0.2226
     21  NA         7.0260   56.1120   53.7120 N.2   1050  PUB1050    -0.2002
     22  C1A        6.9740   55.1150   54.6170 C.1   1050  PUB1050     0.1456
     23  C2A        5.6250   54.5700   54.9190 C.2   1050  PUB1050     0.0549
     24  C3A        4.8510   55.4060   53.9830 C.2   1050  PUB1050    -0.0142
     25  C4A        5.6860   56.3680   53.1900 C.3   1050  PUB1050     0.1404
     26  CMA        5.1720   53.4930   55.8680 C.3   1050  PUB1050     0.0430
     27  CBA        2.6640   56.0100   54.8920 C.3   1050  PUB1050     0.0047
     28  OA         8.0150   54.6710   55.1990 O.2   1050  PUB1050    -0.2226
     29  CHA        5.6280   56.0430   51.7070 C.3   1050  PUB1050     0.0879
     30  CAA        3.3460   55.3300   53.7220 C.3   1050  PUB1050     0.0244
     31  CAD        3.9860   67.0640   51.0680 C.3   1050  PUB1050     0.0376
     32  NB         6.8290   57.5910   50.1430 N.2   1050  PUB1050    -0.4107
     33  C1B        6.8220   56.4680   50.8860 C.2   1050  PUB1050     0.1067
     34  C2B        8.1180   55.7370   50.7120 C.2   1050  PUB1050     0.0018
     35  C3B        8.8800   56.5620   49.7670 C.2   1050  PUB1050     0.0024
     36  C4B        7.9610   57.6720   49.4660 C.2   1050  PUB1050     0.1114
     37  CHB        8.3410   58.8220   48.5960 C.3   1050  PUB1050     0.1170
     38  CMB        8.5840   54.4430   51.3300 C.3   1050  PUB1050     0.0331
     39  CAB       10.2800   56.3760   49.2430 C.3   1050  PUB1050     0.0402
     40  CBB       11.1930   57.2340   50.1480 C.3   1050  PUB1050     0.1188
     41  CGB       11.1740   56.7340   51.5960 C.2   1050  PUB1050     0.3652
     42  O1B       11.7220   55.6430   51.8440 O.co2 1050  PUB1050    -0.2456
     43  O2B       10.5930   57.3790   52.5120 O.co2 1050  PUB1050    -0.2456
@<TRIPOS>BOND
     1    12    10   ar
     2    10    11   ar
     3    10     9    1
     4     9     8    1
     5     8     4    1
     6     7     5    1
     7     4     5    2
     8     4     3    1
     9     5     6    1
    10     3    37    1
    11     3     2    2
    12    37    36    1
    13     6     2    2
    14     6     1    1
    15    39    35    1
    16    39    40    1
    17     1    14    1
    18    36    35    1
    19    36    32    2
    20    35    34    2
    21    32    33    2
    22    40    41    1
    23    20    17    2
    24    13    17    2
    25    13    14    1
    26    17    16    1
    27    34    33    1
    28    34    38    1
    29    14    15    1
    30    33    29    1
    31    16    31    1
    32    16    15    2
    33    31    19    1
    34    15    18    1
    35    41    42   ar
    36    41    43   ar
    37    29    25    1
    38    25    21    1
    39    25    24    1
    40    21    22    2
    41    30    24    1
    42    30    27    1
    43    24    23    2
    44    22    23    1
    45    22    28    2
    46    23    26    1
