@<TRIPOS>MOLECULE
2vjh_PEB_A_1.pdb
 43 46 0 0 0
SMALL
GASTEIGER

@<TRIPOS>ATOM
      1  CHC       -9.4180   24.2730   11.3940 C.3   1082  PEB1082     0.0879
      2  NC        -9.7450   23.4320    9.0540 N.2   1082  PEB1082    -0.4107
      3  C1C      -10.1940   23.8640    7.8790 C.2   1082  PEB1082     0.1114
      4  C2C      -10.6940   25.2530    7.9260 C.2   1082  PEB1082     0.0024
      5  C3C      -10.4500   25.6280    9.3310 C.2   1082  PEB1082     0.0018
      6  C4C       -9.8480   24.4150    9.9620 C.2   1082  PEB1082     0.1067
      7  CMC      -10.7730   26.9640    9.9610 C.3   1082  PEB1082     0.0331
      8  CAC      -11.2830   26.0740    6.8070 C.3   1082  PEB1082     0.0402
      9  CBC      -10.2470   26.9840    6.1500 C.3   1082  PEB1082     0.1188
     10  CGC       -9.2560   26.1190    5.4020 C.2   1082  PEB1082     0.3652
     11  O1C       -9.6170   25.6190    4.3060 O.co2 1082  PEB1082    -0.2456
     12  O2C       -8.1150   25.9490    5.9110 O.co2 1082  PEB1082    -0.2456
     13  ND        -7.6150   25.9260   11.0740 N.2   1082  PEB1082    -0.1999
     14  C1D       -7.9320   24.5830   11.5930 C.3   1082  PEB1082     0.1408
     15  C2D       -7.4910   24.7140   12.9920 C.2   1082  PEB1082    -0.0099
     16  C3D       -6.9380   26.0350   13.3060 C.2   1082  PEB1082     0.0768
     17  C4D       -7.0890   26.7290   12.0090 C.1   1082  PEB1082     0.1497
     18  CMD       -7.6320   23.4750   13.8560 C.3   1082  PEB1082     0.0291
     19  CAD       -6.3210   26.4980   14.5710 C.2   1082  PEB1082     0.0110
     20  CBD       -5.5880   27.5980   14.5920 C.2   1082  PEB1082     0.0007
     21  OD        -6.7410   27.9600   11.7500 O.2   1082  PEB1082    -0.2223
     22  NA       -10.0470   16.3090    6.5480 N.2   1082  PEB1082    -0.3448
     23  C1A      -10.3190   15.0270    6.8000 C.1   1082  PEB1082     0.1788
     24  C2A      -10.4160   14.8590    8.2790 C.3   1082  PEB1082     0.1246
     25  C3A       -9.7520   16.0970    8.8690 C.3   1082  PEB1082     0.0660
     26  C4A       -9.7730   17.0220    7.6570 C.2   1082  PEB1082     0.1070
     27  CMA      -11.8990   14.7100    8.6220 C.3   1082  PEB1082     0.0192
     28  CBA       -8.7510   15.2050   10.9310 C.3   1082  PEB1082     0.0005
     29  OA       -10.4700   14.0910    5.9990 O.2   1082  PEB1082    -0.2142
     30  CHA       -9.5730   18.3480    7.7990 C.3   1082  PEB1082     0.1138
     31  CAA       -8.4120   15.7410    9.5470 C.3   1082  PEB1082     0.0078
     32  NB        -9.8320   20.6690    7.4400 N.2   1082  PEB1082    -0.4104
     33  C1B       -9.7230   19.4550    6.8260 C.2   1082  PEB1082     0.1111
     34  C2B      -10.0620   19.5200    5.3890 C.2   1082  PEB1082     0.0021
     35  C3B      -10.2590   20.9530    5.1580 C.2   1082  PEB1082     0.0024
     36  C4B      -10.1260   21.5600    6.4790 C.2   1082  PEB1082     0.1114
     37  CHB      -10.2360   23.0250    6.6690 C.3   1082  PEB1082     0.1170
     38  CMB      -10.1000   18.4610    4.3170 C.3   1082  PEB1082     0.0331
     39  CAB      -10.5960   21.6270    3.8440 C.3   1082  PEB1082     0.0402
     40  CBB      -12.1110   21.4350    3.6930 C.3   1082  PEB1082     0.1188
     41  CGB      -12.6400   21.8630    2.3460 C.2   1082  PEB1082     0.3652
     42  O1B      -12.0960   22.8080    1.7310 O.co2 1082  PEB1082    -0.2456
     43  O2B      -13.6250   21.2410    1.9000 O.co2 1082  PEB1082    -0.2456
@<TRIPOS>BOND
     1    42    41   ar
     2    43    41   ar
     3    41    40    1
     4    40    39    1
     5    39    35    1
     6    11    10   ar
     7    38    34    1
     8    35    34    2
     9    35    36    1
    10    34    33    1
    11    10    12   ar
    12    10     9    1
    13    29    23    2
    14     9     8    1
    15    36    37    1
    16    36    32    2
    17    22    23    2
    18    22    26    2
    19    37     3    1
    20    23    24    1
    21     8     4    1
    22    33    32    2
    23    33    30    1
    24    26    30    1
    25    26    25    1
    26     3     4    1
    27     3     2    2
    28     4     5    2
    29    24    27    1
    30    24    25    1
    31    25    31    1
    32     2     6    2
    33     5     7    1
    34     5     6    1
    35    31    28    1
    36     6     1    1
    37    13    14    1
    38    13    17    2
    39     1    14    1
    40    14    15    1
    41    21    17    2
    42    17    16    1
    43    15    16    2
    44    15    18    1
    45    16    19    1
    46    19    20    2
