@<TRIPOS>MOLECULE
2vjj_GLC_A_1.pdb
 11 11 0 0 0
SMALL
GASTEIGER

@<TRIPOS>ATOM
      1  C1         6.4640   16.0110   43.6470 C.3   725  GLC725      0.1777
      2  C2         5.5760   15.8110   44.8600 C.3   725  GLC725      0.2141
      3  C3         5.6210   17.0310   45.7680 C.3   725  GLC725      0.2173
      4  C4         7.0630   17.4490   46.0360 C.3   725  GLC725      0.2142
      5  C5         7.8550   17.7320   44.7360 C.3   725  GLC725      0.1810
      6  C6         9.3550   18.0410   44.9880 C.3   725  GLC725      0.2141
      7  O2         4.2300   15.5560   44.4520 O.3   725  GLC725     -0.2176
      8  O3         4.9680   16.6750   46.9900 O.3   725  GLC725     -0.2175
      9  O4         7.0380   18.6520   46.8130 O.3   725  GLC725     -0.2176
     10  O5         7.7510   16.5680   43.8710 O.3   725  GLC725     -0.3481
     11  O6         9.9850   16.9350   45.6380 O.3   725  GLC725     -0.2176
@<TRIPOS>BOND
     1     1    10    1
     2     1     2    1
     3    10     5    1
     4     7     2    1
     5     5     6    1
     6     5     4    1
     7     2     3    1
     8     6    11    1
     9     3     4    1
    10     3     8    1
    11     4     9    1
