@<TRIPOS>MOLECULE
2vjj_RAM_A_1.pdb
 11 11 0 0 0
SMALL
GASTEIGER

@<TRIPOS>ATOM
      1  C1        11.1190   12.9440   28.6240 C.3   720  RAM720      0.3023
      2  C2        10.6370   12.1070   27.4530 C.3   720  RAM720      0.2434
      3  C3         9.9620   12.9790   26.3790 C.3   720  RAM720      0.2198
      4  C4        10.8100   14.2580   26.0620 C.3   720  RAM720      0.2118
      5  C5        11.1720   14.9950   27.3710 C.3   720  RAM720      0.1509
      6  C6        12.1550   16.1480   27.1390 C.3   720  RAM720      0.0350
      7  O1         9.9270   13.3780   29.2570 O.3   720  RAM720     -0.1869
      8  O2        11.7710   11.4580   26.8760 O.3   720  RAM720     -0.2148
      9  O3         9.8060   12.1310   25.2150 O.3   720  RAM720     -0.2174
     10  O4        10.0670   15.1150   25.1760 O.3   720  RAM720     -0.2177
     11  O5        11.8640   14.1210   28.2650 O.3   720  RAM720     -0.3264
@<TRIPOS>BOND
     1    10     4    1
     2     9     3    1
     3     4     3    1
     4     4     5    1
     5     3     2    1
     6     8     2    1
     7     6     5    1
     8     5    11    1
     9     2     1    1
    10    11     1    1
    11     1     7    1
