@<TRIPOS>MOLECULE
2vjj_GAL_A_1.pdb
 11 11 0 0 0
SMALL
GASTEIGER

@<TRIPOS>ATOM
      1  C1         7.3170   14.6570   36.8310 C.3   722  GAL722      0.3022
      2  C2         8.5510   14.8480   35.9890 C.3   722  GAL722      0.2409
      3  C3         8.1110   15.3050   34.6220 C.3   722  GAL722      0.1899
      4  C4         6.9830   14.4520   34.0450 C.3   722  GAL722      0.0681
      5  C5         5.8210   14.2940   35.0610 C.3   722  GAL722      0.1534
      6  C6         4.8510   13.2260   34.6020 C.3   722  GAL722      0.2116
      7  O1         6.7400   15.9710   36.9360 O.3   722  GAL722     -0.1869
      8  O2         9.3640   15.8570   36.6050 O.3   722  GAL722     -0.2149
      9  O3         9.2940   15.2230   33.8300 O.3   722  GAL722     -0.2201
     10  O5         6.3430   13.8010   36.2810 O.3   722  GAL722     -0.3263
     11  O6         4.3650   13.5180   33.3180 O.3   722  GAL722     -0.2177
@<TRIPOS>BOND
     1    11     6    1
     2     9     3    1
     3     4     3    1
     4     4     5    1
     5     6     5    1
     6     3     2    1
     7     5    10    1
     8     2     8    1
     9     2     1    1
    10    10     1    1
    11     1     7    1
