@<TRIPOS>MOLECULE
2vjk_COA_A_1.pdb
 48 50 0 0 0
SMALL
GASTEIGER

@<TRIPOS>ATOM
      1  N1A      -47.5670   14.2830   27.0820 N.2   1169  COA1169     0.0021
      2  C2A      -47.0080   13.1360   27.5100 C.3   1169  COA1169     0.5254
      3  N3A      -45.8810   12.6580   26.9520 N.2   1169  COA1169    -0.0055
      4  C4A      -45.2790   13.3350   25.9330 C.2   1169  COA1169     0.3518
      5  C5A      -45.8410   14.5210   25.4770 C.2   1169  COA1169     0.2526
      6  C6A      -47.0080   14.9940   26.0730 C.2   1169  COA1169     0.4393
      7  N6A      -47.5700   16.1270   25.6560 N.pl3 1169  COA1169     0.2180
      8  N7A      -45.0580   14.9760   24.4770 N.2   1169  COA1169    -0.2095
      9  C8A      -44.0380   14.0960   24.3210 C.3   1169  COA1169     0.3377
     10  N9A      -44.1810   13.0980   25.2040 N.pl3 1169  COA1169    -0.1439
     11  C1B      -43.2810   11.9300   25.3860 C.3   1169  COA1169     0.3185
     12  C2B      -43.0690   11.1020   24.1320 C.3   1169  COA1169     0.2543
     13  O2B      -44.1640   10.2240   23.8680 O.3   1169  COA1169    -0.2131
     14  C3B      -41.8170   10.3400   24.4950 C.3   1169  COA1169     0.1928
     15  O3B      -42.2140    9.1570   25.1880 O.3   1169  COA1169    -0.2673
     16  P3B      -41.2310    7.9260   25.5220 P.3   1169  COA1169     0.5327
     17  O7A      -40.0980    7.9930   24.5250 O.2   1169  COA1169    -0.2224
     18  O8A      -40.8310    8.0800   26.9660 O.3   1169  COA1169    -0.1145
     19  O9A      -42.1310    6.7180   25.4530 O.3   1169  COA1169    -0.1145
     20  C4B      -41.0500   11.2760   25.4210 C.3   1169  COA1169     0.1795
     21  O4B      -41.9590   12.3300   25.7670 O.3   1169  COA1169    -0.3136
     22  C5B      -39.7720   11.8290   24.7890 C.3   1169  COA1169     0.1812
     23  O5B      -40.0750   12.6250   23.6410 O.3   1169  COA1169    -0.3112
     24  P1A      -39.3220   12.3910   22.2320 P.3   1169  COA1169     0.2189
     25  O1A      -39.6260   13.5460   21.3100 O.2   1169  COA1169    -0.5170
     26  O2A      -39.7720   11.0940   21.6070 O.3   1169  COA1169    -0.4371
     27  O3A      -37.7550   12.2620   22.5950 O.3   1169  COA1169    -0.2703
     28  P2A      -36.6890   13.4680   22.6600 P.3   1169  COA1169     0.2188
     29  O4A      -35.5600   12.9810   23.5420 O.3   1169  COA1169    -0.4371
     30  O5A      -37.3760   14.7660   22.9980 O.2   1169  COA1169    -0.5170
     31  O6A      -36.1070   13.5150   21.1540 O.3   1169  COA1169    -0.3138
     32  CBP      -36.2500   14.1430   18.8120 C.3   1169  COA1169     0.0645
     33  CCP      -36.2810   14.6220   20.2670 C.3   1169  COA1169     0.1519
     34  CDP      -36.5100   15.3490   17.9160 C.3   1169  COA1169     0.0056
     35  CEP      -34.8550   13.5990   18.5290 C.3   1169  COA1169     0.0056
     36  CAP      -37.3150   13.0600   18.5980 C.3   1169  COA1169     0.2312
     37  OAP      -38.6140   13.5890   18.9020 O.3   1169  COA1169    -0.2131
     38  C9P      -37.3020   12.5050   17.1910 C.2   1169  COA1169     0.2719
     39  O9P      -36.4340   11.5550   16.8400 O.2   1169  COA1169    -0.2706
     40  N8P      -38.1870   12.9860   16.3140 N.am  1169  COA1169    -0.2028
     41  C7P      -38.2690   12.5210   14.9330 C.3   1169  COA1169     0.1248
     42  C6P      -37.1900   13.1520   14.0560 C.3   1169  COA1169     0.1102
     43  C5P      -37.2470   14.6660   14.1120 C.2   1169  COA1169     0.2432
     44  O5P      -38.3350   15.2540   13.9830 O.2   1169  COA1169    -0.2733
     45  N4P      -36.0680   15.2740   14.2760 N.am  1169  COA1169    -0.2044
     46  C3P      -35.9090   16.6630   14.6910 C.3   1169  COA1169     0.1276
     47  C2P      -35.2490   17.4960   13.5910 C.3   1169  COA1169     0.0920
     48  S1P      -36.4320   17.8950   12.3440 S.3   1169  COA1169    -0.0802
@<TRIPOS>BOND
     1    48    47    1
     2    47    46    1
     3    44    43    2
     4    42    43    1
     5    42    41    1
     6    43    45   am
     7    45    46    1
     8    41    40    1
     9    40    38   am
    10    39    38    2
    11    38    36    1
    12    34    32    1
    13    35    32    1
    14    36    32    1
    15    36    37    1
    16    32    33    1
    17    33    31    1
    18    31    28    1
    19    25    24    2
    20    26    24    1
    21    24    27    1
    22    24    23    1
    23    27    28    1
    24    28    30    2
    25    28    29    1
    26    23    22    1
    27    13    12    1
    28    12    14    1
    29    12    11    1
    30     9     8    1
    31     9    10    1
    32     8     5    2
    33    14    15    1
    34    14    20    1
    35    17    16    2
    36    22    20    1
    37    15    16    1
    38    10    11    1
    39    10     4    1
    40    11    21    1
    41    20    21    1
    42    19    16    1
    43     5     4    1
    44     5     6    1
    45    16    18    1
    46     7     6    1
    47     4     3    2
    48     6     1    2
    49     3     2    1
    50     1     2    1
