@<TRIPOS>MOLECULE
2vjl_COA_A_1.pdb
 48 50 0 0 0
SMALL
GASTEIGER

@<TRIPOS>ATOM
      1  N1A      -13.9820  -47.7810  -22.9410 N.2   1169  COA1169     0.0021
      2  C2A      -12.8680  -47.1650  -22.5090 C.3   1169  COA1169     0.5254
      3  N3A      -12.4640  -46.0000  -23.0480 N.2   1169  COA1169    -0.0055
      4  C4A      -13.1790  -45.4190  -24.0490 C.2   1169  COA1169     0.3518
      5  C5A      -14.3320  -46.0350  -24.5110 C.2   1169  COA1169     0.2526
      6  C6A      -14.7310  -47.2400  -23.9340 C.2   1169  COA1169     0.4393
      7  N6A      -15.8300  -47.8580  -24.3570 N.pl3 1169  COA1169     0.2180
      8  N7A      -14.8360  -45.2560  -25.4920 N.2   1169  COA1169    -0.2095
      9  C8A      -14.0160  -44.1860  -25.6310 C.3   1169  COA1169     0.3377
     10  N9A      -13.0100  -44.2940  -24.7530 N.pl3 1169  COA1169    -0.1439
     11  C1B      -11.8860  -43.3410  -24.5630 C.3   1169  COA1169     0.3185
     12  C2B      -10.9810  -43.2280  -25.7790 C.3   1169  COA1169     0.2543
     13  O2B      -10.0820  -44.3370  -25.9030 O.3   1169  COA1169    -0.2131
     14  C3B      -10.2610  -41.9240  -25.4960 C.3   1169  COA1169     0.1928
     15  O3B       -9.0650  -42.2260  -24.7760 O.3   1169  COA1169    -0.2673
     16  P3B       -7.8680  -41.1760  -24.5270 P.3   1169  COA1169     0.5327
     17  O7A       -7.6660  -40.4650  -25.8470 O.2   1169  COA1169    -0.2224
     18  O8A       -8.2810  -40.3070  -23.3620 O.3   1169  COA1169    -0.1145
     19  O9A       -6.7100  -42.0060  -24.0300 O.3   1169  COA1169    -0.1145
     20  C4B      -11.2440  -41.1220  -24.6440 C.3   1169  COA1169     0.1795
     21  O4B      -12.3340  -42.0030  -24.3450 O.3   1169  COA1169    -0.3136
     22  C5B      -11.7400  -39.8500  -25.3290 C.3   1169  COA1169     0.1812
     23  O5B      -12.5080  -40.1620  -26.4930 O.3   1169  COA1169    -0.3112
     24  P1A      -12.1980  -39.4360  -27.9000 P.3   1169  COA1169     0.2189
     25  O1A      -13.3220  -39.7110  -28.8690 O.2   1169  COA1169    -0.5170
     26  O2A      -10.8850  -39.9200  -28.4660 O.3   1169  COA1169    -0.4371
     27  O3A      -12.1230  -37.8610  -27.5440 O.3   1169  COA1169    -0.2703
     28  P2A      -13.4260  -36.9120  -27.4200 P.3   1169  COA1169     0.2188
     29  O4A      -13.1000  -35.8590  -26.3910 O.3   1169  COA1169    -0.4371
     30  O5A      -14.6680  -37.7520  -27.2230 O.2   1169  COA1169    -0.5170
     31  O6A      -13.4600  -36.1630  -28.8570 O.3   1169  COA1169    -0.3138
     32  CBP      -14.0100  -36.2180  -31.2480 C.3   1169  COA1169     0.0645
     33  CCP      -14.5280  -36.2870  -29.8040 C.3   1169  COA1169     0.1519
     34  CDP      -15.1790  -36.5020  -32.1800 C.3   1169  COA1169     0.0056
     35  CEP      -13.5100  -34.8000  -31.4920 C.3   1169  COA1169     0.0056
     36  CAP      -12.8910  -37.2470  -31.4690 C.3   1169  COA1169     0.2312
     37  OAP      -13.3760  -38.5660  -31.1830 O.3   1169  COA1169    -0.2131
     38  C9P      -12.3260  -37.2350  -32.8690 C.2   1169  COA1169     0.2719
     39  O9P      -11.3470  -36.3890  -33.1840 O.2   1169  COA1169    -0.2706
     40  N8P      -12.8180  -38.1040  -33.7610 N.am  1169  COA1169    -0.2028
     41  C7P      -12.3510  -38.2120  -35.1400 C.3   1169  COA1169     0.1248
     42  C6P      -12.9770  -37.1860  -36.0810 C.3   1169  COA1169     0.1102
     43  C5P      -14.4910  -37.2770  -36.1150 C.2   1169  COA1169     0.2432
     44  O5P      -15.0540  -38.3640  -36.3350 O.2   1169  COA1169    -0.2733
     45  N4P      -15.1360  -36.1200  -35.9270 N.am  1169  COA1169    -0.2044
     46  C3P      -16.4920  -36.0160  -35.3980 C.3   1169  COA1169     0.1276
     47  C2P      -17.4240  -35.3000  -36.3750 C.3   1169  COA1169     0.0920
     48  S1P      -17.7670  -36.2930  -37.7890 S.3   1169  COA1169    -0.0802
@<TRIPOS>BOND
     1    48    47    1
     2    47    46    1
     3    44    43    2
     4    43    42    1
     5    43    45   am
     6    42    41    1
     7    45    46    1
     8    41    40    1
     9    40    38   am
    10    39    38    2
    11    38    36    1
    12    34    32    1
    13    35    32    1
    14    36    32    1
    15    36    37    1
    16    32    33    1
    17    33    31    1
    18    25    24    2
    19    31    28    1
    20    26    24    1
    21    24    27    1
    22    24    23    1
    23    27    28    1
    24    28    30    2
    25    28    29    1
    26    23    22    1
    27    13    12    1
    28    17    16    2
    29    12    14    1
    30    12    11    1
    31     9     8    1
    32     9    10    1
    33    14    15    1
    34    14    20    1
    35     8     5    2
    36    22    20    1
    37    15    16    1
    38    10    11    1
    39    10     4    1
    40    20    21    1
    41    11    21    1
    42    16    19    1
    43    16    18    1
    44     5     4    1
    45     5     6    1
    46     7     6    1
    47     4     3    2
    48     6     1    2
    49     3     2    1
    50     1     2    1
