@<TRIPOS>MOLECULE
2vjm_COA_A_1.pdb
 48 50 0 0 0
SMALL
GASTEIGER

@<TRIPOS>ATOM
      1  N1A      -14.2670  -47.7800   27.5460 N.2   1169  COA1169     0.0021
      2  C2A      -13.1370  -47.2200   28.0080 C.3   1169  COA1169     0.5254
      3  N3A      -12.6260  -46.1130   27.4410 N.2   1169  COA1169    -0.0055
      4  C4A      -13.2480  -45.5320   26.3830 C.2   1169  COA1169     0.3518
      5  C5A      -14.4180  -46.0910   25.8870 C.2   1169  COA1169     0.2526
      6  C6A      -14.9310  -47.2410   26.4920 C.2   1169  COA1169     0.4393
      7  N6A      -16.0520  -47.8160   26.0490 N.pl3 1169  COA1169     0.2180
      8  N7A      -14.8090  -45.3200   24.8510 N.2   1169  COA1169    -0.2095
      9  C8A      -13.9090  -44.3170   24.7140 C.3   1169  COA1169     0.3377
     10  N9A      -12.9580  -44.4510   25.6490 N.pl3 1169  COA1169    -0.1439
     11  C1B      -11.7750  -43.5740   25.8700 C.3   1169  COA1169     0.3185
     12  C2B      -10.9220  -43.3900   24.6260 C.3   1169  COA1169     0.2543
     13  O2B      -10.0840  -44.5200   24.3660 O.3   1169  COA1169    -0.2131
     14  C3B      -10.1380  -42.1480   24.9900 C.3   1169  COA1169     0.1928
     15  O3B       -8.9860  -42.5420   25.7270 O.3   1169  COA1169    -0.2673
     16  P3B       -7.7070  -41.5950   25.9950 P.3   1169  COA1169     0.5327
     17  O7A       -7.8040  -40.4570   25.0100 O.2   1169  COA1169    -0.2224
     18  O8A       -7.7600  -41.1890   27.4470 O.3   1169  COA1169    -0.1145
     19  O9A       -6.5320  -42.5280   25.8680 O.3   1169  COA1169    -0.1145
     20  C4B      -11.0760  -41.3440   25.8810 C.3   1169  COA1169     0.1795
     21  O4B      -12.1360  -42.2390   26.2430 O.3   1169  COA1169    -0.3136
     22  C5B      -11.6120  -40.0820   25.2060 C.3   1169  COA1169     0.1812
     23  O5B      -12.3570  -40.3950   24.0250 O.3   1169  COA1169    -0.3112
     24  P1A      -12.1200  -39.5780   22.6500 P.3   1169  COA1169     0.2189
     25  O1A      -13.2370  -39.8560   21.6740 O.2   1169  COA1169    -0.5170
     26  O2A      -10.7950  -40.0070   22.0650 O.3   1169  COA1169    -0.4371
     27  O3A      -12.0680  -38.0190   23.0770 O.3   1169  COA1169    -0.2703
     28  P2A      -13.3270  -37.0040   23.1480 P.3   1169  COA1169     0.2188
     29  O4A      -12.8860  -35.8680   24.0360 O.3   1169  COA1169    -0.4371
     30  O5A      -14.6040  -37.7350   23.4720 O.2   1169  COA1169    -0.5170
     31  O6A      -13.4160  -36.3870   21.6580 O.3   1169  COA1169    -0.3138
     32  CBP      -14.0690  -36.4550   19.3250 C.3   1169  COA1169     0.0645
     33  CCP      -14.5280  -36.5790   20.7810 C.3   1169  COA1169     0.1519
     34  CDP      -15.2490  -36.7390   18.4020 C.3   1169  COA1169     0.0056
     35  CEP      -13.6000  -35.0220   19.1110 C.3   1169  COA1169     0.0056
     36  CAP      -12.9340  -37.4560   19.0750 C.3   1169  COA1169     0.2312
     37  OAP      -13.3880  -38.7900   19.3480 O.3   1169  COA1169    -0.2131
     38  C9P      -12.3930  -37.3760   17.6700 C.2   1169  COA1169     0.2719
     39  O9P      -11.5190  -36.4300   17.3410 O.2   1169  COA1169    -0.2706
     40  N8P      -12.8240  -38.2740   16.7830 N.am  1169  COA1169    -0.2028
     41  C7P      -12.3390  -38.2800   15.4100 C.3   1169  COA1169     0.1248
     42  C6P      -12.9940  -37.2120   14.5420 C.3   1169  COA1169     0.1102
     43  C5P      -14.5020  -37.3390   14.5470 C.2   1169  COA1169     0.2432
     44  O5P      -15.0400  -38.4460   14.3780 O.2   1169  COA1169    -0.2733
     45  N4P      -15.1660  -36.1940   14.7190 N.am  1169  COA1169    -0.2044
     46  C3P      -16.5550  -36.1130   15.1590 C.3   1169  COA1169     0.1276
     47  C2P      -17.4380  -35.4150   14.1210 C.3   1169  COA1169     0.0920
     48  S1P      -18.2770  -36.5860   13.0980 S.3   1169  COA1169    -0.0802
@<TRIPOS>BOND
     1    48    47    1
     2    47    46    1
     3    44    43    2
     4    42    43    1
     5    42    41    1
     6    43    45   am
     7    45    46    1
     8    41    40    1
     9    40    38   am
    10    39    38    2
    11    38    36    1
    12    34    32    1
    13    36    32    1
    14    36    37    1
    15    35    32    1
    16    32    33    1
    17    33    31    1
    18    31    28    1
    19    25    24    2
    20    26    24    1
    21    24    27    1
    22    24    23    1
    23    27    28    1
    24    28    30    2
    25    28    29    1
    26    23    22    1
    27    13    12    1
    28    12    14    1
    29    12    11    1
    30     9     8    1
    31     9    10    1
    32     8     5    2
    33    14    15    1
    34    14    20    1
    35    17    16    2
    36    22    20    1
    37    10    11    1
    38    10     4    1
    39    15    16    1
    40    19    16    1
    41    11    21    1
    42    20    21    1
    43     5     4    1
    44     5     6    1
    45    16    18    1
    46     7     6    1
    47     4     3    2
    48     6     1    2
    49     3     2    1
    50     1     2    1
