@<TRIPOS>MOLECULE
2vjo_COA_A_1.pdb
 48 50 0 0 0
SMALL
GASTEIGER

@<TRIPOS>ATOM
      1  N1A      -15.2300  -49.0180  -21.8460 N.2   1169  COA1169     0.0021
      2  C2A      -14.1380  -48.4310  -21.3190 C.3   1169  COA1169     0.5254
      3  N3A      -13.6180  -47.3160  -21.8590 N.2   1169  COA1169    -0.0055
      4  C4A      -14.1910  -46.7600  -22.9630 C.2   1169  COA1169     0.3518
      5  C5A      -15.3140  -47.3520  -23.5250 C.2   1169  COA1169     0.2526
      6  C6A      -15.8360  -48.5030  -22.9450 C.2   1169  COA1169     0.4393
      7  N6A      -16.9140  -49.0910  -23.4570 N.pl3 1169  COA1169     0.2180
      8  N7A      -15.6700  -46.6050  -24.5880 N.2   1169  COA1169    -0.2095
      9  C8A      -14.7890  -45.5840  -24.6860 C.3   1169  COA1169     0.3377
     10  N9A      -13.8920  -45.6820  -23.6990 N.pl3 1169  COA1169    -0.1439
     11  C1B      -12.7460  -44.7720  -23.4500 C.3   1169  COA1169     0.3185
     12  C2B      -11.8940  -44.5770  -24.6980 C.3   1169  COA1169     0.2543
     13  O2B      -10.9800  -45.6530  -24.9210 O.3   1169  COA1169    -0.2131
     14  C3B      -11.1540  -43.3020  -24.3720 C.3   1169  COA1169     0.1928
     15  O3B       -9.9730  -43.7010  -23.6820 O.3   1169  COA1169    -0.2673
     16  P3B       -8.8420  -42.6880  -23.1510 P.3   1169  COA1169     0.5327
     17  O7A       -8.6960  -41.6420  -24.2310 O.2   1169  COA1169    -0.2224
     18  O8A       -9.2900  -42.1980  -21.7920 O.3   1169  COA1169    -0.1145
     19  O9A       -7.6310  -43.5580  -22.9180 O.3   1169  COA1169    -0.1145
     20  C4B      -12.1010  -42.5400  -23.4480 C.3   1169  COA1169     0.1795
     21  O4B      -13.1420  -43.4510  -23.0720 O.3   1169  COA1169    -0.3136
     22  C5B      -12.6960  -41.3010  -24.1180 C.3   1169  COA1169     0.1812
     23  O5B      -13.2780  -41.6600  -25.3750 O.3   1169  COA1169    -0.3112
     24  P1A      -13.3580  -40.6380  -26.6220 P.3   1169  COA1169     0.2189
     25  O1A      -13.6790  -41.4750  -27.8340 O.2   1169  COA1169    -0.5170
     26  O2A      -12.0930  -39.8460  -26.8460 O.3   1169  COA1169    -0.4371
     27  O3A      -14.6220  -39.6870  -26.2710 O.3   1169  COA1169    -0.2703
     28  P2A      -14.6080  -38.0790  -26.0930 P.3   1169  COA1169     0.2188
     29  O4A      -13.3670  -37.6300  -25.3600 O.3   1169  COA1169    -0.4371
     30  O5A      -15.9550  -37.6660  -25.5640 O.2   1169  COA1169    -0.5170
     31  O6A      -14.4730  -37.5490  -27.6090 O.3   1169  COA1169    -0.3138
     32  CBP      -15.0060  -37.6720  -30.0110 C.3   1169  COA1169     0.0645
     33  CCP      -15.5170  -37.7470  -28.5670 C.3   1169  COA1169     0.1519
     34  CDP      -16.1060  -38.2900  -30.8670 C.3   1169  COA1169     0.0056
     35  CEP      -14.8270  -36.2030  -30.3830 C.3   1169  COA1169     0.0056
     36  CAP      -13.6760  -38.4350  -30.1620 C.3   1169  COA1169     0.2312
     37  OAP      -13.8580  -39.8140  -29.8110 O.3   1169  COA1169    -0.2131
     38  C9P      -13.0590  -38.3170  -31.5400 C.2   1169  COA1169     0.2719
     39  O9P      -12.1650  -37.3730  -31.7980 O.2   1169  COA1169    -0.2706
     40  N8P      -13.4140  -39.1860  -32.4900 N.am  1169  COA1169    -0.2028
     41  C7P      -12.8690  -39.1370  -33.8430 C.3   1169  COA1169     0.1248
     42  C6P      -13.5820  -38.1040  -34.7280 C.3   1169  COA1169     0.1102
     43  C5P      -15.0930  -38.2150  -34.6330 C.2   1169  COA1169     0.2432
     44  O5P      -15.6460  -39.3030  -34.8340 O.2   1169  COA1169    -0.2733
     45  N4P      -15.7650  -37.0990  -34.3450 N.am  1169  COA1169    -0.2044
     46  C3P      -17.1830  -37.0810  -33.9990 C.3   1169  COA1169     0.1276
     47  C2P      -18.0640  -36.3640  -35.0180 C.3   1169  COA1169     0.0920
     48  S1P      -19.0990  -37.5080  -35.8850 S.3   1169  COA1169    -0.0802
@<TRIPOS>BOND
     1    48    47    1
     2    47    46    1
     3    44    43    2
     4    42    43    1
     5    42    41    1
     6    43    45   am
     7    45    46    1
     8    41    40    1
     9    40    38   am
    10    39    38    2
    11    38    36    1
    12    34    32    1
    13    35    32    1
    14    36    32    1
    15    36    37    1
    16    32    33    1
    17    33    31    1
    18    25    24    2
    19    31    28    1
    20    26    24    1
    21    24    27    1
    22    24    23    1
    23    27    28    1
    24    28    30    2
    25    28    29    1
    26    23    22    1
    27    13    12    1
    28    12    14    1
    29    12    11    1
    30     9     8    1
    31     9    10    1
    32     8     5    2
    33    14    15    1
    34    14    20    1
    35    17    16    2
    36    22    20    1
    37    10    11    1
    38    10     4    1
    39    15    16    1
    40     5     4    1
    41     5     6    1
    42     7     6    1
    43    11    21    1
    44    20    21    1
    45    16    19    1
    46    16    18    1
    47     4     3    2
    48     6     1    2
    49     3     2    1
    50     1     2    1
