@<TRIPOS>MOLECULE
2vjx_IFL_A_1.pdb
 11 11 0 0 0
SMALL
GASTEIGER

@<TRIPOS>ATOM
      1  O4        27.4990   49.6760    0.1600 O.3   1865  IFL1865    -0.2190
      2  C4        27.8660   48.5600   -0.6650 C.3   1865  IFL1865     0.2026
      3  C3        28.0820   47.3490    0.2770 C.3   1865  IFL1865     0.2861
      4  O3        29.4370   47.3890    0.7070 O.3   1865  IFL1865    -0.2022
      5  C2        27.8500   45.9500   -0.3650 C.1   1865  IFL1865     0.1593
      6  N         27.4610   45.9060   -1.6550 N.2   1865  IFL1865    -0.2040
      7  C7        27.1430   47.0500   -2.5230 C.3   1865  IFL1865     0.1428
      8  C5        26.7460   48.2780   -1.6720 C.3   1865  IFL1865     0.0923
      9  C6        26.3930   49.5350   -2.5100 C.3   1865  IFL1865     0.1867
     10  O6        27.4550   49.8620   -3.3990 O.3   1865  IFL1865    -0.2203
     11  O2        28.0350   44.9030    0.2690 O.2   1865  IFL1865    -0.2244
@<TRIPOS>BOND
     1    10     9    1
     2     7     8    1
     3     7     6    1
     4     9     8    1
     5     8     2    1
     6     6     5    2
     7     2     1    1
     8     2     3    1
     9     5    11    2
    10     5     3    1
    11     3     4    1
