@<TRIPOS>MOLECULE
2vjy_TPP_A_1.pdb
 26 27 0 0 0
SMALL
GASTEIGER

@<TRIPOS>ATOM
      1  N1'       12.3960    7.4730    3.6550 N.2   600  TPP600     -0.1861
      2  C2'       13.6050    6.8040    3.4630 C.1   600  TPP600      0.0663
      3  CM2       13.6910    5.4860    2.7400 C.3   600  TPP600      0.1291
      4  N3'       14.7590    7.3600    3.9500 N.2   600  TPP600     -0.3368
      5  C4'       14.7320    8.5730    4.5860 C.2   600  TPP600      0.2292
      6  N4'       15.9240    9.0100    5.0140 N.pl3 600  TPP600     -0.0925
      7  C5'       13.5020    9.2400    4.7990 C.2   600  TPP600      0.0654
      8  C6'       12.3090    8.6990    4.3150 C.2   600  TPP600      0.1115
      9  C7'       13.4110   10.5400    5.5640 C.3   600  TPP600      0.1237
     10  N3        13.7150   10.3020    7.0020 N.pl3 600  TPP600     -0.2970
     11  C2        14.9610   10.5600    7.5660 C.3   600  TPP600      0.1543
     12  S1        15.1290   10.2480    9.1490 S.3   600  TPP600     -0.0951
     13  C5        13.5560    9.7430    9.2180 C.2   600  TPP600      0.0164
     14  C4        12.8640    9.8220    7.9970 C.2   600  TPP600      0.0279
     15  CM4       11.3990    9.4160    7.8480 C.3   600  TPP600      0.0473
     16  C6        12.9870    9.3130   10.5640 C.3   600  TPP600      0.0661
     17  C7        13.6680    8.1360   11.2900 C.3   600  TPP600      0.1544
     18  O7        13.0840    7.9650   12.5690 O.3   600  TPP600     -0.3134
     19  PA        13.6920    6.9950   13.6930 P.3   600  TPP600      0.2230
     20  O1A       12.5890    6.6690   14.6750 O.3   600  TPP600     -0.4370
     21  O2A       14.3820    5.7840   13.0810 O.2   600  TPP600     -0.5169
     22  O3A       14.9120    7.8070   14.3100 O.3   600  TPP600     -0.2261
     23  PB        14.9950    8.7430   15.6270 P.3   600  TPP600      0.5373
     24  O1B       15.9740    7.9830   16.5740 O.3   600  TPP600     -0.1143
     25  O2B       15.5220   10.0400   15.1300 O.2   600  TPP600     -0.2221
     26  O3B       13.6080    8.9180   16.1680 O.3   600  TPP600     -0.1143
@<TRIPOS>BOND
     1     3     2    1
     2     2     1    2
     3     2     4    2
     4     1     8    1
     5     4     5    2
     6     8     7    2
     7     5     7    1
     8     5     6    1
     9     7     9    1
    10     9    10    1
    11    10    11    1
    12    10    14    1
    13    11    12    1
    14    15    14    1
    15    14    13    2
    16    12    13    1
    17    13    16    1
    18    16    17    1
    19    17    18    1
    20    18    19    1
    21    21    19    2
    22    19    22    1
    23    19    20    1
    24    22    23    1
    25    25    23    2
    26    23    26    1
    27    23    24    1
