@<TRIPOS>MOLECULE
2vk1_TPP_A_1.pdb
 26 27 0 0 0
SMALL
GASTEIGER

@<TRIPOS>ATOM
      1  N1'       37.7030  -17.2890    6.0670 N.2   600  TPP600     -0.1861
      2  C2'       37.6970  -15.9260    5.7700 C.1   600  TPP600      0.0663
      3  CM2       38.9540  -15.2080    5.4110 C.3   600  TPP600      0.1291
      4  N3'       36.5140  -15.2640    5.7550 N.2   600  TPP600     -0.3368
      5  C4'       35.3420  -15.8610    6.0710 C.2   600  TPP600      0.2292
      6  N4'       34.2580  -15.1090    6.0360 N.pl3 600  TPP600     -0.0925
      7  C5'       35.2910  -17.2270    6.4040 C.2   600  TPP600      0.0654
      8  C6'       36.5060  -17.9320    6.3930 C.2   600  TPP600      0.1115
      9  C7'       33.9630  -17.8960    6.7710 C.3   600  TPP600      0.1237
     10  N3        33.3870  -17.3200    8.0030 N.pl3 600  TPP600     -0.2970
     11  C2        32.3730  -16.3960    8.0720 C.3   600  TPP600      0.1543
     12  S1        31.9200  -15.9700    9.5770 S.3   600  TPP600     -0.0951
     13  C5        33.0610  -16.9490   10.2260 C.2   600  TPP600      0.0164
     14  C4        33.7820  -17.6570    9.2600 C.2   600  TPP600      0.0279
     15  CM4       34.8500  -18.6940    9.5090 C.3   600  TPP600      0.0473
     16  C6        33.2040  -17.0670   11.7370 C.3   600  TPP600      0.0661
     17  C7        33.4060  -15.7370   12.4890 C.3   600  TPP600      0.1544
     18  O7        33.5110  -16.1080   13.8600 O.3   600  TPP600     -0.3134
     19  PA        33.6060  -15.0090   14.9980 P.3   600  TPP600      0.2230
     20  O1A       33.9660  -15.6730   16.3020 O.3   600  TPP600     -0.4370
     21  O2A       34.5890  -13.9220   14.6110 O.2   600  TPP600     -0.5169
     22  O3A       32.1590  -14.3330   15.0620 O.3   600  TPP600     -0.2261
     23  PB        30.8540  -14.6190   16.0040 P.3   600  TPP600      0.5373
     24  O1B       30.7020  -13.3320   16.8480 O.3   600  TPP600     -0.1143
     25  O2B       29.7210  -14.9090   15.1000 O.2   600  TPP600     -0.2221
     26  O3B       31.1120  -15.8270   16.8700 O.3   600  TPP600     -0.1143
@<TRIPOS>BOND
     1     3     2    1
     2     4     2    2
     3     4     5    2
     4     2     1    2
     5     6     5    1
     6     1     8    1
     7     5     7    1
     8     8     7    2
     9     7     9    1
    10     9    10    1
    11    10    11    1
    12    10    14    1
    13    11    12    1
    14    14    15    1
    15    14    13    2
    16    12    13    1
    17    13    16    1
    18    16    17    1
    19    17    18    1
    20    18    19    1
    21    21    19    2
    22    19    22    1
    23    19    20    1
    24    22    23    1
    25    25    23    2
    26    23    24    1
    27    23    26    1
