@<TRIPOS>MOLECULE
2vk2_GZL_A_1.pdb
 12 12 0 0 0
SMALL
GASTEIGER

@<TRIPOS>ATOM
      1  C1        34.3220   26.9450   14.7440 C.2   1298  GZL1298     0.2744
      2  C2        33.8010   26.6480   13.5370 C.2   1298  GZL1298     0.2495
      3  C3        33.0400   27.6390   12.6760 C.3   1298  GZL1298     0.2467
      4  C4        33.1000   29.1180   12.9430 C.2   1298  GZL1298     0.2471
      5  C5        33.2940   29.7790   11.8100 C.2   1298  GZL1298     0.2692
      6  O1        34.9660   26.0270   15.4710 O.2   1298  GZL1298    -0.2798
      7  O2        33.8690   25.3890   13.0900 O.2   1298  GZL1298    -0.2847
      8  O3        33.4680   27.5390   11.3110 O.3   1298  GZL1298    -0.3090
      9  O4        32.8910   29.6460   14.1440 O.2   1298  GZL1298    -0.2850
     10  C6        33.5140   28.8280   10.6890 C.3   1298  GZL1298     0.3353
     11  O5        33.3350   31.0980   11.6130 O.2   1298  GZL1298    -0.2828
     12  O6        32.4950   28.9300    9.7000 O.3   1298  GZL1298    -0.1808
@<TRIPOS>BOND
     1    12    10    1
     2    10     8    1
     3    10     5    1
     4     8     3    1
     5    11     5    1
     6     5     4    2
     7     3     4    1
     8     3     2    1
     9     4     9    1
    10     7     2    1
    11     2     1    2
    12     1     6    1
