@<TRIPOS>MOLECULE
2vk4_TPP_A_1.pdb
 26 27 0 0 0
SMALL
GASTEIGER

@<TRIPOS>ATOM
      1  N1'       27.4620   -4.0810   -3.6540 N.2   600  TPP600     -0.1861
      2  C2'       26.6950   -4.0340   -2.5170 C.1   600  TPP600      0.0663
      3  CM2       25.1980   -3.8920   -2.6160 C.3   600  TPP600      0.1291
      4  N3'       27.3220   -4.1070   -1.2860 N.2   600  TPP600     -0.3368
      5  C4'       28.6830   -4.2520   -1.1830 C.2   600  TPP600      0.2292
      6  N4'       29.2310   -4.3610    0.0440 N.pl3 600  TPP600     -0.0925
      7  C5'       29.4700   -4.2690   -2.3570 C.2   600  TPP600      0.0654
      8  C6'       28.8580   -4.1850   -3.6120 C.2   600  TPP600      0.1115
      9  C7'       30.9750   -4.3480   -2.2380 C.3   600  TPP600      0.1237
     10  N3        31.5900   -3.0590   -1.7860 N.pl3 600  TPP600     -0.2970
     11  C2        32.0600   -2.8590   -0.5010 C.3   600  TPP600      0.1543
     12  S1        32.7020   -1.3940   -0.2190 S.3   600  TPP600     -0.0951
     13  C5        32.4830   -0.9640   -1.7620 C.2   600  TPP600      0.0164
     14  C4        31.8750   -1.9520   -2.5470 C.2   600  TPP600      0.0279
     15  CM4       31.5490   -1.8370   -4.0370 C.3   600  TPP600      0.0473
     16  C6        32.9830    0.4360   -2.1270 C.3   600  TPP600      0.0661
     17  C7        32.4950    1.5640   -1.2490 C.3   600  TPP600      0.1544
     18  O7        32.8500    2.7750   -1.9030 O.3   600  TPP600     -0.3134
     19  PA        32.5860    4.2110   -1.3060 P.3   600  TPP600      0.2230
     20  O1A       32.8350    5.3230   -2.2840 O.2   600  TPP600     -0.5169
     21  O2A       31.1800    4.4220   -0.8060 O.3   600  TPP600     -0.4370
     22  O3A       33.4930    4.1540    0.0200 O.3   600  TPP600     -0.2261
     23  PB        35.0240    4.6600    0.2100 P.3   600  TPP600      0.5373
     24  O1B       34.9460    5.7610    1.2450 O.3   600  TPP600     -0.1143
     25  O2B       35.7380    3.4550    0.6230 O.3   600  TPP600     -0.1143
     26  O3B       35.5670    5.2000   -1.1040 O.2   600  TPP600     -0.2221
@<TRIPOS>BOND
     1    15    14    1
     2     1     8    1
     3     1     2    2
     4     8     7    2
     5     3     2    1
     6    14    10    1
     7    14    13    2
     8     2     4    2
     9     7     9    1
    10     7     5    1
    11    20    19    2
    12     9    10    1
    13    16    13    1
    14    16    17    1
    15    18    19    1
    16    18    17    1
    17    10    11    1
    18    13    12    1
    19    19    21    1
    20    19    22    1
    21     4     5    2
    22     5     6    1
    23    26    23    2
    24    11    12    1
    25    22    23    1
    26    23    25    1
    27    23    24    1
