@<TRIPOS>MOLECULE
2vk6_DAN_A_1.pdb
 20 20 0 0 0
SMALL
GASTEIGER

@<TRIPOS>ATOM
      1  C1         0.8010   36.7770   19.9120 C.2   2692  DAN2692     0.4208
      2  C2         1.7000   35.6550   20.1620 C.2   2692  DAN2692     0.2163
      3  C3         1.2860   34.4930   20.7460 C.2   2692  DAN2692     0.0518
      4  C4         2.2710   33.3480   20.8140 C.3   2692  DAN2692     0.2007
      5  C5         3.6840   33.9360   20.8820 C.3   2692  DAN2692     0.1722
      6  C6         3.8980   34.7730   19.6310 C.3   2692  DAN2692     0.2215
      7  C7         5.2710   35.4510   19.5640 C.3   2692  DAN2692     0.2261
      8  C8         5.3990   36.4000   18.3420 C.3   2692  DAN2692     0.2185
      9  C9         6.8440   36.8460   18.3090 C.3   2692  DAN2692     0.2175
     10  C10        5.8220   32.9000   21.5750 C.2   2692  DAN2692     0.2420
     11  C11        6.7030   31.6670   21.5320 C.3   2692  DAN2692     0.0964
     12  N5         4.6450   32.8460   20.8920 N.am  2692  DAN2692    -0.2004
     13  O1A        1.1520   37.6470   19.0160 O.co2 2692  DAN2692    -0.2371
     14  O1B       -0.2840   36.8200   20.4590 O.co2 2692  DAN2692    -0.2371
     15  O4         2.0070   32.4330   21.9010 O.3   2692  DAN2692    -0.2162
     16  O6         2.9420   35.8290   19.5650 O.2   2692  DAN2692    -0.4684
     17  O7         5.4900   36.2340   20.7610 O.3   2692  DAN2692    -0.2164
     18  O8         5.0980   35.6760   17.1410 O.3   2692  DAN2692    -0.2174
     19  O9         7.0740   37.7710   17.1870 O.3   2692  DAN2692    -0.2175
     20  O10        6.1890   33.9130   22.2390 O.2   2692  DAN2692    -0.2733
@<TRIPOS>BOND
     1    18     8    1
     2    19     9    1
     3     9     8    1
     4     8     7    1
     5    13     1   ar
     6     7     6    1
     7     7    17    1
     8    16     6    1
     9    16     2    1
    10     6     5    1
    11     1     2    1
    12     1    14   ar
    13     2     3    2
    14     3     4    1
    15     4     5    1
    16     4    15    1
    17     5    12    1
    18    12    10   am
    19    11    10    1
    20    10    20    2
