@<TRIPOS>MOLECULE
2vk7_FSI_A_1.pdb
 21 21 0 0 0
SMALL
GASTEIGER

@<TRIPOS>ATOM
      1  O1B       19.0310    3.4270   -2.0330 O.co2 2693  FSI2693    -0.2429
      2  C1        18.6140    4.2620   -1.1940 C.2   2693  FSI2693     0.3942
      3  O1A       17.6150    4.9790   -1.3480 O.co2 2693  FSI2693    -0.2429
      4  C2        19.2690    4.2540    0.1640 C.3   2693  FSI2693     0.2533
      5  C3        19.0180    5.4100    1.0760 C.3   2693  FSI2693     0.2308
      6  F1        19.2450    6.5230    0.3760 F     2693  FSI2693    -0.2312
      7  C4        19.9580    5.4080    2.2830 C.3   2693  FSI2693     0.2096
      8  O4        19.7140    6.5820    3.0710 O.3   2693  FSI2693    -0.2182
      9  O6        20.6600    4.0210   -0.1000 O.3   2693  FSI2693    -0.3409
     10  C6        21.5740    4.0770    0.9990 C.3   2693  FSI2693     0.1712
     11  C5        21.4130    5.4010    1.8060 C.3   2693  FSI2693     0.1580
     12  N5        22.3000    5.4840    2.8870 N.am  2693  FSI2693    -0.2019
     13  C10       23.4570    6.1640    2.8340 C.2   2693  FSI2693     0.2420
     14  C11       24.2810    6.2040    4.1000 C.3   2693  FSI2693     0.0964
     15  O10       23.8930    6.6950    1.8020 O.2   2693  FSI2693    -0.2733
     16  C7        22.9680    3.9760    0.3970 C.3   2693  FSI2693     0.2134
     17  O7        23.2520    5.0980   -0.4350 O.3   2693  FSI2693    -0.2176
     18  C8        23.1180    2.7520   -0.4730 C.3   2693  FSI2693     0.2173
     19  O8        22.7730    1.5800    0.2730 O.3   2693  FSI2693    -0.2175
     20  C9        24.5700    2.6440   -0.9540 C.3   2693  FSI2693     0.2175
     21  O9        24.7690    1.5010   -1.7840 O.3   2693  FSI2693    -0.2175
@<TRIPOS>BOND
     1     1     2   ar
     2    21    20    1
     3     3     2   ar
     4     2     4    1
     5    20    18    1
     6    18    19    1
     7    18    16    1
     8    17    16    1
     9     9     4    1
    10     9    10    1
    11     4     5    1
    12     6     5    1
    13    16    10    1
    14    10    11    1
    15     5     7    1
    16    15    13    2
    17    11     7    1
    18    11    12    1
    19     7     8    1
    20    13    12   am
    21    13    14    1
