@<TRIPOS>MOLECULE
2vk8_TPP_A_1.pdb
 26 27 0 0 0
SMALL
GASTEIGER

@<TRIPOS>ATOM
      1  N1'        4.4580    1.1950    8.7990 N.2   1564  TPP1564    -0.1861
      2  C2'        5.7050    1.1900    9.3740 C.1   1564  TPP1564     0.0663
      3  CM2        6.9310    0.9650    8.5550 C.3   1564  TPP1564     0.1291
      4  N3'        5.8470    1.4070   10.7200 N.2   1564  TPP1564    -0.3368
      5  C4'        4.7350    1.6220   11.4910 C.2   1564  TPP1564     0.2292
      6  N4'        4.9380    1.8440   12.7810 N.pl3 1564  TPP1564    -0.0925
      7  C5'        3.4590    1.6060   10.9360 C.2   1564  TPP1564     0.0654
      8  C6'        3.3250    1.3980    9.5690 C.2   1564  TPP1564     0.1115
      9  C7'        2.2340    1.8210   11.7970 C.3   1564  TPP1564     0.1237
     10  N3         2.0580    0.7650   12.8060 N.pl3 1564  TPP1564    -0.2970
     11  C2         2.4500    0.8190   14.1390 C.3   1564  TPP1564     0.1543
     12  S1         2.1120   -0.4860   15.0540 S.3   1564  TPP1564    -0.0951
     13  C5         1.4490   -1.2020   13.7460 C.2   1564  TPP1564     0.0164
     14  C4         1.4660   -0.4270   12.5810 C.2   1564  TPP1564     0.0279
     15  CM4        0.8970   -0.8520   11.2470 C.3   1564  TPP1564     0.0473
     16  C6         0.8460   -2.5870   13.8830 C.3   1564  TPP1564     0.0661
     17  C7         1.7360   -3.7110   14.4050 C.3   1564  TPP1564     0.1544
     18  O7         0.9910   -4.9150   14.4070 O.3   1564  TPP1564    -0.3134
     19  PA         1.5850   -6.2410   15.0370 P.3   1564  TPP1564     0.2230
     20  O1A        0.7020   -7.4060   14.6480 O.3   1564  TPP1564    -0.4370
     21  O2A        3.0300   -6.4000   14.6330 O.2   1564  TPP1564    -0.5169
     22  O3A        1.5540   -5.9340   16.6210 O.3   1564  TPP1564    -0.2261
     23  PB         0.4310   -6.3030   17.7480 P.3   1564  TPP1564     0.5373
     24  O1B        1.1110   -7.2910   18.6760 O.3   1564  TPP1564    -0.1143
     25  O2B        0.0710   -5.0120   18.4180 O.3   1564  TPP1564    -0.1143
     26  O3B       -0.7780   -6.9420   17.0710 O.2   1564  TPP1564    -0.2221
@<TRIPOS>BOND
     1     3     2    1
     2     1     2    2
     3     1     8    1
     4     2     4    2
     5     8     7    2
     6     4     5    2
     7     7     5    1
     8     7     9    1
     9    15    14    1
    10     5     6    1
    11     9    10    1
    12    14    10    1
    13    14    13    2
    14    10    11    1
    15    13    16    1
    16    13    12    1
    17    16    17    1
    18    11    12    1
    19    17    18    1
    20    18    19    1
    21    21    19    2
    22    20    19    1
    23    19    22    1
    24    22    23    1
    25    26    23    2
    26    23    25    1
    27    23    24    1
