@<TRIPOS>MOLECULE
2vka_HEM_A_1.pdb
 43 50 0 0 0
SMALL
GASTEIGER

@<TRIPOS>ATOM
      1 FE         -1.4880   18.4270   -0.0350 Fe    1320  HEM1320     0.0000
      2  CHA       -3.2710   15.8940    1.6020 C.2   1320  HEM1320     0.0000
      3  CHB       -4.3780   20.3510   -0.1440 C.2   1320  HEM1320     0.0000
      4  CHC        0.3210   21.1020   -1.2440 C.2   1320  HEM1320     0.0000
      5  CHD        1.4230   16.7610    0.6880 C.2   1320  HEM1320     0.0000
      6  NA        -3.3970   18.1850    0.6620 N.ar  1320  HEM1320     0.0000
      7  C1A       -3.9330   17.0410    1.2320 C.ar  1320  HEM1320     0.0000
      8  C2A       -5.3500   17.2730    1.4130 C.ar  1320  HEM1320     0.0000
      9  C3A       -5.6470   18.4880    0.9360 C.ar  1320  HEM1320     0.0000
     10  C4A       -4.4410   19.0860    0.4420 C.ar  1320  HEM1320     0.0000
     11  CMA       -7.0490   19.1510    0.9170 C.3   1320  HEM1320     0.0000
     12  CAA       -6.3570   16.2950    2.0300 C.3   1320  HEM1320     0.0000
     13  CBA       -6.4630   16.5210    3.5390 C.3   1320  HEM1320     0.0000
     14  CGA       -7.5760   15.6650    4.1090 C.2   1320  HEM1320     0.0000
     15  O1A       -8.7720   15.9680    3.8280 O.co2 1320  HEM1320     0.0000
     16  O2A       -7.2730   14.6730    4.8130 O.co2 1320  HEM1320     0.0000
     17  NB        -1.9470   20.4060   -0.5920 N.2   1320  HEM1320     0.0000
     18  C1B       -3.2330   20.9360   -0.6420 C.2   1320  HEM1320     0.0000
     19  C2B       -3.1460   22.2250   -1.2630 C.2   1320  HEM1320     0.0000
     20  C3B       -1.8480   22.4310   -1.5920 C.2   1320  HEM1320     0.0000
     21  C4B       -1.0570   21.2990   -1.1520 C.2   1320  HEM1320     0.0000
     22  CMB       -4.3590   23.1310   -1.5490 C.3   1320  HEM1320     0.0000
     23  CAB       -1.3150   23.6850   -2.3100 C.2   1320  HEM1320     0.0000
     24  CBB       -0.0390   23.8700   -2.6290 C.2   1320  HEM1320     0.0000
     25  NC         0.5160   18.8610   -0.2130 N.ar  1320  HEM1320     0.0000
     26  C1C        1.0420   20.0460   -0.7040 C.ar  1320  HEM1320     0.0000
     27  C2C        2.4860   19.9450   -0.6360 C.ar  1320  HEM1320     0.0000
     28  C3C        2.8220   18.7740   -0.0940 C.ar  1320  HEM1320     0.0000
     29  C4C        1.5670   18.0460    0.1580 C.ar  1320  HEM1320     0.0000
     30  CMC        3.4300   21.0720   -1.1170 C.3   1320  HEM1320     0.0000
     31  CAC        4.3080   18.2900    0.1030 C.2   1320  HEM1320     0.0000
     32  CBC        4.6270   17.5620    1.1530 C.2   1320  HEM1320     0.0000
     33  ND        -1.0000   16.6090    1.0790 N.2   1320  HEM1320     0.0000
     34  C1D        0.2870   16.0690    0.9630 C.2   1320  HEM1320     0.0000
     35  C2D        0.2000   14.6650    1.2000 C.2   1320  HEM1320     0.0000
     36  C3D       -1.2590   14.3810    1.5140 C.2   1320  HEM1320     0.0000
     37  C4D       -1.9330   15.6450    1.4080 C.2   1320  HEM1320     0.0000
     38  CMD        1.3400   13.6310    1.1610 C.3   1320  HEM1320     0.0000
     39  CAD       -1.8360   12.9870    1.8520 C.3   1320  HEM1320     0.0000
     40  CBD       -2.1020   12.9370    3.3300 C.3   1320  HEM1320     0.0000
     41  CGD       -2.5930   11.5630    3.7600 C.2   1320  HEM1320     0.0000
     42  O1D       -2.6000   11.3010    4.9950 O.co2 1320  HEM1320     0.0000
     43  O2D       -2.9580   10.7140    2.8980 O.co2 1320  HEM1320     0.0000
@<TRIPOS>BOND
     1    24    23    2
     2    23    20    1
     3    20    19    2
     4    20    21    1
     5    22    19    1
     6    19    18    1
     7     4    21    2
     8     4    26    1
     9    21    17    1
    10    30    27    1
    11    26    27   ar
    12    26    25   ar
    13    18    17    2
    14    18     3    1
    15    27    28   ar
    16    17     1    1
    17    25     1    1
    18    25    29   ar
    19     3    10    2
    20    28    31    1
    21    28    29   ar
    22     1     6    1
    23     1    33    1
    24    31    32    2
    25    29     5    1
    26    10     6   ar
    27    10     9   ar
    28     6     7   ar
    29     5    34    2
    30    11     9    1
    31     9     8   ar
    32    34    33    1
    33    34    35    1
    34    33    37    2
    35    38    35    1
    36    35    36    2
    37     7     8   ar
    38     7     2    2
    39    37    36    1
    40    37     2    1
    41     8    12    1
    42    36    39    1
    43    39    40    1
    44    12    13    1
    45    43    41   ar
    46    40    41    1
    47    13    14    1
    48    41    42   ar
    49    15    14   ar
    50    14    16   ar
