@<TRIPOS>MOLECULE
2vkd_UPG_A_1.pdb
 36 38 0 0 0
SMALL
GASTEIGER

@<TRIPOS>ATOM
      1  N1        22.5270   27.1980   35.0310 N.am  1544  UPG1544    -0.1766
      2  C2        23.1540   27.8230   36.1460 C.1   1544  UPG1544     0.2845
      3  N3        22.7280   29.0220   36.6000 N.2   1544  UPG1544    -0.2452
      4  C4        21.7000   29.6570   36.0010 C.1   1544  UPG1544     0.2182
      5  C5        21.0720   29.0710   34.9010 C.2   1544  UPG1544     0.1242
      6  C6        21.5090   27.8330   34.4330 C.2   1544  UPG1544     0.0929
      7  O2        24.1090   27.2620   36.7240 O.2   1544  UPG1544    -0.1918
      8  O4        21.2980   30.7810   36.4070 O.2   1544  UPG1544    -0.2085
      9  C1C       22.9760   25.8950   34.5020 C.3   1544  UPG1544     0.2401
     10  C2C       22.6220   24.7160   35.3920 C.3   1544  UPG1544     0.2319
     11  O2C       23.8350   23.9760   35.5780 O.3   1544  UPG1544    -0.2157
     12  C3C       21.6480   23.9000   34.5640 C.3   1544  UPG1544     0.2158
     13  C4C       22.0740   24.2220   33.1380 C.3   1544  UPG1544     0.1799
     14  O4C       22.4150   25.6080   33.2050 O.3   1544  UPG1544    -0.3320
     15  O3C       21.6760   22.4890   34.8230 O.3   1544  UPG1544    -0.2175
     16  C5C       20.9740   23.9530   32.1240 C.3   1544  UPG1544     0.1813
     17  O5C       19.9670   24.9600   32.2210 O.3   1544  UPG1544    -0.3112
     18  PA        18.5140   24.7590   31.5620 P.3   1544  UPG1544     0.2189
     19  O1A       18.0010   23.3420   31.6230 O.2   1544  UPG1544    -0.5170
     20  O2A       17.5630   25.7390   32.2060 O.3   1544  UPG1544    -0.4371
     21  O3A       18.7110   25.2490   30.0480 O.3   1544  UPG1544    -0.2703
     22  PB        18.3670   24.3360   28.7710 P.3   1544  UPG1544     0.2208
     23  O1B       17.7540   23.0080   29.1230 O.3   1544  UPG1544    -0.4371
     24  O2B       17.4450   25.1440   27.8910 O.2   1544  UPG1544    -0.5170
     25  O3B       19.8420   24.1760   28.1440 O.3   1544  UPG1544    -0.2857
     26  C1'       20.2330   23.2500   27.1250 C.3   1544  UPG1544     0.2742
     27  C2'       20.6700   21.9200   27.7250 C.3   1544  UPG1544     0.2409
     28  C3'       21.7670   22.1430   28.7610 C.3   1544  UPG1544     0.2198
     29  C4'       22.9340   22.9180   28.1720 C.3   1544  UPG1544     0.2144
     30  C5'       22.5880   23.9880   27.1300 C.3   1544  UPG1544     0.1835
     31  C6'       23.7180   23.9440   26.1100 C.3   1544  UPG1544     0.2142
     32  O2'       19.5400   21.2900   28.3180 O.3   1544  UPG1544    -0.2149
     33  O3'       22.3020   20.8880   29.1910 O.3   1544  UPG1544    -0.2174
     34  O4'       23.6790   23.4870   29.2490 O.3   1544  UPG1544    -0.2176
     35  O5'       21.3540   23.7840   26.4090 O.3   1544  UPG1544    -0.3254
     36  O6'       24.3030   25.2330   25.9660 O.3   1544  UPG1544    -0.2176
@<TRIPOS>BOND
     1    36    31    1
     2    31    30    1
     3    35    26    1
     4    35    30    1
     5    26    27    1
     6    26    25    1
     7    30    29    1
     8    27    32    1
     9    27    28    1
    10    24    22    2
    11    25    22    1
    12    29    28    1
    13    29    34    1
    14    28    33    1
    15    22    23    1
    16    22    21    1
    17    21    18    1
    18    18    19    2
    19    18    20    1
    20    18    17    1
    21    16    17    1
    22    16    13    1
    23    13    14    1
    24    13    12    1
    25    14     9    1
    26     6     5    2
    27     6     1    1
    28     9     1    1
    29     9    10    1
    30    12    15    1
    31    12    10    1
    32     5     4    1
    33     1     2   am
    34    10    11    1
    35     4     8    2
    36     4     3    2
    37     2     3    2
    38     2     7    2
