@<TRIPOS>MOLECULE
2vke_TAC_A_1.pdb
 32 35 0 0 0
SMALL
GASTEIGER

@<TRIPOS>ATOM
      1  C1        19.0210   33.1510   34.1440 C.3   222  TAC222      0.2163
      2  O1        18.2590   33.6660   33.2460 O.3   222  TAC222     -0.2149
      3  C2        18.5600   31.9310   34.8340 C.2   222  TAC222      0.1032
      4  C21       17.3730   31.2480   34.3340 C.2   222  TAC222      0.2855
      5  O21       16.8930   30.3490   35.0460 O.2   222  TAC222     -0.2668
      6  N21       16.6610   31.7390   33.2850 N.am  222  TAC222     -0.0838
      7  C3        19.2890   31.5200   35.9570 C.2   222  TAC222      0.1905
      8  O3        19.0340   30.3980   36.5410 O.2   222  TAC222     -0.2900
      9  C4        20.3450   32.4170   36.6050 C.3   222  TAC222      0.1228
     10  N4        21.4240   31.6390   37.2770 N.3   222  TAC222     -0.2651
     11  C42       22.3980   31.0100   36.3550 C.3   222  TAC222      0.0900
     12  C43       22.1210   32.5180   38.2610 C.3   222  TAC222      0.0900
     13  C41       20.7310   33.7800   35.8760 C.3   222  TAC222      0.0605
     14  C5        19.8420   35.0010   36.2100 C.3   222  TAC222      0.0118
     15  C51       20.3150   36.3230   35.5960 C.3   222  TAC222      0.0560
     16  C6        19.2200   37.3680   35.7260 C.3   222  TAC222      0.1488
     17  C62       18.6750   37.6270   37.1370 C.3   222  TAC222      0.0379
     18  O6        18.0570   36.8680   34.9890 O.3   222  TAC222     -0.2209
     19  C61       19.7070   38.6660   35.0940 C.ar  222  TAC222      0.0071
     20  C7        19.2940   39.9380   35.5210 C.ar  222  TAC222     -0.0019
     21  C8        19.7560   41.0980   34.8380 C.ar  222  TAC222      0.0030
     22  C9        20.6060   40.9980   33.7100 C.ar  222  TAC222      0.0418
     23  C10       20.9690   39.7170   33.2620 C.ar  222  TAC222      0.1942
     24  O10       21.7410   39.5110   32.1890 O.3   222  TAC222     -0.2868
     25  C1A       20.5640   38.5750   33.9540 C.ar  222  TAC222      0.0489
     26  C11       21.1040   37.3310   33.4270 C.3   222  TAC222      0.1984
     27  O11       21.6600   37.4260   32.2610 O.3   222  TAC222     -0.2135
     28  C1B       20.8300   36.1220   34.1210 C.2   222  TAC222      0.0294
     29  C12       20.9590   34.8060   33.5660 C.2   222  TAC222      0.1981
     30  O12       21.4280   34.5100   32.3110 O.2   222  TAC222     -0.2892
     31  C1C       20.5310   33.5760   34.3740 C.3   222  TAC222      0.2139
     32  O1C       21.3910   32.5330   33.8750 O.3   222  TAC222     -0.2147
@<TRIPOS>BOND
     1    24    23    1
     2    27    26    1
     3    30    29    1
     4     2     1    1
     5    23    22   ar
     6    23    25   ar
     7     6     4   am
     8    26    25    1
     9    26    28    1
    10    29    28    2
    11    29    31    1
    12    22    21   ar
    13    32    31    1
    14    25    19   ar
    15    28    15    1
    16     1    31    1
    17     1     3    1
    18     4     3    1
    19     4     5    2
    20    31    13    1
    21     3     7    2
    22    21    20   ar
    23    18    16    1
    24    19    20   ar
    25    19    16    1
    26    15    16    1
    27    15    14    1
    28    16    17    1
    29    13    14    1
    30    13     9    1
    31     7     8    1
    32     7     9    1
    33    11    10    1
    34     9    10    1
    35    10    12    1
