@<TRIPOS>MOLECULE
2vkf_CF2_A_1.pdb
 42 47 0 0 0
SMALL
GASTEIGER

@<TRIPOS>ATOM
      1  O6A        2.5800   27.6160   -6.4470 O.2   1066  CF21066    -0.2069
      2  C6A        3.5160   28.1330   -5.7960 C.1   1066  CF21066     0.2372
      3  N1A        4.6650   28.5400   -6.3990 N.2   1066  CF21066    -0.2485
      4  C2A        5.7000   29.1130   -5.7140 C.1   1066  CF21066     0.2531
      5  N2A        6.8230   29.4930   -6.3760 N.pl3 1066  CF21066    -0.0226
      6  N3A        5.6520   29.3050   -4.3710 N.2   1066  CF21066    -0.3074
      7 C5AA        3.4040   28.3200   -4.3270 C.2   1066  CF21066     0.2182
      8 C4AA        4.5590   28.9390   -3.6520 C.2   1066  CF21066     0.2299
      9  N7A        2.4860   28.0670   -3.3720 N.2   1066  CF21066    -0.2322
     10  C8A        3.0030   28.4850   -2.1890 C.3   1066  CF21066     0.2245
     11  N9A        4.2360   29.0100   -2.3660 N.pl3 1066  CF21066    -0.2374
     12 C1'A        5.1520   29.5560   -1.3430 C.3   1066  CF21066     0.1981
     13 C2'A        4.4280   29.9760   -0.0720 C.3   1066  CF21066     0.0865
     14 C3'A        5.2820   29.4130    1.0440 C.3   1066  CF21066     0.1869
     15 O3'A        6.1190   30.4720    1.5320 O.3   1066  CF21066    -0.2203
     16 O4'A        6.0770   28.5070   -1.0170 O.3   1066  CF21066    -0.3335
     17 C4'A        6.1300   28.3190    0.4020 C.3   1066  CF21066     0.1909
     18 C5'A        5.6620   26.9170    0.7810 C.3   1066  CF21066     0.2421
     19  O1'        4.3540   26.6910    0.2510 O.3   1066  CF21066    -0.4308
     20  C5'        3.6630   25.4540    0.5430 C.2   1066  CF21066     0.4213
     21  O2'        4.2800   24.5850    1.1500 O.2   1066  CF21066    -0.2246
     22  N1'        2.4050   25.2880    0.1340 N.am  1066  CF21066    -0.1669
     23  C4'        1.6090   24.0890    0.3810 C.3   1066  CF21066     0.1405
     24  C1'        2.0240   23.2280   -0.7860 C.3   1066  CF21066     0.1216
     25  N10        1.7320   21.7800   -0.8270 N.pl3 1066  CF21066    -0.2554
     26  C9A        2.2270   20.7840    0.0460 C.2   1066  CF21066     0.0792
     27  C5A        1.8930   19.4370   -0.2020 C.2   1066  CF21066     0.1277
     28  C6         2.3690   18.4460    0.6630 C.3   1066  CF21066     0.0820
     29  C7         3.1760   18.7820    1.7560 C.2   1066  CF21066    -0.0408
     30  C7M        3.6650   17.6690    2.6550 C.3   1066  CF21066     0.0265
     31  C8         3.5030   20.1110    2.0010 C.2   1066  CF21066    -0.0280
     32  C8M        4.3630   20.5130    3.1750 C.3   1066  CF21066     0.0304
     33  C9         3.0290   21.1140    1.1530 C.2   1066  CF21066     0.0123
     34  N5         1.1160   19.0820   -1.2700 N.2   1066  CF21066    -0.3882
     35  C4A        0.6380   20.0330   -2.1190 C.2   1066  CF21066     0.2703
     36  C4        -0.1570   19.7200   -3.2290 C.1   1066  CF21066     0.2513
     37  O4        -0.4720   18.5400   -3.4840 O.2   1066  CF21066    -0.2057
     38  N3        -0.5950   20.7160   -4.0410 N.2   1066  CF21066    -0.2300
     39  C10        0.9430   21.3790   -1.9120 C.2   1066  CF21066     0.2448
     40  N1         0.4880   22.3440   -2.7450 N.2   1066  CF21066    -0.2887
     41  C2        -0.2830   22.0140   -3.8050 C.1   1066  CF21066     0.3669
     42  O2        -0.6980   22.9280   -4.5490 O.2   1066  CF21066    -0.1744
@<TRIPOS>BOND
     1     1     2    2
     2     3     2    2
     3     3     4    2
     4     5     4    1
     5     2     7    1
     6     4     6    2
     7    42    41    2
     8     6     8    2
     9     7     8    1
    10     7     9    2
    11    38    41    2
    12    38    36    2
    13    41    40    2
    14     8    11    1
    15    37    36    2
    16     9    10    1
    17    36    35    1
    18    40    39    2
    19    11    10    1
    20    11    12    1
    21    35    39    1
    22    35    34    2
    23    39    25    1
    24    12    16    1
    25    12    13    1
    26    34    27    2
    27    16    17    1
    28    25    24    1
    29    25    26    1
    30    24    23    1
    31    27    26    1
    32    27    28    1
    33    13    14    1
    34    26    33    2
    35    22    23    1
    36    22    20   am
    37    19    20    1
    38    19    18    1
    39    17    18    1
    40    17    14    1
    41    20    21    2
    42    28    29    1
    43    14    15    1
    44    33    31    1
    45    29    31    2
    46    29    30    1
    47    31    32    1
