@<TRIPOS>MOLECULE
2vkg_CF4_A_1.pdb
 26 28 0 0 0
SMALL
GASTEIGER

@<TRIPOS>ATOM
      1  O4        -0.2660   19.1720   -3.7720 O.2   1064  CF41064    -0.2057
      2  C4        -0.1010   20.3340   -3.4460 C.1   1064  CF41064     0.2513
      3  N3        -0.5800   21.3070   -4.1890 N.2   1064  CF41064    -0.2300
      4  C2        -0.3900   22.5670   -3.8380 C.1   1064  CF41064     0.3669
      5  O2        -0.8230   23.4670   -4.5130 O.2   1064  CF41064    -0.1744
      6  N1         0.2600   22.9070   -2.7560 N.2   1064  CF41064    -0.2887
      7  C4A        0.6070   20.6760   -2.2660 C.2   1064  CF41064     0.2703
      8  C10        0.7900   22.0000   -1.9370 C.2   1064  CF41064     0.2448
      9  N5         1.0850   19.7310   -1.4930 N.2   1064  CF41064    -0.3882
     10  C5A        1.7560   19.9980   -0.3960 C.2   1064  CF41064     0.1277
     11  C6         2.2220   18.9460    0.3550 C.3   1064  CF41064     0.0820
     12  C7         2.9400   19.1550    1.5120 C.2   1064  CF41064    -0.0408
     13  C7M        3.4610   18.0190    2.3320 C.3   1064  CF41064     0.0265
     14  C8         3.1580   20.4230    1.9100 C.2   1064  CF41064    -0.0280
     15  C8M        3.9070   20.6420    3.1700 C.3   1064  CF41064     0.0304
     16  C9         2.6850   21.4880    1.1810 C.2   1064  CF41064     0.0123
     17  C9A        1.9760   21.2950    0.0070 C.2   1064  CF41064     0.0792
     18  N10        1.5120   22.3600   -0.7850 N.pl3 1064  CF41064    -0.2572
     19  C1'        1.6690   23.7670   -0.3840 C.3   1064  CF41064     0.0982
     20  C2'        2.8670   24.5870   -0.8540 C.3   1064  CF41064     0.0237
     21  C3'        3.1660   25.8080    0.0410 C.3   1064  CF41064     0.0253
     22  C4'        4.6440   26.0640    0.3930 C.3   1064  CF41064     0.1188
     23  N1'        4.7330   27.5070    0.5240 N.am  1064  CF41064    -0.1657
     24  C5'        4.7730   28.2100    1.6330 C.2   1064  CF41064     0.4629
     25  O1'        4.8230   29.6580    1.6550 O.co2 1064  CF41064    -0.2207
     26  O2'        4.7930   27.7030    2.7130 O.co2 1064  CF41064    -0.2207
@<TRIPOS>BOND
     1     5     4    2
     2     3     4    2
     3     3     2    2
     4     4     6    2
     5     1     2    2
     6     2     7    1
     7     6     8    2
     8     7     8    1
     9     7     9    2
    10     8    18    1
    11     9    10    2
    12    20    19    1
    13    20    21    1
    14    18    19    1
    15    18    17    1
    16    10    17    1
    17    10    11    1
    18    17    16    2
    19    21    22    1
    20    11    12    1
    21    22    23    1
    22    23    24   am
    23    16    14    1
    24    12    14    2
    25    12    13    1
    26    24    25   ar
    27    24    26   ar
    28    14    15    1
