@<TRIPOS>MOLECULE
2vkh_UPG_A_1.pdb
 36 38 0 0 0
SMALL
GASTEIGER

@<TRIPOS>ATOM
      1  N1        22.3170   26.0860   34.6720 N.am  1544  UPG1544    -0.1766
      2  C2        22.9160   26.6710   35.8260 C.1   1544  UPG1544     0.2845
      3  N3        22.4330   27.8280   36.3120 N.2   1544  UPG1544    -0.2452
      4  C4        21.3750   28.4240   35.7490 C.1   1544  UPG1544     0.2182
      5  C5        20.7570   27.8670   34.6130 C.2   1544  UPG1544     0.1242
      6  C6        21.2610   26.6800   34.0720 C.2   1544  UPG1544     0.0929
      7  O2        23.9060   26.1410   36.3920 O.2   1544  UPG1544    -0.1918
      8  O4        20.9400   29.4930   36.2500 O.2   1544  UPG1544    -0.2085
      9  C1C       22.8520   24.8230   34.1480 C.3   1544  UPG1544     0.2401
     10  C2C       22.3540   23.7280   35.0470 C.3   1544  UPG1544     0.2319
     11  O2C       23.4840   22.8680   35.1990 O.3   1544  UPG1544    -0.2157
     12  C3C       21.2500   23.0530   34.2680 C.3   1544  UPG1544     0.2158
     13  C4C       21.7620   23.2030   32.8560 C.3   1544  UPG1544     0.1799
     14  O4C       22.3720   24.4910   32.8490 O.3   1544  UPG1544    -0.3320
     15  O3C       21.0950   21.6780   34.6540 O.3   1544  UPG1544    -0.2175
     16  C5C       20.7030   23.1330   31.7650 C.3   1544  UPG1544     0.1813
     17  O5C       19.6740   24.0280   32.1170 O.3   1544  UPG1544    -0.3112
     18  PA        18.2350   23.9610   31.4270 P.3   1544  UPG1544     0.2189
     19  O1A       17.8490   22.5150   31.3340 O.2   1544  UPG1544    -0.5170
     20  O2A       17.2110   24.7370   32.2060 O.3   1544  UPG1544    -0.4371
     21  O3A       18.4660   24.7950   30.0660 O.3   1544  UPG1544    -0.2703
     22  PB        18.1880   24.1770   28.6300 P.3   1544  UPG1544     0.2208
     23  O1B       16.8590   23.4290   28.6840 O.3   1544  UPG1544    -0.4371
     24  O2B       18.1960   25.2390   27.5670 O.2   1544  UPG1544    -0.5170
     25  O3B       19.4580   23.1650   28.4720 O.3   1544  UPG1544    -0.2857
     26  C1'       19.7850   22.4560   27.2740 C.3   1544  UPG1544     0.2742
     27  C2'       20.3650   21.0770   27.5560 C.3   1544  UPG1544     0.2409
     28  C3'       21.5700   21.2420   28.4930 C.3   1544  UPG1544     0.2198
     29  C4'       22.6340   22.2140   27.9670 C.3   1544  UPG1544     0.2144
     30  C5'       22.0390   23.4160   27.2180 C.3   1544  UPG1544     0.1835
     31  C6'       22.9960   23.8400   26.1140 C.3   1544  UPG1544     0.2142
     32  O2'       19.3430   20.2200   28.1040 O.3   1544  UPG1544    -0.2149
     33  O3'       22.1690   19.9770   28.7230 O.3   1544  UPG1544    -0.2174
     34  O4'       23.4670   22.6700   29.0590 O.3   1544  UPG1544    -0.2176
     35  O5'       20.8000   23.1350   26.5480 O.3   1544  UPG1544    -0.3254
     36  O6'       23.8670   24.8500   26.6440 O.3   1544  UPG1544    -0.2176
@<TRIPOS>BOND
     1    31    36    1
     2    31    30    1
     3    35    30    1
     4    35    26    1
     5    30    29    1
     6    26    27    1
     7    26    25    1
     8    27    32    1
     9    27    28    1
    10    24    22    2
    11    29    28    1
    12    29    34    1
    13    25    22    1
    14    28    33    1
    15    22    23    1
    16    22    21    1
    17    21    18    1
    18    19    18    2
    19    18    17    1
    20    18    20    1
    21    16    17    1
    22    16    13    1
    23    14    13    1
    24    14     9    1
    25    13    12    1
    26     6     5    2
    27     6     1    1
    28     9     1    1
    29     9    10    1
    30    12    15    1
    31    12    10    1
    32     5     4    1
    33     1     2   am
    34    10    11    1
    35     4     8    2
    36     4     3    2
    37     2     3    2
    38     2     7    2
