@<TRIPOS>MOLECULE
2vkm_BSD_A_1.pdb
 47 50 0 0 0
SMALL
GASTEIGER

@<TRIPOS>ATOM
      1  C11        4.4130   -5.1950   33.1000 C.ar  1386  BSD1386    -0.0026
      2  C12        5.2420   -4.3600   33.8900 C.ar  1386  BSD1386    -0.0003
      3  C13        4.6980   -3.6390   34.9800 C.ar  1386  BSD1386    -0.0000
      4  C14        3.3210   -3.7450   35.2880 C.ar  1386  BSD1386    -0.0003
      5  C15        2.4880   -4.5800   34.4980 C.ar  1386  BSD1386    -0.0026
      6  C16        3.0360   -5.3160   33.3940 C.ar  1386  BSD1386    -0.0026
      7  C17        2.1700   -6.2270   32.5070 C.3   1386  BSD1386     0.1178
      8  C18        1.4620   -7.3670   33.2600 C.3   1386  BSD1386     0.0283
      9  N21        1.1280   -5.4320   31.8290 N.am  1386  BSD1386    -0.1989
     10  C21        1.1560   -5.1180   30.5150 C.2   1386  BSD1386     0.2651
     11  O21        2.0810   -5.4990   29.7990 O.2   1386  BSD1386    -0.2684
     12  C23        0.0270   -4.2640   29.9990 C.ar  1386  BSD1386     0.0565
     13  C24        0.2420   -3.3430   28.9160 C.ar  1386  BSD1386     0.0207
     14  C25       -0.8230   -2.4980   28.4210 C.ar  1386  BSD1386     0.0688
     15  C26       -2.0970   -2.6130   29.0440 C.ar  1386  BSD1386     0.0207
     16  C27       -2.3290   -3.5250   30.1210 C.ar  1386  BSD1386     0.0565
     17  C28       -1.2590   -4.3250   30.5690 C.ar  1386  BSD1386     0.0092
     18  N22       -0.5840   -1.5810   27.2910 N.pl3 1386  BSD1386    -0.1925
     19  C29       -1.6780   -0.6210   26.9260 C.3   1386  BSD1386     0.1388
     20  S2         0.9570   -0.7190   27.2970 S.O2  1386  BSD1386     0.0588
     21  O23        0.7760    0.7120   26.7080 O.2   1386  BSD1386    -0.1542
     22  O24        1.5840   -0.5900   28.7420 O.2   1386  BSD1386    -0.1542
     23  C20        2.0880   -1.5630   26.1760 C.3   1386  BSD1386     0.1999
     24  C22       -3.6830   -3.6040   30.7330 C.2   1386  BSD1386     0.2649
     25  O22       -4.7010   -3.6160   30.0040 O.2   1386  BSD1386    -0.2684
     26  N3        -3.7510   -3.6810   32.1040 N.am  1386  BSD1386    -0.2004
     27  C31       -4.9460   -4.1490   32.8940 C.3   1386  BSD1386     0.1316
     28  C32       -4.5810   -5.5030   33.6110 C.3   1386  BSD1386     0.0507
     29  C33       -3.7670   -6.5940   32.8930 C.ar  1386  BSD1386    -0.0204
     30  C34       -4.0520   -6.9600   31.5490 C.ar  1386  BSD1386    -0.0042
     31  C35       -3.2910   -7.9850   30.9120 C.ar  1386  BSD1386    -0.0003
     32  C36       -2.2570   -8.6380   31.6160 C.ar  1386  BSD1386    -0.0000
     33  C37       -1.9610   -8.2760   32.9660 C.ar  1386  BSD1386    -0.0003
     34  C38       -2.7170   -7.2550   33.5990 C.ar  1386  BSD1386    -0.0042
     35  C39       -5.3790   -3.1870   34.0450 C.3   1386  BSD1386     0.1894
     36  O3        -6.6810   -3.4440   34.5290 O.3   1386  BSD1386    -0.2197
     37  C30       -5.3090   -1.6890   33.7640 C.3   1386  BSD1386     0.1237
     38  N4        -6.0570   -1.1290   32.6360 N.3   1386  BSD1386    -0.2105
     39  C41       -7.2500   -0.2620   32.9220 C.3   1386  BSD1386     0.1152
     40  C42       -8.5120   -0.9240   32.3680 C.ar  1386  BSD1386    -0.0018
     41  C43       -9.2790   -1.7510   33.2130 C.ar  1386  BSD1386     0.0340
     42  C44      -10.4180   -2.4190   32.7410 C.ar  1386  BSD1386     0.1385
     43  C45      -10.7990   -2.2530   31.3800 C.ar  1386  BSD1386     0.0369
     44  C46      -10.0480   -1.4260   30.5150 C.ar  1386  BSD1386     0.0028
     45  C47       -8.8930   -0.7570   31.0100 C.ar  1386  BSD1386    -0.0027
     46  O4       -11.2120   -3.2590   33.5010 O.3   1386  BSD1386    -0.4714
     47  C48      -11.9020   -2.8360   34.6880 C.3   1386  BSD1386     0.2525
@<TRIPOS>BOND
     1    23    20    1
     2    21    20    2
     3    19    18    1
     4    18    20    1
     5    18    14    1
     6    20    22    2
     7    14    13   ar
     8    14    15   ar
     9    13    12   ar
    10    15    16   ar
    11    11    10    2
    12    12    10    1
    13    12    17   ar
    14    25    24    2
    15    16    17   ar
    16    16    24    1
    17    10     9   am
    18    44    45   ar
    19    44    43   ar
    20    24    26   am
    21    31    30   ar
    22    31    32   ar
    23    45    40   ar
    24    43    42   ar
    25    30    29   ar
    26    32    33   ar
    27     9     7    1
    28    26    27    1
    29    40    39    1
    30    40    41   ar
    31     7     8    1
    32     7     6    1
    33    38    39    1
    34    38    37    1
    35    42    41   ar
    36    42    46    1
    37    29    34   ar
    38    29    28    1
    39    27    28    1
    40    27    35    1
    41    33    34   ar
    42     1     6   ar
    43     1     2   ar
    44     6     5   ar
    45    46    47    1
    46    37    35    1
    47     2     3   ar
    48    35    36    1
    49     5     4   ar
    50     3     4   ar
