@<TRIPOS>MOLECULE
2vku_HEM_A_1.pdb
 43 50 0 0 0
SMALL
GASTEIGER

@<TRIPOS>ATOM
      1 FE         20.4090   40.1370   30.8660 Fe    1450  HEM1450     0.0000
      2  CHA       18.7590   43.1000   31.3860 C.2   1450  HEM1450     0.0000
      3  CHB       17.4430   38.4460   31.1020 C.2   1450  HEM1450     0.0000
      4  CHC       22.1290   37.1810   30.6890 C.2   1450  HEM1450     0.0000
      5  CHD       23.4120   41.8520   30.9100 C.2   1450  HEM1450     0.0000
      6  NA        18.5050   40.6390   31.1270 N.ar  1450  HEM1450     0.0000
      7  C1A       17.9840   41.9280   31.2770 C.ar  1450  HEM1450     0.0000
      8  C2A       16.5340   41.9200   31.2690 C.ar  1450  HEM1450     0.0000
      9  C3A       16.1600   40.6000   31.1610 C.ar  1450  HEM1450     0.0000
     10  C4A       17.3910   39.8200   31.1270 C.ar  1450  HEM1450     0.0000
     11  CMA       14.7560   40.0330   31.0340 C.3   1450  HEM1450     0.0000
     12  CAA       15.6650   43.1920   31.3150 C.3   1450  HEM1450     0.0000
     13  CBA       15.1100   43.3840   32.7200 C.3   1450  HEM1450     0.0000
     14  CGA       14.4650   44.7540   32.9360 C.2   1450  HEM1450     0.0000
     15  O1A       13.9210   45.3240   31.9600 O.co2 1450  HEM1450     0.0000
     16  O2A       14.4960   45.2490   34.0900 O.co2 1450  HEM1450     0.0000
     17  NB        19.8930   38.2300   30.8940 N.2   1450  HEM1450     0.0000
     18  C1B       18.6130   37.6930   30.9970 C.2   1450  HEM1450     0.0000
     19  C2B       18.6390   36.2480   30.8910 C.2   1450  HEM1450     0.0000
     20  C3B       19.9750   35.8610   30.7910 C.2   1450  HEM1450     0.0000
     21  C4B       20.7340   37.1200   30.7630 C.2   1450  HEM1450     0.0000
     22  CMB       17.4180   35.3760   30.6730 C.3   1450  HEM1450     0.0000
     23  CAB       20.5700   34.5740   30.8270 C.3   1450  HEM1450     0.0000
     24  CBB       20.1190   33.3940   30.1520 C.3   1450  HEM1450     0.0000
     25  NC        22.3380   39.6370   30.8200 N.ar  1450  HEM1450     0.0000
     26  C1C       22.8750   38.3560   30.7140 C.ar  1450  HEM1450     0.0000
     27  C2C       24.3050   38.3950   30.5320 C.ar  1450  HEM1450     0.0000
     28  C3C       24.6790   39.7150   30.5770 C.ar  1450  HEM1450     0.0000
     29  C4C       23.4510   40.4660   30.7830 C.ar  1450  HEM1450     0.0000
     30  CMC       25.2000   37.1680   30.3800 C.3   1450  HEM1450     0.0000
     31  CAC       25.9620   40.2830   30.5050 C.3   1450  HEM1450     0.0000
     32  CBC       26.9670   40.0000   29.5410 C.3   1450  HEM1450     0.0000
     33  ND        20.9730   42.0650   31.0600 N.2   1450  HEM1450     0.0000
     34  C1D       22.2520   42.6090   31.0460 C.2   1450  HEM1450     0.0000
     35  C2D       22.2320   44.0330   31.3440 C.2   1450  HEM1450     0.0000
     36  C3D       20.9470   44.3710   31.5990 C.2   1450  HEM1450     0.0000
     37  C4D       20.1570   43.1640   31.3320 C.2   1450  HEM1450     0.0000
     38  CMD       23.4240   44.9730   31.3760 C.3   1450  HEM1450     0.0000
     39  CAD       20.4080   45.6860   32.2090 C.3   1450  HEM1450     0.0000
     40  CBD       20.6710   45.8540   33.7100 C.3   1450  HEM1450     0.0000
     41  CGD       21.9030   46.7110   34.0140 C.2   1450  HEM1450     0.0000
     42  O1D       22.5930   46.4270   35.0260 O.co2 1450  HEM1450     0.0000
     43  O2D       22.1740   47.6790   33.2540 O.co2 1450  HEM1450     0.0000
@<TRIPOS>BOND
     1    32    31    1
     2    24    23    1
     3    30    27    1
     4    31    28    1
     5    27    28   ar
     6    27    26   ar
     7    28    29   ar
     8    22    19    1
     9     4    26    1
    10     4    21    2
    11    26    25   ar
    12    21    20    1
    13    21    17    1
    14    29    25   ar
    15    29     5    1
    16    20    23    1
    17    20    19    2
    18    25     1    1
    19     1    17    1
    20     1    33    1
    21     1     6    1
    22    19    18    1
    23    17    18    2
    24     5    34    2
    25    18     3    1
    26    11     9    1
    27    34    33    1
    28    34    35    1
    29    33    37    2
    30     3    10    2
    31    10     6   ar
    32    10     9   ar
    33     6     7   ar
    34     9     8   ar
    35     8     7   ar
    36     8    12    1
    37     7     2    2
    38    12    13    1
    39    37     2    1
    40    37    36    1
    41    35    38    1
    42    35    36    2
    43    36    39    1
    44    15    14   ar
    45    39    40    1
    46    13    14    1
    47    14    16   ar
    48    43    41   ar
    49    40    41    1
    50    41    42   ar
