@<TRIPOS>MOLECULE
2vku_DBE_A_1.pdb
 16 17 0 0 0
SMALL
GASTEIGER

@<TRIPOS>ATOM
      1  C5         6.5450   46.7740   56.8650 C.ar  1446  DBE1446     0.0421
      2  C4         7.7050   46.0790   57.3250 C.ar  1446  DBE1446     0.0065
      3  C10        6.4410   43.9560   57.3760 C.ar  1446  DBE1446     0.0065
      4  C1         5.2920   44.6400   56.9200 C.ar  1446  DBE1446     0.0421
      5  C6         5.3530   46.0400   56.6710 C.ar  1446  DBE1446     0.1957
      6  C12        7.6490   44.6650   57.5830 C.ar  1446  DBE1446     0.0392
      7  O10        8.9320   42.6690   57.7370 O.2   1446  DBE1446    -0.2866
      8  C11        8.8610   43.8580   58.0840 C.2   1446  DBE1446     0.1956
      9  C13        9.9870   44.3900   58.9860 C.ar  1446  DBE1446     0.0392
     10  C18       11.2560   43.7210   59.0110 C.ar  1446  DBE1446     0.0065
     11  C17       12.2890   44.2060   59.8370 C.ar  1446  DBE1446     0.0421
     12  C16       12.0810   45.3540   60.6440 C.ar  1446  DBE1446     0.1957
     13  C15       10.8450   46.0280   60.6400 C.ar  1446  DBE1446     0.0421
     14  C14        9.7920   45.5510   59.8150 C.ar  1446  DBE1446     0.0065
     15  O23        4.2430   46.6700   56.2410 O.3   1446  DBE1446    -0.2866
     16  O24       13.0890   45.8080   61.4300 O.3   1446  DBE1446    -0.2866
@<TRIPOS>BOND
     1    15     5    1
     2     5     1   ar
     3     5     4   ar
     4     1     2   ar
     5     4     3   ar
     6     2     6   ar
     7     3     6   ar
     8     6     8    1
     9     7     8    2
    10     8     9    1
    11     9    10   ar
    12     9    14   ar
    13    10    11   ar
    14    14    13   ar
    15    11    12   ar
    16    13    12   ar
    17    12    16    1
