@<TRIPOS>MOLECULE
2vkv_TDC_A_1.pdb
 31 34 0 0 0
SMALL
GASTEIGER

@<TRIPOS>ATOM
      1  O12      -25.9890    7.6500  -19.5970 O.2   1206  TDC1206    -0.2882
      2  C12      -25.6370    7.9910  -20.7130 C.2   1206  TDC1206     0.2099
      3  C1B      -26.0690    9.2940  -21.3200 C.ar  1206  TDC1206     0.0723
      4  C11      -26.9840   10.1250  -20.6590 C.ar  1206  TDC1206     0.2012
      5  O11      -27.5230    9.7420  -19.5540 O.3   1206  TDC1206    -0.2864
      6  C1A      -27.2960   11.3780  -21.2040 C.ar  1206  TDC1206     0.0776
      7  C10      -28.1970   12.2160  -20.5400 C.ar  1206  TDC1206     0.1987
      8  O10      -28.7800   11.8160  -19.3700 O.3   1206  TDC1206    -0.2865
      9  C9       -28.5080   13.4580  -21.0770 C.ar  1206  TDC1206     0.0421
     10  C8       -27.9260   13.8710  -22.2790 C.ar  1206  TDC1206     0.0033
     11  C7       -27.0360   13.0360  -22.9550 C.ar  1206  TDC1206    -0.0000
     12  C61      -26.6920   11.7920  -22.3950 C.ar  1206  TDC1206     0.0019
     13  C6       -25.8090   10.9290  -23.0740 C.ar  1206  TDC1206    -0.0254
     14  C62      -25.1810   11.3800  -24.3830 C.3   1206  TDC1206     0.0307
     15  C51      -25.4840    9.6850  -22.5190 C.ar  1206  TDC1206    -0.0200
     16  C5       -24.5160    8.7480  -23.2340 C.3   1206  TDC1206     0.0313
     17  C1C      -24.5740    7.1410  -21.3770 C.3   1206  TDC1206     0.2340
     18  C1       -23.1420    7.5220  -21.0350 C.2   1206  TDC1206     0.2006
     19  O1       -22.9380    8.3580  -20.1280 O.2   1206  TDC1206    -0.2921
     20  O1C      -24.7560    5.8250  -20.8460 O.3   1206  TDC1206    -0.2101
     21  C41      -24.7340    7.2700  -22.8770 C.3   1206  TDC1206     0.0682
     22  C4       -23.7230    6.3890  -23.6360 C.3   1206  TDC1206     0.1202
     23  N4       -24.2810    5.1030  -24.1940 N.3   1206  TDC1206    -0.2654
     24  C43      -24.7240    4.1010  -23.2000 C.3   1206  TDC1206     0.0900
     25  C42      -25.3230    5.3770  -25.2130 C.3   1206  TDC1206     0.0900
     26  C3       -22.4420    6.1710  -22.8610 C.2   1206  TDC1206     0.1806
     27  O3       -21.6810    5.2680  -23.3100 O.2   1206  TDC1206    -0.2937
     28  C2       -22.1220    6.9170  -21.7490 C.3   1206  TDC1206     0.1983
     29  C21      -20.8210    7.0420  -21.3180 C.2   1206  TDC1206     0.2746
     30  O21      -19.8740    6.5280  -21.9220 O.2   1206  TDC1206    -0.2707
     31  N21      -20.4880    7.7590  -20.2410 N.am  1206  TDC1206    -0.0871
@<TRIPOS>BOND
     1    25    23    1
     2    14    13    1
     3    23    22    1
     4    23    24    1
     5    22    21    1
     6    22    26    1
     7    27    26    2
     8    16    21    1
     9    16    15    1
    10    13    15   ar
    11    13    12   ar
    12    11    12   ar
    13    11    10   ar
    14    21    17    1
    15    26    28    1
    16    15     3   ar
    17    12     6   ar
    18    10     9   ar
    19    30    29    2
    20    28    29    1
    21    28    18    1
    22    17    18    1
    23    17    20    1
    24    17     2    1
    25     3     2    1
    26     3     4   ar
    27    29    31   am
    28     6     4   ar
    29     6     7   ar
    30     9     7   ar
    31    18    19    2
    32     2     1    2
    33     4     5    1
    34     7     8    1
