@<TRIPOS>MOLECULE
2vkz_CER_A_1.pdb
 12 11 0 0 0
SMALL
GASTEIGER

@<TRIPOS>ATOM
      1  C1       173.7760  -51.5970  -15.1690 C.2   2748  CER2748     0.2634
      2  N1       174.8350  -51.4730  -16.1750 N.am  2748  CER2748    -0.0877
      3  O1       177.3120  -51.2010  -11.8240 O.3   2748  CER2748    -0.2204
      4  C2       174.0290  -51.0920  -13.7240 C.3   2748  CER2748     0.1239
      5  O2       172.6820  -51.9360  -15.5000 O.2   2748  CER2748    -0.2716
      6  C3       175.3870  -51.6440  -13.2120 C.3   2748  CER2748     0.1913
      7  O3       175.2000  -52.9570  -12.7250 O.3   2748  CER2748    -0.2199
      8  C4       175.9870  -50.7750  -12.0680 C.3   2748  CER2748     0.1830
      9  C5       175.1750  -50.9510  -10.7550 C.3   2748  CER2748     0.0402
     10  C6       176.1640  -51.2470   -9.6030 C.3   2748  CER2748     0.0287
     11  C7       176.6480  -49.9100   -9.0140 C.2   2748  CER2748    -0.0261
     12  C8       176.0080  -49.3090   -8.0190 C.2   2748  CER2748    -0.0049
@<TRIPOS>BOND
     1     2     1   am
     2     5     1    2
     3     1     4    1
     4     4     6    1
     5     6     7    1
     6     6     8    1
     7     8     3    1
     8     8     9    1
     9     9    10    1
    10    10    11    1
    11    11    12    2
