@<TRIPOS>MOLECULE
2vl4_MNM_A_1.pdb
 11 11 0 0 0
SMALL
GASTEIGER

@<TRIPOS>ATOM
      1  C1        27.9420   47.1990    0.2660 C.3   1865  MNM1865     0.2291
      2  C2        27.3400   45.8880   -0.2660 C.3   1865  MNM1865     0.2586
      3  C3        27.6210   48.3830   -0.6710 C.3   1865  MNM1865     0.1901
      4  O4        29.3650   47.0810    0.4150 O.3   1865  MNM1865    -0.2161
      5  O5        27.9690   44.7130    0.2310 O.3   1865  MNM1865    -0.2007
      6  N6        27.4450   45.7790   -1.7160 N.3   1865  MNM1865    -0.1868
      7  O7        27.3180   49.5580    0.0990 O.3   1865  MNM1865    -0.2201
      8  C8        26.5030   48.0750   -1.7060 C.3   1865  MNM1865     0.0836
      9  C9        26.1150   49.3000   -2.5750 C.3   1865  MNM1865     0.1861
     10  C10       26.9730   46.8880   -2.5590 C.3   1865  MNM1865     0.0966
     11  O11       27.2120   49.7050   -3.3890 O.3   1865  MNM1865    -0.2203
@<TRIPOS>BOND
     1    11     9    1
     2     9     8    1
     3    10     6    1
     4    10     8    1
     5     6     2    1
     6     8     3    1
     7     3     7    1
     8     3     1    1
     9     2     5    1
    10     2     1    1
    11     1     4    1
