@<TRIPOS>MOLECULE
2vl8_CTS_A_1.pdb
 13 14 0 0 0
SMALL
GASTEIGER

@<TRIPOS>ATOM
      1  C1        21.8910   21.3580   26.1660 C.3   1544  CTS1544     0.1082
      2  C2        21.6960   20.7140   27.5520 C.3   1544  CTS1544     0.2006
      3  C3        22.2050   21.6190   28.6720 C.3   1544  CTS1544     0.2150
      4  C4        23.2170   22.6560   28.1350 C.3   1544  CTS1544     0.2017
      5  C5        22.4570   23.5870   27.1590 C.3   1544  CTS1544     0.1215
      6  C6        23.3350   24.5280   26.2910 C.3   1544  CTS1544     0.1704
      7  O2        20.3200   20.4440   27.7740 O.3   1544  CTS1544    -0.2188
      8  O3        22.8150   20.8110   29.6520 O.3   1544  CTS1544    -0.2176
      9  O4        23.8290   23.3950   29.2320 O.3   1544  CTS1544    -0.2188
     10  O6        24.5530   23.8980   25.8410 O.3   1544  CTS1544    -0.2216
     11  N         21.6010   22.8100   26.2050 N.3   1544  CTS1544    -0.2673
     12  C7        22.3870   24.8260   25.1040 C.3   1544  CTS1544     0.0517
     13  C8        21.7460   23.4280   24.8620 C.3   1544  CTS1544     0.0749
@<TRIPOS>BOND
     1    13    12    1
     2    13    11    1
     3    12     6    1
     4    10     6    1
     5     1    11    1
     6     1     2    1
     7    11     5    1
     8     6     5    1
     9     5     4    1
    10     2     7    1
    11     2     3    1
    12     4     3    1
    13     4     9    1
    14     3     8    1
