@<TRIPOS>MOLECULE
2vl8_UDP_A_1.pdb
 25 26 0 0 0
SMALL
GASTEIGER

@<TRIPOS>ATOM
      1  N1        22.7470   26.2870   34.9590 N.am  1543  UDP1543    -0.1766
      2  C2        23.2700   26.8780   36.1160 C.1   1543  UDP1543     0.2845
      3  N3        22.7600   28.0670   36.5740 N.2   1543  UDP1543    -0.2452
      4  C4        21.7190   28.6750   35.9050 C.1   1543  UDP1543     0.2182
      5  C5        21.1710   28.0920   34.7480 C.2   1543  UDP1543     0.1242
      6  C6        21.7030   26.8890   34.2780 C.2   1543  UDP1543     0.0929
      7  O2        24.1970   26.4010   36.7470 O.2   1543  UDP1543    -0.1918
      8  O4        21.2930   29.7370   36.3500 O.2   1543  UDP1543    -0.2085
      9  C1'       23.2990   25.0120   34.4660 C.3   1543  UDP1543     0.2401
     10  C2'       22.8110   23.9050   35.3690 C.3   1543  UDP1543     0.2319
     11  O2'       23.9180   23.0490   35.5610 O.3   1543  UDP1543    -0.2157
     12  C3'       21.7110   23.2590   34.5460 C.3   1543  UDP1543     0.2158
     13  C4'       22.2850   23.3890   33.1370 C.3   1543  UDP1543     0.1799
     14  O4'       22.8580   24.6800   33.1480 O.3   1543  UDP1543    -0.3320
     15  O3'       21.4540   21.9440   34.9690 O.3   1543  UDP1543    -0.2175
     16  C5'       21.2920   23.3100   31.9920 C.3   1543  UDP1543     0.1813
     17  O5'       20.4600   24.4340   32.0790 O.3   1543  UDP1543    -0.3111
     18  PA        18.9870   24.3070   31.4920 P.3   1543  UDP1543     0.2231
     19  O1A       18.0560   25.3480   32.0050 O.3   1543  UDP1543    -0.4370
     20  O2A       18.3890   22.9630   31.7180 O.2   1543  UDP1543    -0.5169
     21  O3A       19.3710   24.6540   29.9700 O.3   1543  UDP1543    -0.2261
     22  PB        18.5820   24.0350   28.7020 P.3   1543  UDP1543     0.5373
     23  O1B       19.4360   24.2350   27.4990 O.2   1543  UDP1543    -0.2221
     24  O2B       18.3540   22.5710   28.8900 O.3   1543  UDP1543    -0.1143
     25  O3B       17.2700   24.7130   28.5930 O.3   1543  UDP1543    -0.1143
@<TRIPOS>BOND
     1    23    22    2
     2    25    22    1
     3    22    24    1
     4    22    21    1
     5    21    18    1
     6    18    20    2
     7    18    19    1
     8    18    17    1
     9    16    17    1
    10    16    13    1
    11    13    14    1
    12    13    12    1
    13    14     9    1
    14     6     5    2
    15     6     1    1
    16     9     1    1
    17     9    10    1
    18    12    15    1
    19    12    10    1
    20     5     4    1
    21     1     2   am
    22    10    11    1
    23     4     8    2
    24     4     3    2
    25     2     3    2
    26     2     7    2
