@<TRIPOS>MOLECULE
2vlc_AS5_A_1.pdb
 28 29 0 0 0
SMALL
GASTEIGER

@<TRIPOS>ATOM
      1  O7B       -6.3490    1.1630   37.7150 O.2   1549  AS51549    -0.2733
      2  C7B       -5.6030    2.0720   38.1680 C.2   1549  AS51549     0.2420
      3  C8B       -5.8990    2.9930   39.4090 C.3   1549  AS51549     0.0964
      4  N2B       -4.4590    2.3440   37.5410 N.am  1549  AS51549    -0.1992
      5  C2B       -3.2070    1.5860   37.6300 C.3   1549  AS51549     0.1842
      6  C3B       -2.7770    1.1600   39.0610 C.3   1549  AS51549     0.2094
      7  O3B       -2.7500    1.0400   40.3800 O.3   1549  AS51549    -0.2183
      8  C4B       -1.2590    0.8640   39.0610 C.3   1549  AS51549     0.2136
      9  C5B       -0.7340    0.4160   37.6520 C.3   1549  AS51549     0.1834
     10  C6B        0.2830    1.4530   37.1430 C.3   1549  AS51549     0.2142
     11  O6B        1.2270    1.5610   38.4620 O.3   1549  AS51549    -0.2176
     12  O5B       -1.7420   -0.1240   36.7030 O.3   1549  AS51549    -0.3262
     13  C1B       -3.0430    0.5020   36.5190 C.3   1549  AS51549     0.2586
     14  O4A       -4.1730   -0.4280   36.3410 O.3   1549  AS51549    -0.3264
     15  C4A       -4.3570   -1.1350   35.0650 C.3   1549  AS51549     0.1794
     16  C3A       -4.7260   -2.6410   35.1940 C.3   1549  AS51549     0.2037
     17  O3A       -4.0000   -3.3320   34.1770 O.3   1549  AS51549    -0.2185
     18  C2A       -6.1880   -3.0670   34.9950 C.3   1549  AS51549     0.1575
     19  N2A       -6.4120   -3.8540   33.7740 N.am  1549  AS51549    -0.2019
     20  C7A       -6.5710   -5.1920   33.6730 C.2   1549  AS51549     0.2420
     21  O7A       -7.4390   -5.8310   34.2380 O.2   1549  AS51549    -0.2733
     22  C8A       -5.6140   -5.9180   32.7780 C.3   1549  AS51549     0.0964
     23  C5A       -5.2870   -0.4290   34.0470 C.3   1549  AS51549     0.1777
     24  C6A       -4.6300   -0.3950   32.6640 C.3   1549  AS51549     0.2140
     25  O6A       -5.3750    0.4670   31.7900 O.3   1549  AS51549    -0.2176
     26  O5A       -6.5660   -1.0440   33.8320 O.3   1549  AS51549    -0.3491
     27  C1A       -7.0460   -1.8220   34.9210 C.3   1549  AS51549     0.1665
     28  O4B       -0.3740    1.8850   39.6230 O.3   1549  AS51549    -0.2176
@<TRIPOS>BOND
     1    25    24    1
     2    24    23    1
     3    22    20    1
     4    20    19   am
     5    20    21    2
     6    19    18    1
     7    26    23    1
     8    26    27    1
     9    23    15    1
    10    17    16    1
    11    27    18    1
    12    18    16    1
    13    15    16    1
    14    15    14    1
    15    14    13    1
    16    13    12    1
    17    13     5    1
    18    12     9    1
    19    10     9    1
    20    10    11    1
    21     4     5    1
    22     4     2   am
    23     5     6    1
    24     9     8    1
    25     1     2    2
    26     2     3    1
    27     8     6    1
    28     8    28    1
    29     6     7    1
