@<TRIPOS>MOLECULE
2vlc_BMA_B_1.pdb
 12 12 0 0 0
SMALL
GASTEIGER

@<TRIPOS>ATOM
      1  C1       -31.4260   37.3350   14.1750 C.3   1549  BMA1549     0.3024
      2  C2       -31.0160   38.8330   14.1140 C.3   1549  BMA1549     0.2434
      3  C3       -32.0940   39.7770   13.5190 C.3   1549  BMA1549     0.2199
      4  C4       -32.9060   39.1400   12.3680 C.3   1549  BMA1549     0.2144
      5  C5       -33.3790   37.7790   12.9140 C.3   1549  BMA1549     0.1836
      6  C6       -34.4460   37.2350   11.9900 C.3   1549  BMA1549     0.2142
      7  O1       -30.2830   36.4980   14.3080 O.3   1549  BMA1549    -0.1869
      8  O2       -29.7850   38.9910   13.4250 O.3   1549  BMA1549    -0.2148
      9  O3       -31.5150   41.0070   13.1300 O.3   1549  BMA1549    -0.2174
     10  O4       -33.9160   40.0290   11.8720 O.3   1549  BMA1549    -0.2176
     11  O5       -32.2400   36.9310   13.0600 O.3   1549  BMA1549    -0.3236
     12  O6       -35.0220   38.4740   11.6230 O.3   1549  BMA1549    -0.2176
@<TRIPOS>BOND
     1    12     6    1
     2    10     4    1
     3     6     5    1
     4     4     5    1
     5     4     3    1
     6     5    11    1
     7    11     1    1
     8     9     3    1
     9     8     2    1
    10     3     2    1
    11     2     1    1
    12     1     7    1
