@<TRIPOS>MOLECULE
2vle_DZN_A_1.pdb
 30 33 0 0 0
SMALL
GASTEIGER

@<TRIPOS>ATOM
      1  O6        93.4260   20.3050   65.3170 O.3   1501  DZN1501    -0.2176
      2  C6        94.2760   21.2430   65.9380 C.3   1501  DZN1501     0.2142
      3  C5        95.5790   20.5310   66.3760 C.3   1501  DZN1501     0.1846
      4  O5        95.4230   19.1190   66.4750 O.3   1501  DZN1501    -0.3157
      5  C4        96.7400   20.9650   65.4690 C.3   1501  DZN1501     0.2145
      6  O4        96.9520   22.4030   65.6240 O.3   1501  DZN1501    -0.2176
      7  C3        97.9970   20.0700   65.7100 C.3   1501  DZN1501     0.2211
      8  O3        98.8340   20.0430   64.5610 O.3   1501  DZN1501    -0.2173
      9  C2        97.7320   18.5890   66.0930 C.3   1501  DZN1501     0.2542
     10  O2        98.9060   18.0640   66.7410 O.3   1501  DZN1501    -0.2135
     11  C1        96.5190   18.4550   67.0590 C.3   1501  DZN1501     0.3218
     12  O1        96.2380   17.0600   67.3200 O.3   1501  DZN1501    -0.4504
     13  C18       95.1490   16.5430   68.0420 C.ar  1501  DZN1501     0.1444
     14  C19       94.9790   15.1600   67.9770 C.ar  1501  DZN1501     0.0373
     15  C20       93.9520   14.5130   68.6460 C.ar  1501  DZN1501     0.0094
     16  C21       93.0540   15.2520   69.3980 C.ar  1501  DZN1501     0.0737
     17  C22       93.1940   16.7260   69.4760 C.ar  1501  DZN1501     0.1515
     18  C23       94.2580   17.3310   68.7840 C.ar  1501  DZN1501     0.0745
     19  O24       92.2750   17.4290   70.2340 O.2   1501  DZN1501    -0.4501
     20  C25       91.1750   16.7830   70.9360 C.ar  1501  DZN1501     0.1826
     21  C26       90.9720   15.3910   70.9000 C.ar  1501  DZN1501     0.0766
     22  C27       91.9400   14.5700   70.1100 C.ar  1501  DZN1501     0.2015
     23  O35       91.8520   13.3260   70.0140 O.2   1501  DZN1501    -0.2864
     24  C28       89.8380   14.7300   71.6290 C.ar  1501  DZN1501     0.0063
     25  C29       88.9450   15.4930   72.3690 C.ar  1501  DZN1501     0.0035
     26  C30       87.8850   14.9000   73.0450 C.ar  1501  DZN1501     0.0420
     27  C31       87.7080   13.5280   73.0080 C.ar  1501  DZN1501     0.1957
     28  O34       86.6690   12.9630   73.6840 O.3   1501  DZN1501    -0.2866
     29  C32       88.5940   12.7460   72.2740 C.ar  1501  DZN1501     0.0420
     30  C33       89.6480   13.3450   71.5940 C.ar  1501  DZN1501     0.0035
@<TRIPOS>BOND
     1     8     7    1
     2     1     2    1
     3     5     6    1
     4     5     7    1
     5     5     3    1
     6     7     9    1
     7     2     3    1
     8     9    10    1
     9     9    11    1
    10     3     4    1
    11     4    11    1
    12    11    12    1
    13    12    13    1
    14    14    13   ar
    15    14    15   ar
    16    13    18   ar
    17    15    16   ar
    18    18    17   ar
    19    16    17   ar
    20    16    22   ar
    21    17    19   ar
    22    23    22    2
    23    22    21   ar
    24    19    20   ar
    25    21    20   ar
    26    21    24    1
    27    30    24   ar
    28    30    29   ar
    29    24    25   ar
    30    29    27   ar
    31    25    26   ar
    32    27    26   ar
    33    27    28    1
