@<TRIPOS>MOLECULE
2vlf_PLI_A_1.pdb
 21 21 0 0 0
SMALL
GASTEIGER

@<TRIPOS>ATOM
      1  OP2       41.6770   79.3360   22.2560 O.2   1457  PLI1457    -0.2224
      2  P         41.4440   78.4100   23.4150 P.3   1457  PLI1457     0.5329
      3  OP1       40.5250   77.3020   22.9860 O.3   1457  PLI1457    -0.1145
      4  OP3       42.6530   77.8980   24.1440 O.3   1457  PLI1457    -0.1145
      5  OP4       40.6390   79.2420   24.5280 O.3   1457  PLI1457    -0.2653
      6  C5A       39.2930   79.7480   24.2580 C.3   1457  PLI1457     0.1819
      7  C5        39.1400   81.0620   24.9980 C.ar  1457  PLI1457     0.0316
      8  C6        38.4770   81.1220   26.2250 C.ar  1457  PLI1457     0.0968
      9  N1        38.3460   82.2980   26.9080 N.ar  1457  PLI1457    -0.2452
     10  C2        38.8410   83.4830   26.5240 C.ar  1457  PLI1457     0.0981
     11  C2A       38.6670   84.7310   27.3600 C.3   1457  PLI1457     0.0555
     12  C3        39.6050   83.5420   25.2500 C.ar  1457  PLI1457     0.2103
     13  O3A       40.0970   84.6860   24.7970 O.3   1457  PLI1457    -0.2853
     14  C4        39.7450   82.2910   24.4680 C.ar  1457  PLI1457     0.0587
     15  C4A       40.4740   82.2680   23.1710 C.2   1457  PLI1457     0.0967
     16  N         40.9260   83.4060   22.7090 N.2   1457  PLI1457    -0.2593
     17  CA        41.4110   83.5690   21.4580 C.3   1457  PLI1457     0.2057
     18  CB        41.6150   82.4070   20.5000 C.3   1457  PLI1457     0.0385
     19  C         41.7350   84.9310   21.1120 C.2   1457  PLI1457     0.3866
     20  O         42.3110   85.1950   20.0390 O.co2 1457  PLI1457    -0.2435
     21  OXT       41.3900   85.8130   21.9400 O.co2 1457  PLI1457    -0.2435
@<TRIPOS>BOND
     1    20    19   ar
     2    18    17    1
     3    19    17    1
     4    19    21   ar
     5    17    16    1
     6     1     2    2
     7    16    15    2
     8     3     2    1
     9    15    14    1
    10     2     4    1
    11     2     5    1
    12     6     5    1
    13     6     7    1
    14    14     7   ar
    15    14    12   ar
    16    13    12    1
    17     7     8   ar
    18    12    10   ar
    19     8     9   ar
    20    10     9   ar
    21    10    11    1
