@<TRIPOS>MOLECULE
2vlh_PM9_A_1.pdb
 24 24 0 0 0
SMALL
GASTEIGER

@<TRIPOS>ATOM
      1  N         25.3140   83.4030    7.2160 N.2   1457  PM91457    -0.2593
      2  C         24.4560   84.9990    8.7440 C.2   1457  PM91457     0.3866
      3  O2        23.8310   85.2730    9.7950 O.co2 1457  PM91457    -0.2435
      4  CB        24.6790   82.4520    9.4360 C.3   1457  PM91457     0.0476
      5  CG        25.1800   82.7700   10.8600 C.3   1457  PM91457     0.0602
      6  SD        26.8750   83.3070   10.8840 S.3   1457  PM91457    -0.1392
      7  CE        27.7830   82.0630    9.9860 C.3   1457  PM91457     0.0692
      8  O1        24.7710   85.9010    7.9150 O.co2 1457  PM91457    -0.2435
      9  C2        27.3730   83.5460    3.3440 C.ar  1457  PM91457     0.0981
     10  C2A       27.5330   84.8190    2.5430 C.3   1457  PM91457     0.0555
     11  C3        26.6370   83.5930    4.6230 C.ar  1457  PM91457     0.2103
     12  C4        26.5120   82.3240    5.3890 C.ar  1457  PM91457     0.0587
     13  C4A       25.7980   82.2690    6.7040 C.2   1457  PM91457     0.0967
     14  C5        27.1520   81.1190    4.8200 C.ar  1457  PM91457     0.0316
     15  C5A       27.0360   79.8030    5.5570 C.3   1457  PM91457     0.1819
     16  C6        27.8140   81.1960    3.6020 C.ar  1457  PM91457     0.0968
     17  N1        27.9220   82.3780    2.9260 N.ar  1457  PM91457    -0.2452
     18  O1P       24.6660   79.3670    7.6110 O.3   1457  PM91457    -0.1145
     19  O3P       25.8060   77.3070    6.8150 O.3   1457  PM91457    -0.1145
     20  O3        26.1030   84.7280    5.0760 O.3   1457  PM91457    -0.2853
     21  O2P       23.6420   78.0330    5.7000 O.2   1457  PM91457    -0.2224
     22  O4P       25.7090   79.2960    5.2930 O.3   1457  PM91457    -0.2653
     23  CA        24.8440   83.6200    8.4490 C.3   1457  PM91457     0.2065
     24  P         24.9070   78.4560    6.4210 P.3   1457  PM91457     0.5329
@<TRIPOS>BOND
     1    10     9    1
     2    17     9   ar
     3    17    16   ar
     4     9    11   ar
     5    16    14   ar
     6    11    20    1
     7    11    12   ar
     8    14    12   ar
     9    14    15    1
    10    22    15    1
    11    22    24    1
    12    12    13    1
    13    21    24    2
    14    24    19    1
    15    24    18    1
    16    13     1    2
    17     1    23    1
    18     8     2   ar
    19    23     2    1
    20    23     4    1
    21     2     3   ar
    22     4     5    1
    23     7     6    1
    24     5     6    1
