@<TRIPOS>MOLECULE
2vlx_HEM_A_1.pdb
 43 50 0 0 0
SMALL
GASTEIGER

@<TRIPOS>ATOM
      1 FE         17.0790  -31.0280   -3.3420 Fe    1154  HEM1154     0.0000
      2  CHA       15.8790  -34.2040   -3.7920 C.2   1154  HEM1154     0.0000
      3  CHB       15.9360  -31.0870   -0.0950 C.2   1154  HEM1154     0.0000
      4  CHC       18.1470  -27.8210   -2.8840 C.2   1154  HEM1154     0.0000
      5  CHD       18.1850  -30.9370   -6.5770 C.2   1154  HEM1154     0.0000
      6  NA        16.0950  -32.3730   -2.1770 N.2   1154  HEM1154     0.0000
      7  C1A       15.7160  -33.6430   -2.5500 C.2   1154  HEM1154     0.0000
      8  C2A       15.1060  -34.2940   -1.4080 C.2   1154  HEM1154     0.0000
      9  C3A       15.1100  -33.4300   -0.3870 C.2   1154  HEM1154     0.0000
     10  C4A       15.7320  -32.2140   -0.8530 C.2   1154  HEM1154     0.0000
     11  CMA       14.5710  -33.6400    1.0400 C.3   1154  HEM1154     0.0000
     12  CAA       14.5740  -35.7360   -1.4090 C.3   1154  HEM1154     0.0000
     13  CBA       15.5600  -36.6250   -0.6310 C.3   1154  HEM1154     0.0000
     14  CGA       16.9690  -36.6370   -1.1840 C.2   1154  HEM1154     0.0000
     15  O1A       17.1510  -36.9970   -2.3800 O.co2 1154  HEM1154     0.0000
     16  O2A       17.9260  -36.3290   -0.4190 O.co2 1154  HEM1154     0.0000
     17  NB        17.0600  -29.7230   -1.7810 N.ar  1154  HEM1154     0.0000
     18  C1B       16.5390  -29.9340   -0.5200 C.ar  1154  HEM1154     0.0000
     19  C2B       16.7160  -28.7390    0.2760 C.ar  1154  HEM1154     0.0000
     20  C3B       17.3210  -27.8330   -0.5030 C.ar  1154  HEM1154     0.0000
     21  C4B       17.5530  -28.4330   -1.7990 C.ar  1154  HEM1154     0.0000
     22  CMB       16.2650  -28.5940    1.7460 C.3   1154  HEM1154     0.0000
     23  CAB       17.7250  -26.4060   -0.1280 C.2   1154  HEM1154     0.0000
     24  CBB       16.8390  -25.5990    0.4690 C.2   1154  HEM1154     0.0000
     25  NC        18.0270  -29.6520   -4.5040 N.2   1154  HEM1154     0.0000
     26  C1C       18.2990  -28.3530   -4.1460 C.2   1154  HEM1154     0.0000
     27  C2C       18.7670  -27.6420   -5.3190 C.2   1154  HEM1154     0.0000
     28  C3C       18.7640  -28.5120   -6.3460 C.2   1154  HEM1154     0.0000
     29  C4C       18.3070  -29.7850   -5.8430 C.2   1154  HEM1154     0.0000
     30  CMC       19.1730  -26.1580   -5.3050 C.3   1154  HEM1154     0.0000
     31  CAC       19.1550  -28.3060   -7.8210 C.2   1154  HEM1154     0.0000
     32  CBC       19.3230  -27.0940   -8.3400 C.2   1154  HEM1154     0.0000
     33  ND        17.0760  -32.3460   -4.8920 N.ar  1154  HEM1154     0.0000
     34  C1D       17.5460  -32.0770   -6.1770 C.ar  1154  HEM1154     0.0000
     35  C2D       17.2430  -33.1760   -7.0500 C.ar  1154  HEM1154     0.0000
     36  C3D       16.5190  -34.1850   -6.1910 C.ar  1154  HEM1154     0.0000
     37  C4D       16.4560  -33.5980   -4.8750 C.ar  1154  HEM1154     0.0000
     38  CMD       17.5740  -33.3130   -8.5410 C.3   1154  HEM1154     0.0000
     39  CAD       15.9540  -35.5300   -6.6780 C.3   1154  HEM1154     0.0000
     40  CBD       14.5520  -35.1910   -7.1920 C.3   1154  HEM1154     0.0000
     41  CGD       13.8410  -36.3720   -7.7910 C.2   1154  HEM1154     0.0000
     42  O1D       14.1810  -36.7570   -8.9370 O.co2 1154  HEM1154     0.0000
     43  O2D       12.9190  -36.9030   -7.1300 O.co2 1154  HEM1154     0.0000
@<TRIPOS>BOND
     1    42    41   ar
     2    38    35    1
     3    32    31    2
     4    31    28    1
     5    41    40    1
     6    41    43   ar
     7    40    39    1
     8    35    36   ar
     9    35    34   ar
    10    39    36    1
    11     5    34    2
    12     5    29    1
    13    28    29    1
    14    28    27    2
    15    36    37   ar
    16    34    33   ar
    17    29    25    2
    18    27    30    1
    19    27    26    1
    20    33    37   ar
    21    33     1    1
    22    37     2    2
    23    25    26    1
    24    25     1    1
    25    26     4    2
    26     2     7    1
    27     1     6    1
    28     1    17    1
    29     4    21    1
    30     7     6    2
    31     7     8    1
    32    15    14   ar
    33     6    10    1
    34    21    17   ar
    35    21    20   ar
    36    17    18   ar
    37    12     8    1
    38    12    13    1
    39     8     9    2
    40    14    13    1
    41    14    16   ar
    42    10     9    1
    43    10     3    2
    44    18     3    1
    45    18    19   ar
    46    20    23    1
    47    20    19   ar
    48     9    11    1
    49    23    24    2
    50    19    22    1
