@<TRIPOS>MOLECULE
2vly_HEM_A_1.pdb
 43 50 0 0 0
SMALL
GASTEIGER

@<TRIPOS>ATOM
      1 FE         17.0970  -31.0350   -3.4130 Fe    1154  HEM1154     0.0000
      2  CHA       15.8870  -34.1940   -3.8270 C.2   1154  HEM1154     0.0000
      3  CHB       15.9510  -31.0440   -0.1800 C.2   1154  HEM1154     0.0000
      4  CHC       18.1760  -27.7670   -2.9840 C.2   1154  HEM1154     0.0000
      5  CHD       18.2140  -30.9580   -6.6370 C.2   1154  HEM1154     0.0000
      6  NA        16.0950  -32.3460   -2.2280 N.2   1154  HEM1154     0.0000
      7  C1A       15.7180  -33.6180   -2.5960 C.2   1154  HEM1154     0.0000
      8  C2A       15.1100  -34.2780   -1.4660 C.2   1154  HEM1154     0.0000
      9  C3A       15.1160  -33.4100   -0.4530 C.2   1154  HEM1154     0.0000
     10  C4A       15.7270  -32.1770   -0.9130 C.2   1154  HEM1154     0.0000
     11  CMA       14.5790  -33.6090    0.9650 C.3   1154  HEM1154     0.0000
     12  CAA       14.6020  -35.7330   -1.5020 C.3   1154  HEM1154     0.0000
     13  CBA       15.5670  -36.6270   -0.6900 C.3   1154  HEM1154     0.0000
     14  CGA       16.9750  -36.6320   -1.2600 C.2   1154  HEM1154     0.0000
     15  O1A       17.1410  -37.0210   -2.4550 O.co2 1154  HEM1154     0.0000
     16  O2A       17.9320  -36.2760   -0.4970 O.co2 1154  HEM1154     0.0000
     17  NB        17.1210  -29.6800   -1.8760 N.ar  1154  HEM1154     0.0000
     18  C1B       16.5820  -29.9050   -0.6320 C.ar  1154  HEM1154     0.0000
     19  C2B       16.7470  -28.6950    0.1690 C.ar  1154  HEM1154     0.0000
     20  C3B       17.3600  -27.7840   -0.6010 C.ar  1154  HEM1154     0.0000
     21  C4B       17.6010  -28.3790   -1.8960 C.ar  1154  HEM1154     0.0000
     22  CMB       16.2810  -28.5560    1.6470 C.3   1154  HEM1154     0.0000
     23  CAB       17.7440  -26.3600   -0.1930 C.2   1154  HEM1154     0.0000
     24  CBB       16.8590  -25.6160    0.5070 C.2   1154  HEM1154     0.0000
     25  NC        18.0390  -29.6300   -4.5870 N.2   1154  HEM1154     0.0000
     26  C1C       18.3180  -28.3220   -4.2440 C.2   1154  HEM1154     0.0000
     27  C2C       18.7930  -27.6270   -5.4330 C.2   1154  HEM1154     0.0000
     28  C3C       18.7980  -28.5040   -6.4600 C.2   1154  HEM1154     0.0000
     29  C4C       18.3470  -29.7870   -5.9190 C.2   1154  HEM1154     0.0000
     30  CMC       19.2030  -26.1480   -5.4050 C.3   1154  HEM1154     0.0000
     31  CAC       19.1980  -28.3420   -7.9510 C.2   1154  HEM1154     0.0000
     32  CBC       19.4400  -27.1500   -8.4760 C.2   1154  HEM1154     0.0000
     33  ND        17.1080  -32.3780   -4.9700 N.ar  1154  HEM1154     0.0000
     34  C1D       17.5680  -32.0940   -6.2410 C.ar  1154  HEM1154     0.0000
     35  C2D       17.2480  -33.2070   -7.1150 C.ar  1154  HEM1154     0.0000
     36  C3D       16.5070  -34.2220   -6.2550 C.ar  1154  HEM1154     0.0000
     37  C4D       16.4780  -33.6220   -4.9300 C.ar  1154  HEM1154     0.0000
     38  CMD       17.5670  -33.3510   -8.6060 C.3   1154  HEM1154     0.0000
     39  CAD       15.9220  -35.5780   -6.7280 C.3   1154  HEM1154     0.0000
     40  CBD       14.6210  -35.1920   -7.4480 C.3   1154  HEM1154     0.0000
     41  CGD       13.8350  -36.3890   -7.9210 C.2   1154  HEM1154     0.0000
     42  O1D       14.0020  -36.7560   -9.1030 O.co2 1154  HEM1154     0.0000
     43  O2D       13.0230  -36.9470   -7.1380 O.co2 1154  HEM1154     0.0000
@<TRIPOS>BOND
     1    42    41   ar
     2    38    35    1
     3    32    31    2
     4    31    28    1
     5    41    40    1
     6    41    43   ar
     7    40    39    1
     8    35    36   ar
     9    35    34   ar
    10    39    36    1
    11     5    34    2
    12     5    29    1
    13    28    29    1
    14    28    27    2
    15    36    37   ar
    16    34    33   ar
    17    29    25    2
    18    27    30    1
    19    27    26    1
    20    33    37   ar
    21    33     1    1
    22    37     2    2
    23    25    26    1
    24    25     1    1
    25    26     4    2
    26     2     7    1
    27     1     6    1
    28     1    17    1
    29     4    21    1
    30     7     6    2
    31     7     8    1
    32    15    14   ar
    33     6    10    1
    34    21    17   ar
    35    21    20   ar
    36    17    18   ar
    37    12     8    1
    38    12    13    1
    39     8     9    2
    40    14    13    1
    41    14    16   ar
    42    10     9    1
    43    10     3    2
    44    18     3    1
    45    18    19   ar
    46    20    23    1
    47    20    19   ar
    48     9    11    1
    49    23    24    2
    50    19    22    1
