@<TRIPOS>MOLECULE
2vlz_HEM_A_1.pdb
 43 50 0 0 0
SMALL
GASTEIGER

@<TRIPOS>ATOM
      1  CHA       15.8990  -34.2050   -3.8470 C.2   1154  HEM1154     0.0000
      2  CHB       15.9690  -31.0480   -0.1660 C.2   1154  HEM1154     0.0000
      3  CHC       18.2320  -27.7870   -2.9530 C.2   1154  HEM1154     0.0000
      4  CHD       18.1700  -30.9160   -6.6470 C.2   1154  HEM1154     0.0000
      5  C1A       15.7370  -33.6280   -2.6130 C.2   1154  HEM1154     0.0000
      6  C2A       15.1390  -34.2780   -1.4670 C.2   1154  HEM1154     0.0000
      7  C3A       15.1480  -33.4180   -0.4490 C.2   1154  HEM1154     0.0000
      8  C4A       15.7600  -32.1860   -0.9150 C.2   1154  HEM1154     0.0000
      9  CMA       14.6160  -33.6260    0.9800 C.3   1154  HEM1154     0.0000
     10  CAA       14.6100  -35.7260   -1.4730 C.3   1154  HEM1154     0.0000
     11  CBA       15.6000  -36.6070   -0.6810 C.3   1154  HEM1154     0.0000
     12  CGA       16.9990  -36.6200   -1.2680 C.2   1154  HEM1154     0.0000
     13  O1A       17.1550  -37.0280   -2.4640 O.co2 1154  HEM1154     0.0000
     14  O2A       17.9520  -36.2570   -0.5040 O.co2 1154  HEM1154     0.0000
     15  C1B       16.5890  -29.8970   -0.6050 C.ar  1154  HEM1154     0.0000
     16  C2B       16.7460  -28.6930    0.1770 C.ar  1154  HEM1154     0.0000
     17  C3B       17.3730  -27.7860   -0.5900 C.ar  1154  HEM1154     0.0000
     18  C4B       17.6260  -28.3920   -1.8760 C.ar  1154  HEM1154     0.0000
     19  CMB       16.2540  -28.5600    1.6320 C.3   1154  HEM1154     0.0000
     20  CAB       17.7710  -26.3510   -0.2340 C.2   1154  HEM1154     0.0000
     21  CBB       16.9380  -25.5600    0.4760 C.2   1154  HEM1154     0.0000
     22  C1C       18.3580  -28.3290   -4.2240 C.2   1154  HEM1154     0.0000
     23  C2C       18.8490  -27.6350   -5.4080 C.2   1154  HEM1154     0.0000
     24  C3C       18.8280  -28.4990   -6.4470 C.2   1154  HEM1154     0.0000
     25  C4C       18.3260  -29.7660   -5.9150 C.2   1154  HEM1154     0.0000
     26  CMC       19.3140  -26.1620   -5.4210 C.3   1154  HEM1154     0.0000
     27  CAC       19.2440  -28.2680   -7.9310 C.2   1154  HEM1154     0.0000
     28  CBC       19.4390  -27.0460   -8.4200 C.2   1154  HEM1154     0.0000
     29  C1D       17.5520  -32.0630   -6.2400 C.ar  1154  HEM1154     0.0000
     30  C2D       17.2450  -33.1640   -7.1200 C.ar  1154  HEM1154     0.0000
     31  C3D       16.5400  -34.1890   -6.2550 C.ar  1154  HEM1154     0.0000
     32  C4D       16.4780  -33.6050   -4.9360 C.ar  1154  HEM1154     0.0000
     33  CMD       17.5860  -33.3010   -8.6200 C.3   1154  HEM1154     0.0000
     34  CAD       15.9700  -35.5340   -6.7290 C.3   1154  HEM1154     0.0000
     35  CBD       14.6110  -35.1590   -7.3430 C.3   1154  HEM1154     0.0000
     36  CGD       13.8610  -36.3590   -7.8620 C.2   1154  HEM1154     0.0000
     37  O1D       14.1340  -36.7730   -9.0080 O.co2 1154  HEM1154     0.0000
     38  O2D       12.9770  -36.8850   -7.1410 O.co2 1154  HEM1154     0.0000
     39  NA        16.1220  -32.3610   -2.2370 N.2   1154  HEM1154     0.0000
     40  NB        17.1430  -29.6850   -1.8620 N.ar  1154  HEM1154     0.0000
     41  NC        18.0530  -29.6280   -4.5800 N.2   1154  HEM1154     0.0000
     42  ND        17.0830  -32.3460   -4.9550 N.ar  1154  HEM1154     0.0000
     43 FE         17.1020  -31.0150   -3.4160 Fe    1154  HEM1154     0.0000
@<TRIPOS>BOND
     1    37    36   ar
     2    33    30    1
     3    28    27    2
     4    27    24    1
     5    36    35    1
     6    36    38   ar
     7    35    34    1
     8    30    31   ar
     9    30    29   ar
    10    34    31    1
    11     4    29    2
    12     4    25    1
    13    24    25    1
    14    24    23    2
    15    31    32   ar
    16    29    42   ar
    17    25    41    2
    18    26    23    1
    19    23    22    1
    20    42    32   ar
    21    42    43    1
    22    32     1    2
    23    41    22    1
    24    41    43    1
    25    22     3    2
    26     1     5    1
    27    43    39    1
    28    43    40    1
    29     3    18    1
    30     5    39    2
    31     5     6    1
    32    13    12   ar
    33    39     8    1
    34    18    40   ar
    35    18    17   ar
    36    40    15   ar
    37    10     6    1
    38    10    11    1
    39     6     7    2
    40    12    11    1
    41    12    14   ar
    42     8     7    1
    43     8     2    2
    44    15     2    1
    45    15    16   ar
    46    17    20    1
    47    17    16   ar
    48     7     9    1
    49    20    21    2
    50    16    19    1
