@<TRIPOS>MOLECULE
2vm0_HEM_A_1.pdb
 43 50 0 0 0
SMALL
GASTEIGER

@<TRIPOS>ATOM
      1  CHA       15.9100  -34.2380   -3.8810 C.2   1154  HEM1154     0.0000
      2  CHB       15.9290  -31.0660   -0.2330 C.2   1154  HEM1154     0.0000
      3  CHC       18.2150  -27.7980   -3.0090 C.2   1154  HEM1154     0.0000
      4  CHD       18.2020  -30.9800   -6.6540 C.2   1154  HEM1154     0.0000
      5  C1A       15.7460  -33.6630   -2.6530 C.2   1154  HEM1154     0.0000
      6  C2A       15.1110  -34.3030   -1.5230 C.2   1154  HEM1154     0.0000
      7  C3A       15.1200  -33.4310   -0.5080 C.2   1154  HEM1154     0.0000
      8  C4A       15.7230  -32.2020   -0.9750 C.2   1154  HEM1154     0.0000
      9  CMA       14.5870  -33.6190    0.9260 C.3   1154  HEM1154     0.0000
     10  CAA       14.6060  -35.7670   -1.5390 C.3   1154  HEM1154     0.0000
     11  CBA       15.6090  -36.6470   -0.7530 C.3   1154  HEM1154     0.0000
     12  CGA       17.0190  -36.6610   -1.3260 C.2   1154  HEM1154     0.0000
     13  O1A       17.1940  -37.0710   -2.5130 O.co2 1154  HEM1154     0.0000
     14  O2A       17.9750  -36.3120   -0.5700 O.co2 1154  HEM1154     0.0000
     15  C1B       16.5810  -29.9170   -0.6650 C.ar  1154  HEM1154     0.0000
     16  C2B       16.7580  -28.7250    0.1410 C.ar  1154  HEM1154     0.0000
     17  C3B       17.3900  -27.8170   -0.6160 C.ar  1154  HEM1154     0.0000
     18  C4B       17.6070  -28.3920   -1.9230 C.ar  1154  HEM1154     0.0000
     19  CMB       16.3110  -28.6080    1.6300 C.3   1154  HEM1154     0.0000
     20  CAB       17.8220  -26.4150   -0.1970 C.2   1154  HEM1154     0.0000
     21  CBB       16.9410  -25.6220    0.4550 C.2   1154  HEM1154     0.0000
     22  C1C       18.3360  -28.3340   -4.2870 C.2   1154  HEM1154     0.0000
     23  C2C       18.7950  -27.6250   -5.4730 C.2   1154  HEM1154     0.0000
     24  C3C       18.7790  -28.5000   -6.5170 C.2   1154  HEM1154     0.0000
     25  C4C       18.3470  -29.7900   -5.9660 C.2   1154  HEM1154     0.0000
     26  CMC       19.1740  -26.1260   -5.4680 C.3   1154  HEM1154     0.0000
     27  CAC       19.1530  -28.2960   -8.0110 C.2   1154  HEM1154     0.0000
     28  CBC       19.4000  -27.0950   -8.4910 C.2   1154  HEM1154     0.0000
     29  C1D       17.5600  -32.1050   -6.2530 C.ar  1154  HEM1154     0.0000
     30  C2D       17.2600  -33.1970   -7.1440 C.ar  1154  HEM1154     0.0000
     31  C3D       16.5230  -34.2280   -6.3060 C.ar  1154  HEM1154     0.0000
     32  C4D       16.4760  -33.6530   -4.9770 C.ar  1154  HEM1154     0.0000
     33  CMD       17.5780  -33.2900   -8.6480 C.3   1154  HEM1154     0.0000
     34  CAD       15.9520  -35.5740   -6.7960 C.3   1154  HEM1154     0.0000
     35  CBD       14.6160  -35.1590   -7.4240 C.3   1154  HEM1154     0.0000
     36  CGD       13.8550  -36.3510   -7.9340 C.2   1154  HEM1154     0.0000
     37  O1D       13.0720  -36.9620   -7.1650 O.co2 1154  HEM1154     0.0000
     38  O2D       14.0260  -36.6690   -9.1370 O.co2 1154  HEM1154     0.0000
     39  NA        16.1040  -32.3880   -2.2800 N.2   1154  HEM1154     0.0000
     40  NB        17.1110  -29.6830   -1.9280 N.ar  1154  HEM1154     0.0000
     41  NC        18.0940  -29.6400   -4.6340 N.2   1154  HEM1154     0.0000
     42  ND        17.0950  -32.4040   -4.9730 N.ar  1154  HEM1154     0.0000
     43 FE         17.0790  -31.0640   -3.4720 Fe    1154  HEM1154     0.0000
@<TRIPOS>BOND
     1    38    36   ar
     2    33    30    1
     3    28    27    2
     4    27    24    1
     5    36    35    1
     6    36    37   ar
     7    35    34    1
     8    30    31   ar
     9    30    29   ar
    10    34    31    1
    11     4    29    2
    12     4    25    1
    13    24    25    1
    14    24    23    2
    15    31    32   ar
    16    29    42   ar
    17    25    41    2
    18    23    26    1
    19    23    22    1
    20    32    42   ar
    21    32     1    2
    22    42    43    1
    23    41    22    1
    24    41    43    1
    25    22     3    2
    26     1     5    1
    27    43    39    1
    28    43    40    1
    29     3    18    1
    30     5    39    2
    31     5     6    1
    32    13    12   ar
    33    39     8    1
    34    40    18   ar
    35    40    15   ar
    36    18    17   ar
    37    10     6    1
    38    10    11    1
    39     6     7    2
    40    12    11    1
    41    12    14   ar
    42     8     7    1
    43     8     2    2
    44    15     2    1
    45    15    16   ar
    46    17    20    1
    47    17    16   ar
    48     7     9    1
    49    20    21    2
    50    16    19    1
