@<TRIPOS>MOLECULE
2vmc_A2G_A_1.pdb
 15 15 0 0 0
SMALL
GASTEIGER

@<TRIPOS>ATOM
      1  C1        11.1540   10.1560  122.9750 C.3   501  A2G501      0.2917
      2  O1        11.3510   11.5750  123.0240 O.3   501  A2G501     -0.1879
      3  C2        11.3170    9.6660  121.5380 C.3   501  A2G501      0.1871
      4  C3        10.1750   10.1330  120.6020 C.3   501  A2G501      0.2095
      5  C4         8.8000    9.8220  121.2070 C.3   501  A2G501      0.2136
      6  C5         8.7690   10.3350  122.6620 C.3   501  A2G501      0.1835
      7  C6         7.4520   10.0070  123.3540 C.3   501  A2G501      0.2142
      8  C7        13.7080    9.3390  121.1950 C.2   501  A2G501      0.2421
      9  C8        14.9660    9.9080  120.5910 C.3   501  A2G501      0.0964
     10  O          9.8490    9.8330  123.4620 O.3   501  A2G501     -0.3242
     11  O3        10.2690    9.5750  119.2780 O.3   501  A2G501     -0.2183
     12  O4         8.5320    8.4190  121.1580 O.3   501  A2G501     -0.2176
     13  O6         7.4320   10.7420  124.5960 O.3   501  A2G501     -0.2176
     14  O7        13.6820    8.2830  121.8350 O.2   501  A2G501     -0.2733
     15  N2        12.6050   10.0740  120.9860 N.am  501  A2G501     -0.1991
@<TRIPOS>BOND
     1    11     4    1
     2     9     8    1
     3     4     5    1
     4     4     3    1
     5    15     8   am
     6    15     3    1
     7    12     5    1
     8     8    14    2
     9     5     6    1
    10     3     1    1
    11     6     7    1
    12     6    10    1
    13     1     2    1
    14     1    10    1
    15     7    13    1
