@<TRIPOS>MOLECULE
2vmd_MBG_A_1.pdb
 13 13 0 0 0
SMALL
GASTEIGER

@<TRIPOS>ATOM
      1  C1         3.3110   14.6140    7.8260 C.3   501  MBG501      0.2695
      2  C2         2.6900   14.4450    9.2290 C.3   501  MBG501      0.2406
      3  C3         3.6770   13.7030   10.1200 C.3   501  MBG501      0.2198
      4  C4         4.0870   12.3720    9.4750 C.3   501  MBG501      0.2144
      5  C5         4.5740   12.6390    8.0420 C.3   501  MBG501      0.1835
      6  C6         4.9420   11.3410    7.3350 C.3   501  MBG501      0.2142
      7  C7         1.0980   15.3950    7.2860 C.3   501  MBG501      0.1769
      8  O1         2.5080   15.4000    6.9170 O.3   501  MBG501     -0.3259
      9  O2         2.3660   15.6820    9.8740 O.3   501  MBG501     -0.2149
     10  O3         3.1090   13.5360   11.4290 O.3   501  MBG501     -0.2174
     11  O4         2.9640   11.4730    9.4590 O.3   501  MBG501     -0.2176
     12  O5         3.5610   13.2900    7.2690 O.3   501  MBG501     -0.3256
     13  O6         5.6630   11.6480    6.1320 O.3   501  MBG501     -0.2176
@<TRIPOS>BOND
     1    13     6    1
     2     8     7    1
     3     8     1    1
     4    12     1    1
     5    12     5    1
     6     6     5    1
     7     1     2    1
     8     5     4    1
     9     2     9    1
    10     2     3    1
    11    11     4    1
    12     4     3    1
    13     3    10    1
