@<TRIPOS>MOLECULE
2vmf_MVL_A_1.pdb
 14 15 0 0 0
SMALL
GASTEIGER

@<TRIPOS>ATOM
      1  C1        27.3100   45.7400   -1.8390 C.ar  1865  MVL1865     0.1538
      2  N10       26.8680   46.8430   -2.4160 N.ar  1865  MVL1865    -0.3082
      3  C3        27.7980   46.8180    0.3060 C.3   1865  MVL1865     0.2215
      4  C4        27.5200   48.1230   -0.4960 C.3   1865  MVL1865     0.2082
      5  C5        26.4450   47.9680   -1.5690 C.3   1865  MVL1865     0.1525
      6  C6        26.1240   49.2410   -2.3540 C.3   1865  MVL1865     0.2072
      7  C7        27.6120   45.5840   -4.0000 C.ar  1865  MVL1865     0.1189
      8  C8        27.1560   46.8310   -3.7520 C.ar  1865  MVL1865     0.0979
      9  N1        27.7460   44.9390   -2.8210 N.ar  1865  MVL1865    -0.2266
     10  O3        29.2060   46.6590    0.4770 O.3   1865  MVL1865    -0.2171
     11  O2        27.9790   44.3630    0.0130 O.3   1865  MVL1865    -0.2121
     12  O4        27.1230   49.2020    0.3640 O.3   1865  MVL1865    -0.2182
     13  C2        27.2640   45.5360   -0.3630 C.3   1865  MVL1865     0.2405
     14  O6        27.1890   49.5940   -3.2240 O.3   1865  MVL1865    -0.2182
@<TRIPOS>BOND
     1     7     8   ar
     2     7     9   ar
     3     8     2   ar
     4    14     6    1
     5     9     1   ar
     6     2     1   ar
     7     2     5    1
     8     6     5    1
     9     1    13    1
    10     5     4    1
    11     4     3    1
    12     4    12    1
    13    13    11    1
    14    13     3    1
    15     3    10    1
