@<TRIPOS>MOLECULE
2vmg_MBG_A_1.pdb
 13 13 0 0 0
SMALL
GASTEIGER

@<TRIPOS>ATOM
      1  C1        -3.9690  -16.5920    5.0070 C.3   1179  MBG1179     0.2695
      2  C2        -2.6680  -16.1340    4.3500 C.3   1179  MBG1179     0.2406
      3  C3        -1.5840  -15.9410    5.4100 C.3   1179  MBG1179     0.2198
      4  C4        -2.0670  -14.9940    6.5100 C.3   1179  MBG1179     0.2144
      5  C5        -3.4140  -15.4670    7.0710 C.3   1179  MBG1179     0.1835
      6  C6        -3.9720  -14.4960    8.1130 C.3   1179  MBG1179     0.2142
      7  C7        -5.9960  -17.6410    4.3840 C.3   1179  MBG1179     0.1769
      8  O1        -4.9850  -16.7050    4.0100 O.3   1179  MBG1179    -0.3259
      9  O2        -2.2240  -17.0770    3.3680 O.3   1179  MBG1179    -0.2149
     10  O3        -0.3930  -15.4460    4.7890 O.3   1179  MBG1179    -0.2174
     11  O4        -2.1960  -13.6730    5.9720 O.3   1179  MBG1179    -0.2176
     12  O5        -4.3730  -15.6470    6.0130 O.3   1179  MBG1179    -0.3256
     13  O6        -5.0330  -15.1330    8.8340 O.3   1179  MBG1179    -0.2176
@<TRIPOS>BOND
     1     9     2    1
     2     8     7    1
     3     8     1    1
     4     2     1    1
     5     2     3    1
     6    10     3    1
     7     1    12    1
     8     3     4    1
     9    11     4    1
    10    12     5    1
    11     4     5    1
    12     5     6    1
    13     6    13    1
