@<TRIPOS>MOLECULE
2vmn_PLP_A_1.pdb
 15 15 0 0 0
SMALL
GASTEIGER

@<TRIPOS>ATOM
      1  N1         9.4370    9.4010   22.9550 N.2   501  PLP501     -0.2458
      2  C2        10.0720   10.3840   22.2170 C.2   501  PLP501      0.0942
      3  C2A       11.3770   10.9590   22.7040 C.3   501  PLP501      0.0552
      4  C3         9.5010   10.8420   21.0270 C.2   501  PLP501      0.1899
      5  O3        10.0790   11.7160   20.3760 O.2   501  PLP501     -0.2898
      6  C4         8.2880   10.3100   20.5610 C.3   501  PLP501      0.0852
      7  C4A        7.7200   10.8200   19.2550 C.3   501  PLP501      0.0127
      8  C5         7.6540    9.3140   21.3350 C.2   501  PLP501      0.0118
      9  C6         8.2350    8.8730   22.5200 C.2   501  PLP501      0.0929
     10  C5A        6.3370    8.6860   20.9710 C.3   501  PLP501      0.1779
     11  O4P        6.1610    7.9420   19.7500 O.3   501  PLP501     -0.2656
     12  P          4.6770    7.6010   19.2320 P.3   501  PLP501      0.5329
     13  O1P        3.9940    6.9120   20.3590 O.3   501  PLP501     -0.1145
     14  O2P        4.0860    8.9280   18.9180 O.3   501  PLP501     -0.1145
     15  O3P        4.9970    6.7760   18.0490 O.2   501  PLP501     -0.2224
@<TRIPOS>BOND
     1    15    12    2
     2    14    12    1
     3    12    11    1
     4    12    13    1
     5     7     6    1
     6    11    10    1
     7     5     4    2
     8     6     4    1
     9     6     8    1
    10    10     8    1
    11     4     2    1
    12     8     9    2
    13     2     3    1
    14     2     1    2
    15     9     1    1
