@<TRIPOS>MOLECULE
2vmo_PLP_A_1.pdb
 15 15 0 0 0
SMALL
GASTEIGER

@<TRIPOS>ATOM
      1  N1         9.6960    9.2230   22.4540 N.ar  501  PLP501     -0.2452
      2  C2        10.0230   10.4840   22.0070 C.ar  501  PLP501      0.0978
      3  C2A       11.3820   11.0430   22.3390 C.3   501  PLP501      0.0555
      4  C3         9.0960   11.2120   21.2530 C.ar  501  PLP501      0.2049
      5  O3         9.4200   12.4610   20.7940 O.3   501  PLP501     -0.2857
      6  C4         7.8330   10.6620   20.9560 C.ar  501  PLP501      0.0182
      7  C4A        6.8310   11.4610   20.1490 C.3   501  PLP501      0.0342
      8  C5         7.5210    9.3760   21.4310 C.ar  501  PLP501      0.0261
      9  C6         8.4550    8.6690   22.1850 C.ar  501  PLP501      0.0965
     10  C5A        6.1740    8.7270   21.1880 C.3   501  PLP501      0.1815
     11  O4P        6.0940    8.1050   19.9310 O.3   501  PLP501     -0.2653
     12  P          4.6400    7.6880   19.3660 P.3   501  PLP501      0.5329
     13  O1P        3.8750    6.9720   20.4630 O.3   501  PLP501     -0.1145
     14  O2P        3.9350    8.9880   19.0330 O.3   501  PLP501     -0.1145
     15  O3P        4.9090    6.8360   18.1560 O.2   501  PLP501     -0.2224
@<TRIPOS>BOND
     1    15    12    2
     2    14    12    1
     3    12    11    1
     4    12    13    1
     5    11    10    1
     6     7     6    1
     7     5     4    1
     8     6     4   ar
     9     6     8   ar
    10    10     8    1
    11     4     2   ar
    12     8     9   ar
    13     2     3    1
    14     2     1   ar
    15     9     1   ar
