@<TRIPOS>MOLECULE
2vmp_PLP_A_1.pdb
 15 15 0 0 0
SMALL
GASTEIGER

@<TRIPOS>ATOM
      1  N1         9.6530    9.1990   22.4210 N.ar  501  PLP501     -0.2452
      2  C2         9.9880   10.4600   21.9690 C.ar  501  PLP501      0.0978
      3  C2A       11.3300   11.0370   22.3420 C.3   501  PLP501      0.0555
      4  C3         9.0850   11.1750   21.1730 C.ar  501  PLP501      0.2049
      5  O3         9.4150   12.4220   20.7150 O.3   501  PLP501     -0.2857
      6  C4         7.8350   10.6200   20.8330 C.ar  501  PLP501      0.0182
      7  C4A        6.8650   11.4020   19.9760 C.3   501  PLP501      0.0342
      8  C5         7.5110    9.3410   21.3170 C.ar  501  PLP501      0.0261
      9  C6         8.4220    8.6420   22.1100 C.ar  501  PLP501      0.0965
     10  C5A        6.1190    8.7650   21.1500 C.3   501  PLP501      0.1815
     11  O4P        6.0220    8.0900   19.9110 O.3   501  PLP501     -0.2653
     12  P          4.5720    7.6700   19.3310 P.3   501  PLP501      0.5329
     13  O1P        3.8080    7.0040   20.4590 O.3   501  PLP501     -0.1145
     14  O2P        3.8870    8.9590   18.9170 O.3   501  PLP501     -0.1145
     15  O3P        4.8090    6.7500   18.1740 O.2   501  PLP501     -0.2224
@<TRIPOS>BOND
     1    15    12    2
     2    14    12    1
     3    12    11    1
     4    12    13    1
     5    11    10    1
     6     7     6    1
     7     5     4    1
     8     6     4   ar
     9     6     8   ar
    10    10     8    1
    11     4     2   ar
    12     8     9   ar
    13     2     3    1
    14     2     1   ar
    15     9     1   ar
