@<TRIPOS>MOLECULE
2vmq_PLP_A_1.pdb
 15 15 0 0 0
SMALL
GASTEIGER

@<TRIPOS>ATOM
      1  N1         9.6280    9.2560   22.5190 N.ar  501  PLP501     -0.2452
      2  C2         9.9790   10.5030   22.0530 C.ar  501  PLP501      0.0978
      3  C2A       11.3360   11.0520   22.4070 C.3   501  PLP501      0.0555
      4  C3         9.0750   11.2260   21.2630 C.ar  501  PLP501      0.2049
      5  O3         9.4300   12.4660   20.7960 O.3   501  PLP501     -0.2857
      6  C4         7.8080   10.6790   20.9530 C.ar  501  PLP501      0.0182
      7  C4A        6.8190   11.4630   20.1100 C.3   501  PLP501      0.0342
      8  C5         7.4800    9.4000   21.4490 C.ar  501  PLP501      0.0261
      9  C6         8.3920    8.7070   22.2360 C.ar  501  PLP501      0.0965
     10  C5A        6.1400    8.7340   21.2030 C.3   501  PLP501      0.1815
     11  O4P        6.0670    8.0750   19.9670 O.3   501  PLP501     -0.2653
     12  P          4.6100    7.6750   19.3820 P.3   501  PLP501      0.5329
     13  O1P        3.8230    6.9750   20.4740 O.3   501  PLP501     -0.1145
     14  O2P        3.9430    8.9760   18.9840 O.3   501  PLP501     -0.1145
     15  O3P        4.8500    6.7900   18.1870 O.2   501  PLP501     -0.2224
@<TRIPOS>BOND
     1    15    12    2
     2    14    12    1
     3    12    11    1
     4    12    13    1
     5    11    10    1
     6     7     6    1
     7     5     4    1
     8     6     4   ar
     9     6     8   ar
    10    10     8    1
    11     4     2   ar
    12     8     9   ar
    13     2     3    1
    14     2     1   ar
    15     9     1   ar
