@<TRIPOS>MOLECULE
2vmr_PLP_A_1.pdb
 15 15 0 0 0
SMALL
GASTEIGER

@<TRIPOS>ATOM
      1  N1         9.4950    9.4210   22.9360 N.2   501  PLP501     -0.2458
      2  C2        10.1320   10.3930   22.1930 C.2   501  PLP501      0.0942
      3  C2A       11.4220   10.9770   22.7030 C.3   501  PLP501      0.0552
      4  C3         9.5700   10.8270   20.9910 C.2   501  PLP501      0.1899
      5  O3        10.1600   11.6900   20.3430 O.2   501  PLP501     -0.2898
      6  C4         8.3660   10.2730   20.5160 C.3   501  PLP501      0.0852
      7  C4A        7.7990   10.7440   19.1950 C.3   501  PLP501      0.0127
      8  C5         7.7330    9.2810   21.2990 C.2   501  PLP501      0.0118
      9  C6         8.3060    8.8740   22.4990 C.2   501  PLP501      0.0929
     10  C5A        6.4200    8.6290   20.9550 C.3   501  PLP501      0.1779
     11  O4P        6.1810    7.9160   19.7350 O.3   501  PLP501     -0.2656
     12  P          4.6740    7.6130   19.2410 P.3   501  PLP501      0.5329
     13  O1P        3.9930    6.9430   20.3780 O.3   501  PLP501     -0.1145
     14  O2P        4.1050    8.9580   18.9430 O.3   501  PLP501     -0.1145
     15  O3P        4.9300    6.7650   18.0610 O.2   501  PLP501     -0.2224
@<TRIPOS>BOND
     1    15    12    2
     2    14    12    1
     3     7     6    1
     4    12    11    1
     5    12    13    1
     6    11    10    1
     7     5     4    2
     8     6     4    1
     9     6     8    1
    10    10     8    1
    11     4     2    1
    12     8     9    2
    13     2     3    1
    14     2     1    2
    15     9     1    1
