@<TRIPOS>MOLECULE
2vms_PLP_A_1.pdb
 15 15 0 0 0
SMALL
GASTEIGER

@<TRIPOS>ATOM
      1  N1         9.5940    9.5390   22.6910 N.2   501  PLP501     -0.2458
      2  C2        10.1340   10.6370   22.0540 C.2   501  PLP501      0.0942
      3  C2A       11.4240   11.2240   22.5520 C.3   501  PLP501      0.0552
      4  C3         9.4740   11.1840   20.9540 C.2   501  PLP501      0.1899
      5  O3         9.9460   12.1610   20.3750 O.2   501  PLP501     -0.2898
      6  C4         8.2790   10.6320   20.4870 C.3   501  PLP501      0.0852
      7  C4A        7.6380   11.2860   19.2820 C.3   501  PLP501      0.0127
      8  C5         7.7450    9.5070   21.1450 C.2   501  PLP501      0.0118
      9  C6         8.4110    8.9820   22.2510 C.2   501  PLP501      0.0929
     10  C5A        6.4440    8.8480   20.7770 C.3   501  PLP501      0.1779
     11  O4P        6.1890    7.9200   19.7020 O.3   501  PLP501     -0.2656
     12  P          4.6530    7.6920   19.2600 P.3   501  PLP501      0.5329
     13  O1P        3.9820    7.0800   20.4270 O.3   501  PLP501     -0.1145
     14  O2P        4.1720    9.0640   18.9670 O.3   501  PLP501     -0.1145
     15  O3P        4.7760    6.8020   18.0840 O.2   501  PLP501     -0.2224
@<TRIPOS>BOND
     1    15    12    2
     2    14    12    1
     3    12    11    1
     4    12    13    1
     5     7     6    1
     6    11    10    1
     7     5     4    2
     8     6     4    1
     9     6     8    1
    10    10     8    1
    11     4     2    1
    12     8     9    2
    13     2     3    1
    14     2     1    2
    15     9     1    1
