@<TRIPOS>MOLECULE
2vmt_PLP_A_1.pdb
 15 15 0 0 0
SMALL
GASTEIGER

@<TRIPOS>ATOM
      1  N1         9.6580    9.3180   22.4460 N.ar  501  PLP501     -0.2452
      2  C2         9.9790   10.5870   22.0150 C.ar  501  PLP501      0.0978
      3  C2A       11.3050   11.1780   22.4170 C.3   501  PLP501      0.0555
      4  C3         9.0760   11.2920   21.2120 C.ar  501  PLP501      0.2049
      5  O3         9.3910   12.5530   20.7730 O.3   501  PLP501     -0.2857
      6  C4         7.8420   10.7110   20.8560 C.ar  501  PLP501      0.0182
      7  C4A        6.8650   11.4920   20.0000 C.3   501  PLP501      0.0342
      8  C5         7.5380    9.4180   21.3210 C.ar  501  PLP501      0.0261
      9  C6         8.4510    8.7310   22.1150 C.ar  501  PLP501      0.0965
     10  C5A        6.1430    8.8360   21.2080 C.3   501  PLP501      0.1815
     11  O4P        6.0300    8.1280   19.9950 O.3   501  PLP501     -0.2653
     12  P          4.5710    7.7300   19.4200 P.3   501  PLP501      0.5329
     13  O1P        3.8220    7.0030   20.5160 O.3   501  PLP501     -0.1145
     14  O2P        3.8800    9.0290   19.0700 O.3   501  PLP501     -0.1145
     15  O3P        4.7940    6.8520   18.2130 O.2   501  PLP501     -0.2224
@<TRIPOS>BOND
     1    15    12    2
     2    14    12    1
     3    12    11    1
     4    12    13    1
     5    11    10    1
     6     7     6    1
     7     5     4    1
     8     6     4   ar
     9     6     8   ar
    10    10     8    1
    11     4     2   ar
    12     8     9   ar
    13     2     3    1
    14     2     1   ar
    15     9     1   ar
