@<TRIPOS>MOLECULE
2vmu_PLP_A_1.pdb
 15 15 0 0 0
SMALL
GASTEIGER

@<TRIPOS>ATOM
      1  N1         9.4880    9.5060   22.7500 N.2   501  PLP501     -0.2458
      2  C2        10.0220   10.6190   22.1350 C.2   501  PLP501      0.0942
      3  C2A       11.3200   11.1950   22.6360 C.3   501  PLP501      0.0552
      4  C3         9.3530   11.1810   21.0480 C.2   501  PLP501      0.1899
      5  O3         9.8010   12.1760   20.4840 O.2   501  PLP501     -0.2898
      6  C4         8.1470   10.6460   20.5830 C.3   501  PLP501      0.0852
      7  C4A        7.5400   11.3260   19.3700 C.3   501  PLP501      0.0127
      8  C5         7.6270    9.5060   21.2320 C.2   501  PLP501      0.0118
      9  C6         8.3020    8.9560   22.3120 C.2   501  PLP501      0.0929
     10  C5A        6.3250    8.8510   20.8730 C.3   501  PLP501      0.1779
     11  O4P        6.1160    7.9640   19.7700 O.3   501  PLP501     -0.2656
     12  P          4.6010    7.6700   19.2980 P.3   501  PLP501      0.5329
     13  O1P        3.9400    7.0030   20.4340 O.3   501  PLP501     -0.1145
     14  O2P        4.0400    9.0210   19.0390 O.3   501  PLP501     -0.1145
     15  O3P        4.8560    6.8180   18.1140 O.2   501  PLP501     -0.2224
@<TRIPOS>BOND
     1    15    12    2
     2    14    12    1
     3    12    11    1
     4    12    13    1
     5     7     6    1
     6    11    10    1
     7     5     4    2
     8     6     4    1
     9     6     8    1
    10    10     8    1
    11     4     2    1
    12     8     9    2
    13     2     3    1
    14     2     1    2
    15     9     1    1
