@<TRIPOS>MOLECULE
2vmv_PLP_A_1.pdb
 15 15 0 0 0
SMALL
GASTEIGER

@<TRIPOS>ATOM
      1  N1         9.4920    9.3670   22.9260 N.2   501  PLP501     -0.2458
      2  C2        10.1420   10.3270   22.1730 C.2   501  PLP501      0.0942
      3  C2A       11.4430   10.9070   22.6620 C.3   501  PLP501      0.0552
      4  C3         9.5940   10.7520   20.9620 C.2   501  PLP501      0.1899
      5  O3        10.2020   11.6050   20.3110 O.2   501  PLP501     -0.2898
      6  C4         8.3830   10.2100   20.4930 C.3   501  PLP501      0.0852
      7  C4A        7.8250   10.6790   19.1670 C.3   501  PLP501      0.0127
      8  C5         7.7320    9.2400   21.2930 C.2   501  PLP501      0.0118
      9  C6         8.2940    8.8310   22.4970 C.2   501  PLP501      0.0929
     10  C5A        6.4140    8.6030   20.9440 C.3   501  PLP501      0.1779
     11  O4P        6.1960    7.9290   19.6950 O.3   501  PLP501     -0.2656
     12  P          4.6930    7.6250   19.2040 P.3   501  PLP501      0.5329
     13  O1P        4.0360    6.8960   20.3210 O.3   501  PLP501     -0.1145
     14  O2P        4.0990    8.9650   18.9350 O.3   501  PLP501     -0.1145
     15  O3P        4.9560    6.8250   17.9930 O.2   501  PLP501     -0.2224
@<TRIPOS>BOND
     1    15    12    2
     2    14    12    1
     3     7     6    1
     4    12    11    1
     5    12    13    1
     6    11    10    1
     7     5     4    2
     8     6     4    1
     9     6     8    1
    10    10     8    1
    11     4     2    1
    12     8     9    2
    13     2     3    1
    14     2     1    2
    15     9     1    1
