@<TRIPOS>MOLECULE
2vmw_PLP_A_1.pdb
 15 15 0 0 0
SMALL
GASTEIGER

@<TRIPOS>ATOM
      1  N1         9.6340    9.2610   22.4720 N.ar  501  PLP501     -0.2452
      2  C2         9.9650   10.5300   22.0410 C.ar  501  PLP501      0.0978
      3  C2A       11.2950   11.1210   22.4440 C.3   501  PLP501      0.0555
      4  C3         9.0620   11.2360   21.2390 C.ar  501  PLP501      0.2049
      5  O3         9.3790   12.4910   20.7950 O.3   501  PLP501     -0.2857
      6  C4         7.8260   10.6580   20.8800 C.ar  501  PLP501      0.0182
      7  C4A        6.8500   11.4280   20.0190 C.3   501  PLP501      0.0342
      8  C5         7.5120    9.3710   21.3470 C.ar  501  PLP501      0.0261
      9  C6         8.4230    8.6820   22.1410 C.ar  501  PLP501      0.0965
     10  C5A        6.1260    8.7900   21.1870 C.3   501  PLP501      0.1815
     11  O4P        6.0400    8.0970   19.9600 O.3   501  PLP501     -0.2653
     12  P          4.5900    7.6920   19.3890 P.3   501  PLP501      0.5329
     13  O1P        3.8530    7.0110   20.5270 O.3   501  PLP501     -0.1145
     14  O2P        3.8840    8.9660   18.9740 O.3   501  PLP501     -0.1145
     15  O3P        4.8080    6.7550   18.2290 O.2   501  PLP501     -0.2224
@<TRIPOS>BOND
     1    15    12    2
     2    14    12    1
     3    12    11    1
     4    12    13    1
     5    11    10    1
     6     7     6    1
     7     5     4    1
     8     6     4   ar
     9     6     8   ar
    10    10     8    1
    11     4     2   ar
    12     8     9   ar
    13     2     3    1
    14     2     1   ar
    15     9     1   ar
