@<TRIPOS>MOLECULE
2vmx_PLP_A_1.pdb
 15 15 0 0 0
SMALL
GASTEIGER

@<TRIPOS>ATOM
      1  N1         9.6110    9.2390   22.4500 N.ar  501  PLP501     -0.2452
      2  C2         9.9610   10.5010   21.9980 C.ar  501  PLP501      0.0978
      3  C2A       11.3200   11.0510   22.3450 C.3   501  PLP501      0.0555
      4  C3         9.0570   11.2370   21.2240 C.ar  501  PLP501      0.2049
      5  O3         9.4020   12.4810   20.7600 O.3   501  PLP501     -0.2857
      6  C4         7.7930   10.7050   20.9110 C.ar  501  PLP501      0.0182
      7  C4A        6.8020   11.4900   20.0800 C.3   501  PLP501      0.0342
      8  C5         7.4600    9.4220   21.3890 C.ar  501  PLP501      0.0261
      9  C6         8.3670    8.7020   22.1640 C.ar  501  PLP501      0.0965
     10  C5A        6.1090    8.8070   21.1100 C.3   501  PLP501      0.1815
     11  O4P        6.0810    8.0760   19.9100 O.3   501  PLP501     -0.2653
     12  P          4.6380    7.6670   19.3110 P.3   501  PLP501      0.5329
     13  O1P        4.8970    6.7470   18.1420 O.2   501  PLP501     -0.2224
     14  O2P        3.8550    6.9770   20.4080 O.3   501  PLP501     -0.1145
     15  O3P        3.9320    8.9390   18.8890 O.3   501  PLP501     -0.1145
@<TRIPOS>BOND
     1    13    12    2
     2    15    12    1
     3    12    11    1
     4    12    14    1
     5    11    10    1
     6     7     6    1
     7     5     4    1
     8     6     4   ar
     9     6     8   ar
    10    10     8    1
    11     4     2   ar
    12     8     9   ar
    13     2     3    1
    14     2     1   ar
    15     9     1   ar
