@<TRIPOS>MOLECULE
2vmy_FFO_A_1.pdb
 34 36 0 0 0
SMALL
GASTEIGER

@<TRIPOS>ATOM
      1  N1        24.2010   28.8160    7.1820 N.2   505  FFO505     -0.2723
      2  C2        25.3410   28.2560    6.7340 C.1   505  FFO505      0.2603
      3  NA2       26.0510   28.8420    5.7750 N.pl3 505  FFO505     -0.0221
      4  N3        25.7840   27.0440    7.2740 N.2   505  FFO505     -0.2512
      5  C4        25.0420   26.4220    8.2810 C.1   505  FFO505      0.2256
      6  O4        25.4820   25.2390    8.8090 O.2   505  FFO505     -0.2106
      7  C4A       23.8650   27.0280    8.7200 C.3   505  FFO505      0.2939
      8  N5        23.0550   26.4910    9.7360 N.am  505  FFO505     -0.2448
      9  C6        22.3240   27.4230   10.6230 C.3   505  FFO505      0.1243
     10  C7        21.5680   28.4530    9.7660 C.3   505  FFO505      0.1586
     11  N8        22.2820   28.8460    8.6070 N.2   505  FFO505     -0.2090
     12  C8A       23.4680   28.2340    8.1520 C.1   505  FFO505      0.1088
     13  C9        23.2790   28.1520   11.5900 C.3   505  FFO505      0.1340
     14  N10       23.8020   27.2260   12.6120 N.pl3 505  FFO505     -0.2358
     15  C11       27.5110   27.7030   14.4000 C.ar  505  FFO505      0.0551
     16  C12       27.3060   28.1210   13.0840 C.ar  505  FFO505      0.0059
     17  C13       26.0610   27.9660   12.4740 C.ar  505  FFO505      0.0162
     18  C14       25.0040   27.3910   13.1800 C.ar  505  FFO505      0.0654
     19  C15       25.2100   26.9730   14.4980 C.ar  505  FFO505      0.0162
     20  C16       26.4550   27.1270   15.1080 C.ar  505  FFO505      0.0059
     21  C         28.8950   27.8920   15.0480 C.2   505  FFO505      0.2652
     22  O         29.9200   27.8800   14.3650 O.2   505  FFO505     -0.2684
     23  N         28.8790   28.0740   16.3690 N.am  505  FFO505     -0.1918
     24  CA        30.0970   28.2870   17.1790 C.3   505  FFO505      0.1986
     25  CB        30.3450   29.7890   17.4250 C.3   505  FFO505      0.0451
     26  CG        29.0380   30.5890   17.5050 C.3   505  FFO505      0.1164
     27  CD        29.1110   31.7240   18.5260 C.2   505  FFO505      0.3649
     28  OE1       29.2060   32.8870   18.0720 O.co2 505  FFO505     -0.2457
     29  OE2       29.0600   31.4050   19.7360 O.co2 505  FFO505     -0.2457
     30  CT        29.9700   27.5610   18.5240 C.2   505  FFO505      0.3842
     31  O1        31.0280   27.3980   19.1700 O.co2 505  FFO505     -0.2437
     32  O2        28.8290   27.1860   18.8760 O.co2 505  FFO505     -0.2437
     33  C5A       22.9190   25.0270    9.9290 C.2   505  FFO505      0.3045
     34  O5B       21.8680   24.5390   10.3360 O.2   505  FFO505     -0.2649
@<TRIPOS>BOND
     1     3     2    1
     2     2     1    2
     3     2     4    2
     4     1    12    2
     5     4     5    2
     6    12    11    2
     7    12     7    1
     8     5     7    1
     9     5     6    2
    10    11    10    1
    11     7     8    1
    12     8    33   am
    13     8     9    1
    14    10     9    1
    15    33    34    2
    16     9    13    1
    17    13    14    1
    18    17    16   ar
    19    17    18   ar
    20    14    18    1
    21    16    15   ar
    22    18    19   ar
    23    22    21    2
    24    15    21    1
    25    15    20   ar
    26    19    20   ar
    27    21    23   am
    28    23    24    1
    29    24    25    1
    30    24    30    1
    31    25    26    1
    32    26    27    1
    33    28    27   ar
    34    30    32   ar
    35    30    31   ar
    36    27    29   ar
