@<TRIPOS>MOLECULE
2vmy_PLP_A_1.pdb
 15 15 0 0 0
SMALL
GASTEIGER

@<TRIPOS>ATOM
      1  N1        21.6620    1.7320   24.8580 N.ar  501  PLP501     -0.2452
      2  C2        21.0850    0.5060   25.1530 C.ar  501  PLP501      0.0978
      3  C2A       21.3530   -0.1640   26.4700 C.3   501  PLP501      0.0555
      4  C3        20.2490   -0.1020   24.2210 C.ar  501  PLP501      0.2049
      5  O3        19.6760   -1.3130   24.5140 O.3   501  PLP501     -0.2857
      6  C4        19.9980    0.5230   22.9910 C.ar  501  PLP501      0.0182
      7  C4A       19.1000   -0.1590   21.9940 C.3   501  PLP501      0.0342
      8  C5        20.5880    1.7670   22.7030 C.ar  501  PLP501      0.0261
      9  C6        21.4250    2.3600   23.6480 C.ar  501  PLP501      0.0965
     10  C5A       20.3670    2.4820   21.3800 C.3   501  PLP501      0.1815
     11  O4P       19.0950    3.0910   21.2800 O.3   501  PLP501     -0.2653
     12  P         18.4880    3.5180   19.8490 P.3   501  PLP501      0.5329
     13  O1P       19.6110    3.9770   18.9520 O.2   501  PLP501     -0.2224
     14  O2P       17.8190    2.3150   19.2350 O.3   501  PLP501     -0.1145
     15  O3P       17.4900    4.6370   20.0380 O.3   501  PLP501     -0.1145
@<TRIPOS>BOND
     1    13    12    2
     2    14    12    1
     3    12    15    1
     4    12    11    1
     5    11    10    1
     6    10     8    1
     7     7     6    1
     8     8     6   ar
     9     8     9   ar
    10     6     4   ar
    11     9     1   ar
    12     4     5    1
    13     4     2   ar
    14     1     2   ar
    15     2     3    1
