@<TRIPOS>MOLECULE
2vmz_PLP_A_1.pdb
 15 15 0 0 0
SMALL
GASTEIGER

@<TRIPOS>ATOM
      1  N1         9.5030    9.4290   22.8630 N.2   501  PLP501     -0.2458
      2  C2        10.0750   10.5080   22.2230 C.2   501  PLP501      0.0942
      3  C2A       11.3730   11.0790   22.7290 C.3   501  PLP501      0.0552
      4  C3         9.4460   11.0720   21.1140 C.2   501  PLP501      0.1899
      5  O3         9.9610   12.0320   20.5490 O.2   501  PLP501     -0.2898
      6  C4         8.2430   10.5620   20.6200 C.3   501  PLP501      0.0852
      7  C4A        7.6720   11.2520   19.3870 C.3   501  PLP501      0.0127
      8  C5         7.6790    9.4540   21.2930 C.2   501  PLP501      0.0118
      9  C6         8.3110    8.9080   22.4080 C.2   501  PLP501      0.0929
     10  C5A        6.3680    8.8150   20.9400 C.3   501  PLP501      0.1779
     11  O4P        6.1500    7.9150   19.8560 O.3   501  PLP501     -0.2656
     12  P          4.6350    7.6330   19.3780 P.3   501  PLP501      0.5329
     13  O1P        3.9610    6.9200   20.4980 O.3   501  PLP501     -0.1145
     14  O2P        4.0660    8.9830   19.1290 O.3   501  PLP501     -0.1145
     15  O3P        4.9160    6.8320   18.1690 O.2   501  PLP501     -0.2224
@<TRIPOS>BOND
     1    15    12    2
     2    14    12    1
     3    12    11    1
     4    12    13    1
     5     7     6    1
     6    11    10    1
     7     5     4    2
     8     6     4    1
     9     6     8    1
    10    10     8    1
    11     4     2    1
    12     8     9    2
    13     2     3    1
    14     2     1    2
    15     9     1    1
