@<TRIPOS>MOLECULE
2vn0_TDZ_A_1.pdb
 31 34 0 0 0
SMALL
GASTEIGER

@<TRIPOS>ATOM
      1  CAM       46.8570   13.3560  -24.1740 C.3   501  TDZ501      0.0486
      2  CAL       46.2940   14.1380  -25.3610 C.3   501  TDZ501      0.0329
      3  CBB       46.3110   13.2750  -26.6240 C.ar  501  TDZ501      0.0107
      4  CAZ       46.1370   13.8540  -27.8790 C.ar  501  TDZ501      0.0157
      5  CAC       46.0240   15.3760  -27.9910 C.3   501  TDZ501      0.0341
      6  CBA       46.0760   13.0830  -29.0340 C.ar  501  TDZ501      0.1873
      7  OAG       45.9280   13.6760  -30.2500 O.3   501  TDZ501     -0.2873
      8  CAX       46.1890   11.7000  -28.9460 C.ar  501  TDZ501      0.0157
      9  CAA       46.1260   10.8430  -30.2130 C.3   501  TDZ501      0.0341
     10  CAY       46.3680   11.1090  -27.7030 C.ar  501  TDZ501      0.0109
     11  CAB       46.4890    9.5880  -27.5870 C.3   501  TDZ501      0.0340
     12  CBC       46.4360   11.8910  -26.5520 C.ar  501  TDZ501      0.1299
     13  OAR       46.7460   11.2630  -25.3840 O.3   501  TDZ501     -0.4796
     14  CBE       46.3060   11.9290  -24.1960 C.3   501  TDZ501      0.1734
     15  CAD       44.7760   11.9480  -24.1790 C.3   501  TDZ501      0.0475
     16  CAN       46.7820   11.1650  -22.9670 C.3   501  TDZ501      0.2448
     17  OAQ       48.1730   11.2880  -22.6200 O.3   501  TDZ501     -0.4717
     18  CAW       49.0240   10.8360  -23.5820 C.ar  501  TDZ501      0.1387
     19  CAK       49.3340    9.4880  -23.6910 C.ar  501  TDZ501      0.0366
     20  CAI       50.1770    9.0370  -24.7010 C.ar  501  TDZ501     -0.0011
     21  CAJ       49.5690   11.7430  -24.4880 C.ar  501  TDZ501      0.0366
     22  CAH       50.4120   11.2930  -25.4970 C.ar  501  TDZ501     -0.0011
     23  CAV       50.7140    9.9450  -25.6130 C.ar  501  TDZ501     -0.0199
     24  CAO       51.5910    9.4880  -26.7810 C.3   501  TDZ501      0.0562
     25  CBD       51.2990    8.0590  -27.2460 C.3   501  TDZ501      0.1865
     26  SAS       49.5640    7.7650  -27.7310 S.3   501  TDZ501      0.0093
     27  CAT       49.9820    7.2060  -29.3310 C.1   501  TDZ501      0.2450
     28  OAE       49.1700    6.7470  -30.1350 O.2   501  TDZ501     -0.2017
     29  NAP       51.2900    7.3080  -29.5660 N.2   501  TDZ501     -0.2557
     30  CAU       52.0310    7.7890  -28.5640 C.1   501  TDZ501      0.2022
     31  OAF       53.2480    7.9410  -28.6750 O.2   501  TDZ501     -0.2125
@<TRIPOS>BOND
     1     7     6    1
     2     9     8    1
     3    28    27    2
     4    29    27    2
     5    29    30    2
     6    27    26    1
     7     6     8   ar
     8     6     4   ar
     9     8    10   ar
    10    31    30    2
    11    30    25    1
    12     5     4    1
    13     4     3   ar
    14    26    25    1
    15    10    11    1
    16    10    12   ar
    17    25    24    1
    18    24    23    1
    19     3    12   ar
    20     3     2    1
    21    12    13    1
    22    23    22   ar
    23    23    20   ar
    24    22    21   ar
    25    13    14    1
    26     2     1    1
    27    20    19   ar
    28    21    18   ar
    29    14    15    1
    30    14     1    1
    31    14    16    1
    32    19    18   ar
    33    18    17    1
    34    16    17    1
