@<TRIPOS>MOLECULE
2vn0_HEM_A_1.pdb
 43 50 0 0 0
SMALL
GASTEIGER

@<TRIPOS>ATOM
      1 FE         50.7320   21.4950  -28.5860 Fe    500  HEM500      0.0000
      2  CHA       52.7430   20.7390  -25.9760 C.2   500  HEM500      0.0000
      3  CHB       48.7250   23.1640  -26.5560 C.2   500  HEM500      0.0000
      4  CHC       48.7090   22.0490  -31.1160 C.2   500  HEM500      0.0000
      5  CHD       53.0560   20.2530  -30.6350 C.2   500  HEM500      0.0000
      6  NA        50.6660   21.8530  -26.5700 N.2   500  HEM500      0.0000
      7  C1A       51.5490   21.3870  -25.6410 C.2   500  HEM500      0.0000
      8  C2A       51.1090   21.7270  -24.3520 C.2   500  HEM500      0.0000
      9  C3A       49.9200   22.4150  -24.5290 C.2   500  HEM500      0.0000
     10  C4A       49.7050   22.4590  -25.9120 C.2   500  HEM500      0.0000
     11  CMA       48.9820   23.0350  -23.4300 C.3   500  HEM500      0.0000
     12  CAA       51.8420   21.3830  -23.0530 C.3   500  HEM500      0.0000
     13  CBA       52.8240   22.4130  -22.5950 C.3   500  HEM500      0.0000
     14  CGA       53.5150   22.0480  -21.3150 C.2   500  HEM500      0.0000
     15  O1A       54.3950   21.2170  -21.3050 O.co2 500  HEM500      0.0000
     16  O2A       53.1840   22.5930  -20.2700 O.co2 500  HEM500      0.0000
     17  NB        48.8560   22.3220  -28.7610 N.ar  500  HEM500      0.0000
     18  C1B       48.1860   22.9700  -27.8190 C.ar  500  HEM500      0.0000
     19  C2B       46.9590   23.4660  -28.3000 C.ar  500  HEM500      0.0000
     20  C3B       46.9210   23.0600  -29.6570 C.ar  500  HEM500      0.0000
     21  C4B       48.1460   22.3490  -29.8650 C.ar  500  HEM500      0.0000
     22  CMB       45.9620   24.2530  -27.4660 C.3   500  HEM500      0.0000
     23  CAB       45.9210   23.2740  -30.6450 C.3   500  HEM500      0.0000
     24  CBB       45.0010   24.4190  -30.8520 C.3   500  HEM500      0.0000
     25  NC        50.9010   21.2920  -30.6040 N.2   500  HEM500      0.0000
     26  C1C       50.0050   21.7020  -31.4880 C.2   500  HEM500      0.0000
     27  C2C       50.4080   21.4020  -32.7850 C.2   500  HEM500      0.0000
     28  C3C       51.6560   20.7550  -32.6780 C.2   500  HEM500      0.0000
     29  C4C       51.9160   20.7150  -31.2820 C.2   500  HEM500      0.0000
     30  CMC       49.6270   21.7170  -34.0970 C.3   500  HEM500      0.0000
     31  CAC       52.5120   20.2350  -33.6300 C.3   500  HEM500      0.0000
     32  CBC       53.7390   20.7350  -34.1550 C.3   500  HEM500      0.0000
     33  C1D       53.3410   20.1520  -29.3200 C.ar  500  HEM500      0.0000
     34  C2D       54.4600   19.4860  -28.7900 C.ar  500  HEM500      0.0000
     35  C3D       54.3940   19.6070  -27.4380 C.ar  500  HEM500      0.0000
     36  C4D       53.2170   20.3530  -27.2140 C.ar  500  HEM500      0.0000
     37  CMD       55.5650   18.7510  -29.5690 C.3   500  HEM500      0.0000
     38  CAD       55.3790   19.0530  -26.3570 C.3   500  HEM500      0.0000
     39  CBD       56.5210   20.0570  -25.9980 C.3   500  HEM500      0.0000
     40  CGD       57.5390   19.6280  -24.9150 C.2   500  HEM500      0.0000
     41  O1D       57.2890   18.6980  -24.1740 O.co2 500  HEM500      0.0000
     42  O2D       58.6070   20.2550  -24.7890 O.co2 500  HEM500      0.0000
     43  ND        52.6240   20.6530  -28.3670 N.ar  500  HEM500      0.0000
@<TRIPOS>BOND
     1    32    31    1
     2    30    27    1
     3    31    28    1
     4    27    28    2
     5    27    26    1
     6    28    29    1
     7    26     4    2
     8    26    25    1
     9    29     5    1
    10    29    25    2
    11     4    21    1
    12    24    23    1
    13    23    20    1
    14     5    33    2
    15    25     1    1
    16    21    20   ar
    17    21    17   ar
    18    20    19   ar
    19    37    34    1
    20    33    34   ar
    21    33    43   ar
    22    34    35   ar
    23    17     1    1
    24    17    18   ar
    25     1    43    1
    26     1     6    1
    27    43    36   ar
    28    19    18   ar
    29    19    22    1
    30    18     3    1
    31    35    36   ar
    32    35    38    1
    33    36     2    2
    34     6    10    1
    35     6     7    2
    36     3    10    2
    37    38    39    1
    38    39    40    1
    39     2     7    1
    40    10     9    1
    41     7     8    1
    42    40    42   ar
    43    40    41   ar
    44     9     8    2
    45     9    11    1
    46     8    12    1
    47    12    13    1
    48    13    14    1
    49    14    15   ar
    50    14    16   ar
