@<TRIPOS>MOLECULE
2vn4_MAN_A_1.pdb
 11 11 0 0 0
SMALL
GASTEIGER

@<TRIPOS>ATOM
      1  C1       -28.5660   -4.4430  -42.7400 C.3   602  MAN602      0.1777
      2  C2       -28.5260   -5.9560  -42.4800 C.3   602  MAN602      0.2141
      3  C3       -27.8960   -6.6990  -43.6700 C.3   602  MAN602      0.2173
      4  C4       -28.4650   -6.2390  -45.0170 C.3   602  MAN602      0.2142
      5  C5       -28.5720   -4.7090  -45.0720 C.3   602  MAN602      0.1810
      6  C6       -29.2400   -4.1870  -46.3400 C.3   602  MAN602      0.2141
      7  O2       -29.8310   -6.4430  -42.2220 O.3   602  MAN602     -0.2176
      8  O3       -28.0520   -8.0960  -43.5250 O.3   602  MAN602     -0.2175
      9  O4       -27.6180   -6.7040  -46.0440 O.3   602  MAN602     -0.2176
     10  O5       -29.2780   -4.2220  -43.9410 O.3   602  MAN602     -0.3481
     11  O6       -28.5090   -3.0590  -46.7770 O.3   602  MAN602     -0.2176
@<TRIPOS>BOND
     1    11     6    1
     2     6     5    1
     3     9     4    1
     4     5     4    1
     5     5    10    1
     6     4     3    1
     7    10     1    1
     8     3     8    1
     9     3     2    1
    10     1     2    1
    11     2     7    1
