@<TRIPOS>MOLECULE
2vn7_MAN_A_1.pdb
 11 11 0 0 0
SMALL
GASTEIGER

@<TRIPOS>ATOM
      1  C1       111.0950   30.9400   -3.8390 C.3   605  MAN605      0.1777
      2  C2       111.7160   32.3290   -3.6520 C.3   605  MAN605      0.2141
      3  C3       113.1230   32.4410   -4.2590 C.3   605  MAN605      0.2173
      4  C4       113.9960   31.2120   -3.9990 C.3   605  MAN605      0.2142
      5  C5       113.2240   29.9000   -4.1560 C.3   605  MAN605      0.1810
      6  C6       114.0930   28.7250   -3.7220 C.3   605  MAN605      0.2141
      7  O2       111.7560   32.6500   -2.2760 O.3   605  MAN605     -0.2176
      8  O3       113.7740   33.5850   -3.7400 O.3   605  MAN605     -0.2175
      9  O4       115.0770   31.2150   -4.9050 O.3   605  MAN605     -0.2176
     10  O5       112.0020   29.9300   -3.4200 O.3   605  MAN605     -0.3481
     11  O6       113.3730   27.9090   -2.8290 O.3   605  MAN605     -0.2176
@<TRIPOS>BOND
     1     9     4    1
     2     3     4    1
     3     3     8    1
     4     3     2    1
     5     5     4    1
     6     5     6    1
     7     5    10    1
     8     1     2    1
     9     1    10    1
    10     6    11    1
    11     2     7    1
