@<TRIPOS>MOLECULE
2vn8_NDP_A_1.pdb
 48 52 0 0 0
SMALL
GASTEIGER

@<TRIPOS>ATOM
      1  PA        48.5010  -10.2230  137.1650 P.3   600  NDP600      0.2189
      2  O1A       47.8680   -9.4410  135.9010 O.2   600  NDP600     -0.5170
      3  O2A       47.4160  -10.8600  137.9070 O.3   600  NDP600     -0.4371
      4  O5B       49.6680  -11.0960  136.5580 O.3   600  NDP600     -0.3112
      5  C5B       50.3700  -12.1070  137.2810 C.3   600  NDP600      0.1813
      6  C4B       50.8410  -13.1550  136.2550 C.3   600  NDP600      0.1820
      7  O4B       51.7180  -14.0490  136.9380 O.3   600  NDP600     -0.3136
      8  C3B       49.7310  -13.9820  135.5910 C.3   600  NDP600      0.2157
      9  O3B       49.8820  -13.7750  134.1340 O.3   600  NDP600     -0.2175
     10  C2B       50.0410  -15.4290  136.0760 C.3   600  NDP600      0.2314
     11  O2B       49.8390  -16.3650  135.0290 O.3   600  NDP600     -0.2630
     12  C1B       51.5460  -15.3580  136.2960 C.3   600  NDP600      0.3158
     13  N9A       52.2120  -16.3040  137.2470 N.pl3 600  NDP600     -0.1439
     14  C8A       51.7080  -16.8450  138.3950 C.3   600  NDP600      0.3377
     15  N7A       52.6420  -17.6040  138.9580 N.2   600  NDP600     -0.2095
     16  C5A       53.7360  -17.5200  138.1850 C.2   600  NDP600      0.2526
     17  C6A       54.9960  -18.0590  138.2800 C.2   600  NDP600      0.4393
     18  N6A       55.2500  -18.8460  139.3250 N.pl3 600  NDP600      0.2180
     19  N1A       55.9290  -17.7700  137.3390 N.2   600  NDP600      0.0021
     20  C2A       55.6350  -16.9760  136.3170 C.3   600  NDP600      0.5254
     21  N3A       54.4160  -16.4450  136.1880 N.2   600  NDP600     -0.0055
     22  C4A       53.4750  -16.6760  137.1180 C.2   600  NDP600      0.3518
     23  O3        49.2800   -9.2470  138.1510 O.3   600  NDP600     -0.2703
     24  PN        50.0890   -7.8910  137.9380 P.3   600  NDP600      0.2189
     25  O1N       49.0070   -6.7450  137.9120 O.3   600  NDP600     -0.4371
     26  O2N       51.1890   -7.8330  136.9290 O.2   600  NDP600     -0.5170
     27  O5D       50.7640   -7.6480  139.3100 O.3   600  NDP600     -0.3112
     28  C5D       50.1750   -8.0580  140.4890 C.3   600  NDP600      0.1813
     29  C4D       51.2200   -8.9830  141.0720 C.3   600  NDP600      0.1799
     30  O4D       52.4760   -8.2050  141.1390 O.3   600  NDP600     -0.3327
     31  C3D       50.8220   -9.3400  142.4880 C.3   600  NDP600      0.2158
     32  O3D       51.5830  -10.5080  142.8700 O.3   600  NDP600     -0.2175
     33  C2D       51.2120   -8.0290  143.1960 C.3   600  NDP600      0.2309
     34  O2D       51.5740   -8.2130  144.5760 O.3   600  NDP600     -0.2158
     35  C1D       52.4660   -7.5440  142.4290 C.3   600  NDP600      0.2263
     36  N1N       52.2570   -6.1030  142.5330 N.pl3 600  NDP600     -0.2787
     37  C2N       52.9520   -5.4230  143.5500 C.3   600  NDP600      0.1244
     38  C3N       52.8050   -4.0480  143.7310 C.2   600  NDP600      0.0544
     39  C7N       53.6120   -3.2450  144.8100 C.2   600  NDP600      0.2818
     40  O7N       53.2950   -2.0560  144.8640 O.2   600  NDP600     -0.2670
     41  N7N       54.5720   -3.8670  145.6380 N.am  600  NDP600     -0.0839
     42  C4N       51.7950   -3.2750  142.8460 C.2   600  NDP600      0.0033
     43  C5N       51.1330   -4.0390  141.8740 C.2   600  NDP600      0.0157
     44  C6N       51.3110   -5.4180  141.7380 C.2   600  NDP600      0.0633
     45  P2B       49.7590  -17.9850  135.2360 P.3   600  NDP600      0.5328
     46  O1X       51.3660  -18.3300  135.0630 O.3   600  NDP600     -0.1145
     47  O2X       49.2480  -18.1400  136.7070 O.3   600  NDP600     -0.1145
     48  O3X       48.7630  -18.4400  134.2830 O.2   600  NDP600     -0.2224
@<TRIPOS>BOND
     1     9     8    1
     2    48    45    2
     3    11    45    1
     4    11    10    1
     5    46    45    1
     6    45    47    1
     7     8    10    1
     8     8     6    1
     9     2     1    2
    10    10    12    1
    11    21    20    1
    12    21    22    2
    13     6     7    1
    14     6     5    1
    15    12     7    1
    16    12    13    1
    17    20    19    1
    18     4     1    1
    19     4     5    1
    20    26    24    2
    21    22    13    1
    22    22    16    1
    23     1     3    1
    24     1    23    1
    25    13    14    1
    26    19    17    2
    27    25    24    1
    28    24    23    1
    29    24    27    1
    30    16    17    1
    31    16    15    2
    32    17    18    1
    33    14    15    1
    34    27    28    1
    35    28    29    1
    36    29    30    1
    37    29    31    1
    38    30    35    1
    39    44    43    2
    40    44    36    1
    41    43    42    1
    42    35    36    1
    43    35    33    1
    44    31    32    1
    45    31    33    1
    46    36    37    1
    47    42    38    2
    48    33    34    1
    49    37    38    1
    50    38    39    1
    51    39    40    2
    52    39    41   am
