@<TRIPOS>MOLECULE
2vn9_GVD_A_1.pdb
 29 33 0 0 0
SMALL
GASTEIGER

@<TRIPOS>ATOM
      1  CAL        9.3650   28.1800   48.5060 C.3   1314  GVD1314     0.0061
      2  CAM        8.9270   29.6420   48.6050 C.3   1314  GVD1314     0.0061
      3  CBB        9.9560   29.0780   49.5860 C.3   1314  GVD1314     0.0406
      4  CAX       11.4500   29.4220   49.3120 C.2   1314  GVD1314     0.0951
      5  CAK       11.9690   30.0550   48.2450 C.3   1314  GVD1314     0.1690
      6  NAS       12.4340   29.0800   50.1480 N.2   1314  GVD1314    -0.0426
      7  NAN       13.4780   29.4790   49.6500 N.2   1314  GVD1314     0.0793
      8  CAV       13.2900   30.0620   48.4980 C.2   1314  GVD1314     0.3768
      9  NAR       14.3640   30.5630   47.8740 N.pl3 1314  GVD1314     0.0227
     10  C6        14.4550   31.2260   46.7120 C.2   1314  GVD1314     0.3131
     11  N1        13.3860   31.3570   45.9300 N.2   1314  GVD1314    -0.2868
     12  C5        15.7040   31.7750   46.2770 C.3   1314  GVD1314     0.1716
     13  CAJ       16.8910   31.6950   47.0370 C.2   1314  GVD1314    -0.0084
     14  CAD       18.0850   32.2510   46.5690 C.2   1314  GVD1314    -0.0036
     15  CAC       18.1120   32.9140   45.3330 C.2   1314  GVD1314     0.0020
     16  CAI       16.9420   32.9990   44.5710 C.2   1314  GVD1314     0.0294
     17  C4        15.7480   32.4270   45.0410 C.2   1314  GVD1314     0.1369
     18  N3        14.6060   32.5120   44.3140 N.2   1314  GVD1314    -0.3303
     19  C2        13.4460   31.9860   44.7430 C.1   1314  GVD1314     0.2272
     20  NAQ       12.3730   32.1330   43.9680 N.pl3 1314  GVD1314    -0.1254
     21  CAU       11.1370   31.6490   44.1840 C.ar  1314  GVD1314     0.0835
     22  CAG       10.8750   30.2980   44.4500 C.ar  1314  GVD1314     0.0171
     23  CAE        9.5600   29.8560   44.6370 C.ar  1314  GVD1314    -0.0019
     24  CAB        6.5580   29.8330   46.0280 C.1   1314  GVD1314     0.0780
     25  NAA        6.1250   29.4070   47.0060 N.1   1314  GVD1314    -0.1955
     26  CAF        8.7540   32.0750   44.2320 C.ar  1314  GVD1314    -0.0019
     27  CAH       10.0610   32.5340   44.0580 C.ar  1314  GVD1314     0.0171
     28  CA0        7.0010   30.2740   44.6930 C.3   1314  GVD1314     0.1316
     29  CAT        8.4850   30.7400   44.5380 C.ar  1314  GVD1314    -0.0070
@<TRIPOS>BOND
     1    20    21    1
     2    20    19    1
     3    27    21   ar
     4    27    26   ar
     5    21    22   ar
     6    26    29   ar
     7    18    19    2
     8    18    17    2
     9    22    23   ar
    10    29    23   ar
    11    29    28    1
    12    16    17    1
    13    16    15    2
    14    28    24    1
    15    19    11    2
    16    17    12    1
    17    15    14    1
    18    11    10    2
    19    24    25    3
    20    12    10    1
    21    12    13    1
    22    14    13    2
    23    10     9    1
    24     9     8    1
    25     5     8    1
    26     5     4    1
    27     8     7    2
    28     1     2    1
    29     1     3    1
    30     2     3    1
    31     4     3    1
    32     4     6    2
    33     7     6    1
