@<TRIPOS>MOLECULE
2vna_NAP_A_1.pdb
 48 52 0 0 0
SMALL
GASTEIGER

@<TRIPOS>ATOM
      1  PA        20.8800  -10.8360  -18.9060 P.3   801  NAP801      0.2189
      2  O1A       19.5090  -10.1610  -18.3110 O.3   801  NAP801     -0.4371
      3  O2A       21.5830   -9.9050  -19.7890 O.2   801  NAP801     -0.5170
      4  O5B       20.6080  -12.2620  -19.6590 O.3   801  NAP801     -0.3112
      5  C5B       21.7430  -12.9040  -20.1940 C.3   801  NAP801      0.1813
      6  C4B       21.7130  -12.7300  -21.6980 C.3   801  NAP801      0.1820
      7  O4B       22.9420  -12.8870  -22.3800 O.3   801  NAP801     -0.3136
      8  C3B       20.6460  -13.5540  -22.4360 C.3   801  NAP801      0.2157
      9  O3B       19.3680  -13.0180  -22.1940 O.3   801  NAP801     -0.2175
     10  C2B       21.1120  -13.5320  -23.9150 C.3   801  NAP801      0.2314
     11  O2B       20.3180  -12.6610  -24.7110 O.3   801  NAP801     -0.2630
     12  C1B       22.5880  -13.0720  -23.7740 C.3   801  NAP801      0.3158
     13  N9A       23.4430  -14.1620  -24.2310 N.pl3 801  NAP801     -0.1439
     14  C8A       23.5320  -15.4180  -23.6810 C.3   801  NAP801      0.3377
     15  N7A       24.5280  -16.1220  -24.4370 N.2   801  NAP801     -0.2095
     16  C5A       25.0240  -15.2360  -25.4310 C.2   801  NAP801      0.2526
     17  C6A       26.0390  -15.3910  -26.4830 C.2   801  NAP801      0.4393
     18  N6A       26.7400  -16.6440  -26.5920 N.pl3 801  NAP801      0.2180
     19  N1A       26.3210  -14.3960  -27.2920 N.2   801  NAP801      0.0021
     20  C2A       25.6680  -13.1530  -27.1750 C.3   801  NAP801      0.5254
     21  N3A       24.6650  -12.9980  -26.1340 N.2   801  NAP801     -0.0055
     22  C4A       24.3860  -14.0270  -25.3230 C.2   801  NAP801      0.3518
     23  O3        21.8240  -11.2280  -17.6220 O.3   801  NAP801     -0.2703
     24  PN        22.5470   -9.9900  -16.7760 P.3   801  NAP801      0.2189
     25  O1N       22.1290   -8.4960  -17.2600 O.2   801  NAP801     -0.5170
     26  O2N       22.2300  -10.2140  -15.3600 O.3   801  NAP801     -0.4371
     27  O5D       24.1780  -10.0810  -17.0290 O.3   801  NAP801     -0.3112
     28  C5D       24.6310   -9.7670  -18.3220 C.3   801  NAP801      0.1813
     29  C4D       26.1530   -9.6270  -18.2610 C.3   801  NAP801      0.1799
     30  O4D       26.5840   -8.6850  -17.1590 O.3   801  NAP801     -0.3327
     31  C3D       26.9070  -10.9640  -17.9180 C.3   801  NAP801      0.2158
     32  O3D       28.0810  -11.1300  -18.6510 O.3   801  NAP801     -0.2175
     33  C2D       27.1520  -10.8490  -16.4430 C.3   801  NAP801      0.2309
     34  O2D       28.0560  -11.7790  -15.9430 O.3   801  NAP801     -0.2158
     35  C1D       27.5450   -9.4040  -16.3650 C.3   801  NAP801      0.2263
     36  N1N       27.4660   -8.8850  -14.9810 N.pl3 801  NAP801     -0.2787
     37  C2N       28.6420   -8.2220  -14.4160 C.3   801  NAP801      0.1244
     38  C3N       28.6050   -7.6500  -12.9950 C.2   801  NAP801      0.0544
     39  C7N       29.9290   -7.1040  -12.4250 C.2   801  NAP801      0.2818
     40  O7N       30.0710   -6.7890  -11.2710 O.2   801  NAP801     -0.2670
     41  N7N       30.9530   -6.8200  -13.4130 N.am  801  NAP801     -0.0839
     42  C4N       27.3150   -7.6460  -12.1550 C.2   801  NAP801      0.0033
     43  C5N       26.0790   -8.2140  -12.9040 C.2   801  NAP801      0.0157
     44  C6N       26.1880   -8.8200  -14.2960 C.2   801  NAP801      0.0633
     45  P2B       20.4110  -12.4690  -26.3710 P.3   801  NAP801      0.5328
     46  O1X       21.6600  -13.3270  -26.9770 O.3   801  NAP801     -0.1145
     47  O2X       19.0420  -13.0800  -27.0720 O.2   801  NAP801     -0.2224
     48  O3X       20.4990  -11.0320  -26.6220 O.3   801  NAP801     -0.1145
@<TRIPOS>BOND
     1    19    20    1
     2    19    17    2
     3    20    21    1
     4    47    45    2
     5    46    45    1
     6    48    45    1
     7    18    17    1
     8    17    16    1
     9    45    11    1
    10    21    22    2
    11    16    22    1
    12    16    15    2
    13    22    13    1
    14    11    10    1
    15    15    14    1
    16    13    12    1
    17    13    14    1
    18    10    12    1
    19    10     8    1
    20    12     7    1
    21     8     9    1
    22     8     6    1
    23     7     6    1
    24     6     5    1
    25     5     4    1
    26     3     1    2
    27     4     1    1
    28     1     2    1
    29     1    23    1
    30    32    31    1
    31    28    29    1
    32    28    27    1
    33    29    31    1
    34    29    30    1
    35    31    33    1
    36    23    24    1
    37    25    24    2
    38    30    35    1
    39    27    24    1
    40    24    26    1
    41    33    35    1
    42    33    34    1
    43    35    36    1
    44    36    37    1
    45    36    44    1
    46    37    38    1
    47    44    43    2
    48    41    39   am
    49    38    39    1
    50    38    42    2
    51    43    42    1
    52    39    40    2
