@<TRIPOS>MOLECULE
2vng_FUC_A_1.pdb
 10 10 0 0 0
SMALL
GASTEIGER

@<TRIPOS>ATOM
      1  C1        14.4630    8.4750   -6.7870 C.3   1212  FUC1212     0.1776
      2  C2        15.2140    7.9020   -5.5840 C.3   1212  FUC1212     0.2141
      3  C3        15.7940    6.5310   -5.9110 C.3   1212  FUC1212     0.2172
      4  C4        16.6900    6.6780   -7.1500 C.3   1212  FUC1212     0.2116
      5  C5        15.8700    7.2450   -8.3140 C.3   1212  FUC1212     0.1483
      6  C6        16.6860    7.4310   -9.6020 C.3   1212  FUC1212     0.0349
      7  O2        14.4080    7.7940   -4.4300 O.3   1212  FUC1212    -0.2176
      8  O3        16.5290    6.0510   -4.7940 O.3   1212  FUC1212    -0.2175
      9  O4        17.8450    7.4700   -6.8550 O.3   1212  FUC1212    -0.2177
     10  O5        15.3130    8.5230   -7.9380 O.3   1212  FUC1212    -0.3508
@<TRIPOS>BOND
     1     6     5    1
     2     5    10    1
     3     5     4    1
     4    10     1    1
     5     4     9    1
     6     4     3    1
     7     1     2    1
     8     3     2    1
     9     3     8    1
    10     2     7    1
