@<TRIPOS>MOLECULE
2vng_A2G_A_1.pdb
 14 14 0 0 0
SMALL
GASTEIGER

@<TRIPOS>ATOM
      1  C1        11.1420   10.7600   -5.3690 C.3   1210  A2G1210     0.1665
      2  C2        12.1020   11.9280   -5.0300 C.3   1210  A2G1210     0.1576
      3  C3        13.2240   11.4780   -4.0680 C.3   1210  A2G1210     0.2069
      4  C4        12.6380   10.6960   -2.8950 C.3   1210  A2G1210     0.2134
      5  C5        11.7490    9.5390   -3.3700 C.3   1210  A2G1210     0.1809
      6  C6        11.1160    8.7370   -2.2400 C.3   1210  A2G1210     0.2141
      7  C7        12.3620   13.8850   -6.6100 C.2   1210  A2G1210     0.2420
      8  C8        12.8930   14.3900   -7.9400 C.3   1210  A2G1210     0.0964
      9  O         10.6660   10.1240   -4.1570 O.3   1210  A2G1210    -0.3489
     10  O3        14.0380   12.5890   -3.5910 O.3   1210  A2G1210    -0.2184
     11  O4        11.8820   11.5660   -2.0290 O.3   1210  A2G1210    -0.2176
     12  O6        10.5110    7.5780   -2.8210 O.3   1210  A2G1210    -0.2176
     13  O7        11.7610   14.6370   -5.8600 O.2   1210  A2G1210    -0.2733
     14  N2        12.5810   12.5870   -6.2800 N.am  1210  A2G1210    -0.2019
@<TRIPOS>BOND
     1     8     7    1
     2     7    14   am
     3     7    13    2
     4    14     2    1
     5     1     2    1
     6     1     9    1
     7     2     3    1
     8     9     5    1
     9     3    10    1
    10     3     4    1
    11     5     4    1
    12     5     6    1
    13     4    11    1
    14    12     6    1
