@<TRIPOS>MOLECULE
2vng_GAL_A_1.pdb
 12 12 0 0 0
SMALL
GASTEIGER

@<TRIPOS>ATOM
      1  C1        11.7720    7.2860   -8.8480 C.3   1211  GAL1211     0.3024
      2  C2        12.3310    8.2920   -7.8360 C.3   1211  GAL1211     0.2434
      3  C3        11.1970    8.9040   -7.0190 C.3   1211  GAL1211     0.2199
      4  C4        10.0810    9.4910   -7.8860 C.3   1211  GAL1211     0.2144
      5  C5         9.6430    8.3790   -8.8570 C.3   1211  GAL1211     0.1836
      6  C6         8.6430    8.8200   -9.8810 C.3   1211  GAL1211     0.2142
      7  O1        12.8260    6.9030   -9.7060 O.3   1211  GAL1211    -0.1869
      8  O2        13.2470    7.6950   -6.9180 O.3   1211  GAL1211    -0.2148
      9  O3        11.7710    9.9140   -6.2150 O.3   1211  GAL1211    -0.2174
     10  O4        10.5140   10.7030   -8.5470 O.3   1211  GAL1211    -0.2176
     11  O5        10.7520    7.9280   -9.6140 O.3   1211  GAL1211    -0.3236
     12  O6         8.2210    7.6580  -10.5940 O.3   1211  GAL1211    -0.2176
@<TRIPOS>BOND
     1    12     6    1
     2     6     5    1
     3     7     1    1
     4    11     5    1
     5    11     1    1
     6     5     4    1
     7     1     2    1
     8    10     4    1
     9     4     3    1
    10     2     3    1
    11     2     8    1
    12     3     9    1
