@<TRIPOS>MOLECULE
2vnh_NAP_A_1.pdb
 48 52 0 0 0
SMALL
GASTEIGER

@<TRIPOS>ATOM
      1  PA       -10.4540   55.0220   16.0970 P.3   274  NAP274      0.2189
      2  O1A      -10.3140   55.2220   14.6250 O.2   274  NAP274     -0.5170
      3  O2A       -9.1340   55.3440   16.8320 O.3   274  NAP274     -0.4371
      4  O5B      -10.9160   53.4990   16.4140 O.3   274  NAP274     -0.3112
      5  C5B      -10.7550   52.3960   15.5070 C.3   274  NAP274      0.1813
      6  C4B      -10.1520   51.1960   16.2620 C.3   274  NAP274      0.1820
      7  O4B       -8.7580   51.1120   15.9970 O.3   274  NAP274     -0.3136
      8  C3B      -10.2920   51.2810   17.7820 C.3   274  NAP274      0.2157
      9  O3B      -10.5150   49.9870   18.3020 O.3   274  NAP274     -0.2175
     10  C2B       -8.9490   51.8370   18.2220 C.3   274  NAP274      0.2314
     11  O2B       -8.5940   51.5550   19.5650 O.3   274  NAP274     -0.2630
     12  C1B       -8.0400   51.1640   17.2150 C.3   274  NAP274      0.3158
     13  N9A       -6.7800   51.8820   17.0300 N.pl3 274  NAP274     -0.1439
     14  C8A       -6.5950   53.1900   16.6600 C.3   274  NAP274      0.3377
     15  N7A       -5.2630   53.4200   16.6170 N.2   274  NAP274     -0.2095
     16  C5A       -4.6220   52.2760   16.9450 C.2   274  NAP274      0.2526
     17  C6A       -3.2810   51.9570   17.0470 C.2   274  NAP274      0.4393
     18  N6A       -2.3950   52.8650   16.6160 N.pl3 274  NAP274      0.2180
     19  N1A       -2.9010   50.6710   17.4160 N.2   274  NAP274      0.0021
     20  C2A       -3.8620   49.7130   17.6800 C.3   274  NAP274      0.5254
     21  N3A       -5.1970   50.0420   17.5670 N.2   274  NAP274     -0.0055
     22  C4A       -5.5610   51.2980   17.2090 C.2   274  NAP274      0.3518
     23  O3       -11.6700   55.9470   16.6490 O.3   274  NAP274     -0.2703
     24  PN       -12.8810   56.4900   15.7080 P.3   274  NAP274      0.2189
     25  O1N      -14.1560   56.3960   16.4840 O.3   274  NAP274     -0.4371
     26  O2N      -12.8090   55.7770   14.4040 O.2   274  NAP274     -0.5170
     27  O5D      -12.4970   58.0610   15.4570 O.3   274  NAP274     -0.3112
     28  C5D      -12.6980   58.7390   14.2200 C.3   274  NAP274      0.1813
     29  C4D      -13.4870   60.0290   14.4750 C.3   274  NAP274      0.1799
     30  O4D      -14.2670   60.0120   15.6660 O.3   274  NAP274     -0.3327
     31  C3D      -12.6200   61.2820   14.5890 C.3   274  NAP274      0.2158
     32  O3D      -12.3140   61.7890   13.3010 O.3   274  NAP274     -0.2175
     33  C2D      -13.4700   62.2420   15.4280 C.3   274  NAP274      0.2309
     34  O2D      -14.1120   63.2410   14.6550 O.3   274  NAP274     -0.2158
     35  C1D      -14.4950   61.3480   16.1270 C.3   274  NAP274      0.2263
     36  N1N      -13.8700   61.1370   17.4590 N.pl3 274  NAP274     -0.2787
     37  C2N      -14.0920   62.0320   18.5000 C.3   274  NAP274      0.1244
     38  C3N      -13.4880   61.8270   19.7530 C.2   274  NAP274      0.0544
     39  C7N      -13.7500   62.7930   20.8970 C.2   274  NAP274      0.2818
     40  O7N      -14.5920   63.9120   20.7060 O.2   274  NAP274     -0.2670
     41  N7N      -13.1770   62.5700   22.0880 N.am  274  NAP274     -0.0839
     42  C4N      -12.6450   60.7180   19.9290 C.2   274  NAP274      0.0033
     43  C5N      -12.4230   59.8180   18.8780 C.2   274  NAP274      0.0157
     44  C6N      -13.0450   60.0420   17.6420 C.2   274  NAP274      0.0633
     45  P2B       -8.9680   52.6450   20.7250 P.3   274  NAP274      0.5328
     46  O1X      -10.4640   52.6430   20.8510 O.3   274  NAP274     -0.1145
     47  O2X       -8.2690   52.3400   22.0760 O.3   274  NAP274     -0.1145
     48  O3X       -8.5620   54.0570   20.2510 O.2   274  NAP274     -0.2224
@<TRIPOS>BOND
     1    32    31    1
     2    28    29    1
     3    28    27    1
     4    26    24    2
     5    29    31    1
     6    29    30    1
     7    31    33    1
     8     2     1    2
     9    34    33    1
    10    33    35    1
    11    27    24    1
    12     5     6    1
    13     5     4    1
    14    30    35    1
    15    24    25    1
    16    24    23    1
    17     7     6    1
    18     7    12    1
    19     1     4    1
    20     1    23    1
    21     1     3    1
    22    35    36    1
    23     6     8    1
    24    18    17    1
    25    15    14    1
    26    15    16    2
    27    14    13    1
    28    16    17    1
    29    16    22    1
    30    13    22    1
    31    13    12    1
    32    17    19    2
    33    22    21    2
    34    12    10    1
    35    19    20    1
    36    36    44    1
    37    36    37    1
    38    21    20    1
    39    44    43    2
    40     8    10    1
    41     8     9    1
    42    10    11    1
    43    37    38    1
    44    43    42    1
    45    11    45    1
    46    38    42    2
    47    38    39    1
    48    48    45    2
    49    40    39    2
    50    45    46    1
    51    45    47    1
    52    39    41   am
