@<TRIPOS>MOLECULE
2vni_A2P_A_1.pdb
 27 29 0 0 0
SMALL
GASTEIGER

@<TRIPOS>ATOM
      1  P1       -10.6530   60.1540   17.0320 P.3   274  A2P274      0.5328
      2  O1P      -10.9800   61.4660   16.3870 O.2   274  A2P274     -0.2224
      3  O2P      -11.8600   59.4360   17.4730 O.3   274  A2P274     -0.1145
      4  O3P       -9.5200   60.3300   17.9800 O.3   274  A2P274     -0.1145
      5  P2       -14.4310   59.8910   11.9670 P.3   274  A2P274      0.5327
      6  O4P      -14.7870   61.0670   12.8330 O.3   274  A2P274     -0.1145
      7  O5P      -14.3020   60.3120   10.5230 O.2   274  A2P274     -0.2224
      8  O6P      -15.3870   58.7780   12.2900 O.3   274  A2P274     -0.1145
      9  O5'      -13.0050   59.3510   12.4730 O.3   274  A2P274     -0.2675
     10  C5'      -12.4460   58.1490   11.9740 C.3   274  A2P274      0.1860
     11  C4'      -11.0920   57.9310   12.6480 C.3   274  A2P274      0.1822
     12  O4'       -9.9910   58.8040   12.3220 O.3   274  A2P274     -0.3136
     13  C3'      -11.1730   57.9710   14.1750 C.3   274  A2P274      0.2157
     14  O3'      -10.3400   56.9800   14.7560 O.3   274  A2P274     -0.2175
     15  C2'      -10.6790   59.3670   14.5000 C.3   274  A2P274      0.2314
     16  O2'      -10.0070   59.3950   15.7550 O.3   274  A2P274     -0.2630
     17  C1'       -9.5620   59.5270   13.4880 C.3   274  A2P274      0.3158
     18  N9        -9.2380   60.9080   13.0780 N.pl3 274  A2P274     -0.1439
     19  C8       -10.1340   61.8870   12.7570 C.3   274  A2P274      0.3377
     20  N7        -9.5250   63.0310   12.3640 N.2   274  A2P274     -0.2095
     21  C5        -8.2190   62.7490   12.4410 C.2   274  A2P274      0.2526
     22  C6        -6.9920   63.4890   12.1500 C.2   274  A2P274      0.4393
     23  N6        -7.0620   64.7720   11.7430 N.pl3 274  A2P274      0.2180
     24  N1        -5.8290   62.8730   12.3250 N.2   274  A2P274      0.0021
     25  C2        -5.7550   61.6080   12.7630 C.3   274  A2P274      0.5254
     26  N3        -6.8060   60.8390   13.0710 N.2   274  A2P274     -0.0055
     27  C4        -8.0140   61.3660   12.8760 C.2   274  A2P274      0.3518
@<TRIPOS>BOND
     1     7     5    2
     2    23    22    1
     3     5     8    1
     4     5     9    1
     5     5     6    1
     6    10     9    1
     7    10    11    1
     8    22    24    2
     9    22    21    1
    10    12    11    1
    11    12    17    1
    12    24    25    1
    13    20    21    2
    14    20    19    1
    15    21    27    1
    16    11    13    1
    17    19    18    1
    18    25    26    1
    19    27    26    2
    20    27    18    1
    21    18    17    1
    22    17    15    1
    23    13    15    1
    24    13    14    1
    25    15    16    1
    26    16     1    1
    27     2     1    2
    28     1     3    1
    29     1     4    1
