@<TRIPOS>MOLECULE
2vnj_NAP_A_1.pdb
 48 52 0 0 0
SMALL
GASTEIGER

@<TRIPOS>ATOM
      1  PA        27.0070   21.7160    9.7030 P.3   274  NAP274      0.2189
      2  O1A       26.8880   20.6920    8.6010 O.2   274  NAP274     -0.5170
      3  O2A       27.6950   20.9430   10.9240 O.3   274  NAP274     -0.4371
      4  O5B       25.4090   21.6340   10.3250 O.3   274  NAP274     -0.3112
      5  C5B       24.4480   22.5530    9.9590 C.3   274  NAP274      0.1813
      6  C4B       24.3630   23.7640   10.9350 C.3   274  NAP274      0.1820
      7  O4B       25.0520   23.7720   12.2140 O.3   274  NAP274     -0.3136
      8  C3B       24.6500   25.0940   10.2330 C.3   274  NAP274      0.2157
      9  O3B       23.5160   25.9490   10.5120 O.3   274  NAP274     -0.2175
     10  C2B       25.8760   25.6190   10.9290 C.3   274  NAP274      0.2314
     11  O2B       25.7600   27.0080   10.9390 O.3   274  NAP274     -0.2630
     12  C1B       25.6710   25.0270   12.3300 C.3   274  NAP274      0.3158
     13  N9A       26.9770   24.9650   12.9870 N.pl3 274  NAP274     -0.1439
     14  C8A       28.1980   24.5360   12.4330 C.3   274  NAP274      0.3377
     15  N7A       29.1390   24.7340   13.3710 N.2   274  NAP274     -0.2095
     16  C5A       28.5820   25.1880   14.5200 C.2   274  NAP274      0.2526
     17  C6A       29.1110   25.4640   15.7950 C.2   274  NAP274      0.4393
     18  N6A       30.4130   25.2650   15.9760 N.pl3 274  NAP274      0.2180
     19  N1A       28.2580   25.9640   16.7820 N.2   274  NAP274      0.0021
     20  C2A       26.9130   26.1240   16.4780 C.3   274  NAP274      0.5254
     21  N3A       26.3900   25.8410   15.2540 N.2   274  NAP274     -0.0055
     22  C4A       27.1930   25.3750   14.2970 C.2   274  NAP274      0.3518
     23  O3        27.4850   23.3070    9.1970 O.3   274  NAP274     -0.2703
     24  PN        28.9190   23.6700    8.3270 P.3   274  NAP274      0.2189
     25  O1N       29.6590   22.4090    8.6430 O.3   274  NAP274     -0.4371
     26  O2N       29.7230   24.9100    8.6360 O.2   274  NAP274     -0.5170
     27  O5D       28.1980   23.6760    6.8320 O.3   274  NAP274     -0.3112
     28  C5D       28.6770   23.2830    5.5600 C.3   274  NAP274      0.1813
     29  C4D       29.5250   24.4760    5.1630 C.3   274  NAP274      0.1799
     30  O4D       30.8500   24.4650    5.7460 O.3   274  NAP274     -0.3327
     31  C3D       29.5800   24.6190    3.6550 C.3   274  NAP274      0.2158
     32  O3D       28.8900   25.8150    3.2370 O.3   274  NAP274     -0.2175
     33  C2D       31.0560   24.7030    3.2540 C.3   274  NAP274      0.2309
     34  O2D       31.1760   25.8170    2.3080 O.3   274  NAP274     -0.2158
     35  C1D       31.7950   24.7410    4.6480 C.3   274  NAP274      0.2263
     36  N1N       32.8970   23.6800    4.6700 N.pl3 274  NAP274     -0.2787
     37  C2N       34.2370   24.1600    4.6850 C.3   274  NAP274      0.1244
     38  C3N       35.3130   23.2590    4.6400 C.2   274  NAP274      0.0544
     39  C7N       36.7870   23.7150    4.7040 C.2   274  NAP274      0.2818
     40  O7N       37.1080   25.1490    4.7860 O.2   274  NAP274     -0.2670
     41  N7N       37.7320   22.7200    4.7080 N.am  274  NAP274     -0.0839
     42  C4N       34.9720   21.8620    4.5820 C.2   274  NAP274      0.0033
     43  C5N       33.5920   21.4200    4.5340 C.2   274  NAP274      0.0157
     44  C6N       32.5200   22.3340    4.5720 C.2   274  NAP274      0.0633
     45  P2B       26.7270   27.9220   10.1490 P.3   274  NAP274      0.5328
     46  O1X       27.8060   26.9910   10.1300 O.3   274  NAP274     -0.1145
     47  O2X       26.2570   27.8590    8.6920 O.2   274  NAP274     -0.2224
     48  O3X       27.0360   29.3860   10.6530 O.3   274  NAP274     -0.1145
@<TRIPOS>BOND
     1    34    33    1
     2    32    31    1
     3    33    31    1
     4    33    35    1
     5    31    29    1
     6    43    44    2
     7    43    42    1
     8    44    36    1
     9    42    38    2
    10    38    37    1
    11    38    39    1
    12    35    36    1
    13    35    30    1
    14    36    37    1
    15    39    41   am
    16    39    40    2
    17    29    28    1
    18    29    30    1
    19    28    27    1
    20    27    24    1
    21    24    26    2
    22    24    25    1
    23    24    23    1
    24     2     1    2
    25    47    45    2
    26    23     1    1
    27     1     4    1
    28     1     3    1
    29     5     4    1
    30     5     6    1
    31    46    45    1
    32    45    48    1
    33    45    11    1
    34     8     9    1
    35     8    10    1
    36     8     6    1
    37    10    11    1
    38    10    12    1
    39     6     7    1
    40     7    12    1
    41    12    13    1
    42    14    13    1
    43    14    15    1
    44    13    22    1
    45    15    16    2
    46    22    16    1
    47    22    21    2
    48    16    17    1
    49    21    20    1
    50    17    18    1
    51    17    19    2
    52    20    19    1
