@<TRIPOS>MOLECULE
2vnk_NAP_A_1.pdb
 31 33 0 0 0
SMALL
GASTEIGER

@<TRIPOS>ATOM
      1  PA        21.4980    4.7550   62.9010 P.3   274  NAP274      0.2231
      2  O1A       22.4840    6.0000   63.0490 O.3   274  NAP274     -0.4370
      3  O2A       22.3120    3.4670   62.4240 O.2   274  NAP274     -0.5169
      4  O5B       20.3080    5.1210   61.8790 O.3   274  NAP274     -0.3111
      5  C5B       20.0380    4.2820   60.7470 C.3   274  NAP274      0.1813
      6  C4B       18.8250    3.3940   61.0370 C.3   274  NAP274      0.1820
      7  O4B       19.1700    2.0320   61.3500 O.3   274  NAP274     -0.3136
      8  C3B       17.9750    3.9140   62.1840 C.3   274  NAP274      0.2157
      9  O3B       16.6910    4.0600   61.5910 O.3   274  NAP274     -0.2175
     10  C2B       17.9040    2.8340   63.2400 C.3   274  NAP274      0.2314
     11  O2B       16.6170    2.5640   63.7830 O.3   274  NAP274     -0.2630
     12  C1B       18.5300    1.6310   62.5740 C.3   274  NAP274      0.3158
     13  N9A       19.2770    0.7400   63.5050 N.pl3 274  NAP274     -0.1439
     14  C8A       20.1790    1.0480   64.4770 C.3   274  NAP274      0.3377
     15  N7A       20.6270   -0.0730   65.1310 N.2   274  NAP274     -0.2095
     16  C5A       19.9840   -1.1150   64.5780 C.2   274  NAP274      0.2526
     17  C6A       19.9150   -2.5810   64.7110 C.2   274  NAP274      0.4393
     18  N6A       20.6910   -3.1560   65.6520 N.pl3 274  NAP274      0.2180
     19  N1A       19.0880   -3.3000   63.9050 N.2   274  NAP274      0.0021
     20  C2A       18.3040   -2.7370   62.9560 C.3   274  NAP274      0.5254
     21  N3A       18.2840   -1.4090   62.7400 N.2   274  NAP274     -0.0055
     22  C4A       19.1260   -0.5680   63.5550 C.2   274  NAP274      0.3518
     23  O3        20.7220    4.5020   64.2920 O.3   274  NAP274     -0.2261
     24  PN        21.5020    4.8240   65.6590 P.3   274  NAP274      0.5373
     25  O1N       21.4790    6.3980   65.9110 O.3   274  NAP274     -0.1143
     26  O2N       23.0050    4.2990   65.4910 O.2   274  NAP274     -0.2221
     27  O5D       20.7970    4.0740   66.8760 O.3   274  NAP274     -0.1143
     28  P2B       16.2740    3.1540   65.2390 P.3   274  NAP274      0.5328
     29  O1X       15.7250    4.6350   65.0600 O.2   274  NAP274     -0.2224
     30  O2X       15.1750    2.2690   65.9670 O.3   274  NAP274     -0.1145
     31  O3X       17.6210    3.2090   66.0930 O.3   274  NAP274     -0.1145
@<TRIPOS>BOND
     1     5     6    1
     2     5     4    1
     3     6     7    1
     4     6     8    1
     5     7    12    1
     6     9     8    1
     7     4     1    1
     8     8    10    1
     9     3     1    2
    10    12    10    1
    11    12    13    1
    12    21    20    1
    13    21    22    2
    14     1     2    1
    15     1    23    1
    16    20    19    1
    17    10    11    1
    18    13    22    1
    19    13    14    1
    20    22    16    1
    21    11    28    1
    22    19    17    2
    23    23    24    1
    24    14    15    1
    25    16    17    1
    26    16    15    2
    27    17    18    1
    28    29    28    2
    29    28    30    1
    30    28    31    1
    31    26    24    2
    32    24    25    1
    33    24    27    1
