@<TRIPOS>MOLECULE
2vnm_CM8_A_1.pdb
 43 46 0 0 0
SMALL
GASTEIGER

@<TRIPOS>ATOM
      1  C02       27.5940   -3.7460   34.1580 C.3   2000  CM82000     0.0251
      2  C01       29.0930   -3.7890   34.1330 C.3   2000  CM82000     0.1123
      3  C06       33.8450   -2.2450   40.1660 C.3   2000  CM82000     0.0292
      4  C07       32.3550   -2.7130   40.3140 C.3   2000  CM82000     0.1727
      5  S08       31.2970   -1.2030   40.0730 S.O2  2000  CM82000     0.0569
      6  O10       31.5210   -0.3330   41.2100 O.2   2000  CM82000    -0.1543
      7  O09       29.9080   -1.6170   39.9730 O.2   2000  CM82000    -0.1543
      8  N11       31.7580   -0.4480   38.7880 N.pl3 2000  CM82000    -0.1943
      9  C12       33.2070   -0.1180   38.7200 C.3   2000  CM82000     0.1155
     10  C13       31.1040   -0.7520   37.5360 C.ar  2000  CM82000     0.0699
     11  C14       30.9570    0.3880   36.6520 C.ar  2000  CM82000     0.0208
     12  C15       30.3550    0.2100   35.3790 C.ar  2000  CM82000     0.0576
     13  C16       29.9020   -1.0700   34.9410 C.ar  2000  CM82000     0.0207
     14  C17       30.0920   -2.2120   35.8170 C.ar  2000  CM82000     0.0667
     15  C18       30.7130   -2.0430   37.1350 C.ar  2000  CM82000     0.0322
     16  C19       30.1590    1.4160   34.4960 C.2   2000  CM82000     0.2649
     17  O20       31.0480    2.1890   34.2710 O.2   2000  CM82000    -0.2684
     18  N21       28.9100    1.4440   33.7650 N.am  2000  CM82000    -0.2004
     19  C22       28.7090    2.4070   32.6750 C.3   2000  CM82000     0.1316
     20  C23       28.0620    1.6300   31.5080 C.3   2000  CM82000     0.0507
     21  C24       28.7830    0.2860   31.2290 C.ar  2000  CM82000    -0.0204
     22  C29       30.2370    0.2220   31.1100 C.ar  2000  CM82000    -0.0042
     23  C28       30.8960   -1.0350   30.8630 C.ar  2000  CM82000    -0.0003
     24  C27       30.0670   -2.2180   30.7060 C.ar  2000  CM82000    -0.0000
     25  C26       28.6330   -2.1640   30.8210 C.ar  2000  CM82000    -0.0003
     26  C25       27.9540   -0.9060   31.0760 C.ar  2000  CM82000    -0.0042
     27  C30       27.7450    3.5220   33.1810 C.3   2000  CM82000     0.1894
     28  O31       27.4050    4.3810   32.0630 O.3   2000  CM82000    -0.2197
     29  C32       28.5220    4.4310   34.1680 C.3   2000  CM82000     0.1237
     30  N33       27.6380    5.5780   34.5200 N.3   2000  CM82000    -0.2105
     31  C34       28.4170    6.6630   35.1540 C.3   2000  CM82000     0.1151
     32  C35       29.4250    7.2870   34.1560 C.ar  2000  CM82000    -0.0049
     33  C36       30.8230    7.3540   34.5250 C.ar  2000  CM82000    -0.0029
     34  C37       31.7980    7.9330   33.6260 C.ar  2000  CM82000    -0.0003
     35  C38       31.3850    8.4430   32.3470 C.ar  2000  CM82000     0.0038
     36  C39       29.9870    8.3600   31.9800 C.ar  2000  CM82000     0.0712
     37  C31       34.0590   -1.4330   38.8260 C.3   2000  CM82000     0.0252
     38  C40       29.0030    7.7940   32.8750 C.ar  2000  CM82000     0.0010
     39  C41       29.5480    8.9010   30.6400 C.3   2000  CM82000     0.4186
     40  F44       30.5910    9.4780   29.9790 F     2000  CM82000    -0.1659
     41  F43       29.0130    7.9130   29.8910 F     2000  CM82000    -0.1659
     42  N03       29.6870   -3.5480   35.4140 N.pl3 2000  CM82000    -0.2376
     43  F42       28.6240    9.8490   30.8620 F     2000  CM82000    -0.1659
@<TRIPOS>BOND
     1    41    39    1
     2    40    39    1
     3    39    43    1
     4    39    36    1
     5    24    25   ar
     6    24    23   ar
     7    25    26   ar
     8    23    22   ar
     9    26    21   ar
    10    22    21   ar
    11    21    20    1
    12    20    19    1
    13    36    35   ar
    14    36    38   ar
    15    28    27    1
    16    35    34   ar
    17    19    27    1
    18    19    18    1
    19    38    32   ar
    20    27    29    1
    21    34    33   ar
    22    18    16   am
    23     2     1    1
    24     2    42    1
    25    32    33   ar
    26    32    31    1
    27    29    30    1
    28    17    16    2
    29    16    12    1
    30    30    31    1
    31    13    12   ar
    32    13    14   ar
    33    12    11   ar
    34    42    14    1
    35    14    15   ar
    36    11    10   ar
    37    15    10   ar
    38    10     8    1
    39     9     8    1
    40     9    37    1
    41     8     5    1
    42    37     3    1
    43     7     5    2
    44     5     4    1
    45     5     6    2
    46     3     4    1
