@<TRIPOS>MOLECULE
2vnn_CM7_A_1.pdb
 44 48 0 0 0
SMALL
GASTEIGER

@<TRIPOS>ATOM
      1  C01       28.0290   -3.7130   34.0220 C.3   2000  CM72000     0.0051
      2  C02       29.5170   -4.1010   34.0840 C.3   2000  CM72000     0.0279
      3  C03       30.1880   -3.4720   35.3270 C.ar  2000  CM72000    -0.0035
      4  C04       30.7030   -4.1960   36.4760 C.ar  2000  CM72000     0.0716
      5  N05       31.1790   -3.2100   37.3480 N.ar  2000  CM72000    -0.3234
      6  C06       31.8340   -3.7520   38.5960 C.3   2000  CM72000     0.1334
      7  C07       31.8670   -3.0210   39.9480 C.3   2000  CM72000     0.1970
      8  S08       31.4380   -1.2320   39.7790 S.O2  2000  CM72000     0.0590
      9  O09       31.8700   -0.5150   41.0080 O.2   2000  CM72000    -0.1542
     10  O10       29.9970   -1.2530   39.6780 O.2   2000  CM72000    -0.1542
     11  N11       32.0540   -0.4680   38.5710 N.pl3 2000  CM72000    -0.1911
     12  C12       33.4640   -0.0320   38.5780 C.3   2000  CM72000     0.1388
     13  C13       31.4460   -0.5260   37.2340 C.ar  2000  CM72000     0.0843
     14  C14       31.1400    0.6180   36.4380 C.ar  2000  CM72000     0.0222
     15  C15       30.5060    0.4270   35.1950 C.ar  2000  CM72000     0.0564
     16  C16       30.1070   -0.8920   34.6760 C.ar  2000  CM72000     0.0058
     17  C17       30.4090   -2.0590   35.5230 C.ar  2000  CM72000     0.0147
     18  C18       31.0590   -1.8730   36.7730 C.ar  2000  CM72000     0.0747
     19  C19       30.2720    1.6930   34.4300 C.2   2000  CM72000     0.2649
     20  O20       31.1980    2.4440   34.2440 O.2   2000  CM72000    -0.2684
     21  N21       29.0830    1.7020   33.6420 N.am  2000  CM72000    -0.2004
     22  C22       28.8930    2.6290   32.5370 C.3   2000  CM72000     0.1316
     23  C23       28.1850    1.7930   31.4290 C.3   2000  CM72000     0.0507
     24  C24       28.9130    0.4470   31.1660 C.ar  2000  CM72000    -0.0204
     25  C25       30.3650    0.3810   31.0300 C.ar  2000  CM72000    -0.0042
     26  C26       30.9940   -0.8900   30.7820 C.ar  2000  CM72000    -0.0003
     27  C27       30.1570   -2.0920   30.6660 C.ar  2000  CM72000    -0.0000
     28  C28       28.7190   -2.0330   30.7990 C.ar  2000  CM72000    -0.0003
     29  C29       28.0880   -0.7550   31.0420 C.ar  2000  CM72000    -0.0042
     30  C30       27.9810    3.7610   33.0520 C.3   2000  CM72000     0.1894
     31  O31       27.6430    4.6050   31.9330 O.3   2000  CM72000    -0.2197
     32  C32       28.7370    4.6580   34.0760 C.3   2000  CM72000     0.1237
     33  N33       27.8310    5.7880   34.4490 N.3   2000  CM72000    -0.2105
     34  C34       28.5550    6.9540   35.0210 C.3   2000  CM72000     0.1151
     35  C35       29.6340    7.5070   34.0570 C.ar  2000  CM72000    -0.0049
     36  C36       31.0420    7.4930   34.4380 C.ar  2000  CM72000    -0.0029
     37  C37       32.0430    8.0170   33.5250 C.ar  2000  CM72000    -0.0003
     38  C38       31.6450    8.5720   32.2390 C.ar  2000  CM72000     0.0038
     39  C39       30.2480    8.5690   31.8650 C.ar  2000  CM72000     0.0712
     40  C40       29.2390    8.0480   32.7670 C.ar  2000  CM72000     0.0010
     41  C41       29.7930    9.1300   30.5180 C.3   2000  CM72000     0.4186
     42  F42       28.7770   10.0050   30.6680 F     2000  CM72000    -0.1659
     43  F43       29.3420    8.1140   29.7590 F     2000  CM72000    -0.1659
     44  F44       30.8140    9.7480   29.8910 F     2000  CM72000    -0.1659
@<TRIPOS>BOND
     1    43    41    1
     2    44    41    1
     3    41    42    1
     4    41    39    1
     5    27    26   ar
     6    27    28   ar
     7    26    25   ar
     8    28    29   ar
     9    25    24   ar
    10    29    24   ar
    11    24    23    1
    12    23    22    1
    13    39    38   ar
    14    39    40   ar
    15    31    30    1
    16    38    37   ar
    17    22    30    1
    18    22    21    1
    19    40    35   ar
    20    30    32    1
    21    37    36   ar
    22    21    19   am
    23     1     2    1
    24    35    36   ar
    25    35    34    1
    26    32    33    1
    27     2     3    1
    28    20    19    2
    29    19    15    1
    30    33    34    1
    31    16    15   ar
    32    16    17   ar
    33    15    14   ar
    34     3    17   ar
    35     3     4   ar
    36    17    18   ar
    37    14    13   ar
    38     4     5   ar
    39    18    13   ar
    40    18     5   ar
    41    13    11    1
    42     5     6    1
    43    11    12    1
    44    11     8    1
    45     6     7    1
    46    10     8    2
    47     8     7    1
    48     8     9    2
