@<TRIPOS>MOLECULE
2vno_FUC_A_1.pdb
 10 10 0 0 0
SMALL
GASTEIGER

@<TRIPOS>ATOM
      1  C1        14.3790    8.3070   -6.7500 C.3   1212  FUC1212     0.1776
      2  C2        15.1440    7.8070   -5.5350 C.3   1212  FUC1212     0.2141
      3  C3        15.7070    6.4260   -5.8150 C.3   1212  FUC1212     0.2172
      4  C4        16.5540    6.4870   -7.0940 C.3   1212  FUC1212     0.2116
      5  C5        15.7900    7.0830   -8.3010 C.3   1212  FUC1212     0.1483
      6  C6        16.7650    7.3560   -9.4740 C.3   1212  FUC1212     0.0349
      7  O2        14.2360    7.6550   -4.5030 O.3   1212  FUC1212    -0.2176
      8  O3        16.5050    5.9860   -4.7230 O.3   1212  FUC1212    -0.2175
      9  O4        17.6800    7.3150   -6.7960 O.3   1212  FUC1212    -0.2177
     10  O5        15.2010    8.3280   -7.9190 O.3   1212  FUC1212    -0.3508
@<TRIPOS>BOND
     1     6     5    1
     2     5    10    1
     3     5     4    1
     4    10     1    1
     5     4     9    1
     6     4     3    1
     7     1     2    1
     8     3     2    1
     9     3     8    1
    10     2     7    1
