@<TRIPOS>MOLECULE
2vno_GAL_A_1.pdb
 11 11 0 0 0
SMALL
GASTEIGER

@<TRIPOS>ATOM
      1  C1        11.0090   10.6340   -5.3650 C.3   1210  GAL1210     0.1777
      2  C2        11.9220   11.7670   -4.9410 C.3   1210  GAL1210     0.2141
      3  C3        13.0520   11.2690   -3.9990 C.3   1210  GAL1210     0.2173
      4  C4        12.4530   10.4970   -2.8320 C.3   1210  GAL1210     0.2142
      5  C5        11.5920    9.3700   -3.4020 C.3   1210  GAL1210     0.1810
      6  C6        10.9290    8.5630   -2.3080 C.3   1210  GAL1210     0.2141
      7  O2        12.4170   12.4900   -6.0990 O.3   1210  GAL1210    -0.2176
      8  O3        13.8580   12.3660   -3.5450 O.3   1210  GAL1210    -0.2175
      9  O4        11.6560   11.3390   -2.0430 O.3   1210  GAL1210    -0.2176
     10  O5        10.5520    9.9120   -4.2180 O.3   1210  GAL1210    -0.3481
     11  O6        10.4150    7.3490   -2.8470 O.3   1210  GAL1210    -0.2176
@<TRIPOS>BOND
     1     7     2    1
     2     1     2    1
     3     1    10    1
     4     2     3    1
     5    10     5    1
     6     3     8    1
     7     3     4    1
     8     5     4    1
     9     5     6    1
    10    11     6    1
    11     4     9    1
