@<TRIPOS>MOLECULE
2vnp_DED_A_1.pdb
 14 13 0 0 0
SMALL
GASTEIGER

@<TRIPOS>ATOM
      1  O1        -1.6720    0.6250   21.3870 O.3   1182  DED1182    -0.1143
      2  O2        -3.7210    1.0690   19.9630 O.3   1182  DED1182    -0.1143
      3  O3        -1.5470    0.2950   18.9090 O.2   1182  DED1182    -0.2221
      4  P4        -2.4380    0.2670   20.0930 P.3   1182  DED1182     0.5373
      5  O5        -2.7330   -1.3280   20.2100 O.3   1182  DED1182    -0.2261
      6  O6        -5.0170   -1.5140   19.2030 O.3   1182  DED1182    -0.4370
      7  O7        -3.0500   -2.9650   18.2660 O.2   1182  DED1182    -0.5169
      8  P8        -3.7260   -2.3000   19.3890 P.3   1182  DED1182     0.2230
      9  O9        -4.0540   -3.5270   20.4160 O.3   1182  DED1182    -0.3123
     10  C10       -4.4590   -3.4010   21.8150 C.3   1182  DED1182     0.1664
     11  C11       -4.4040   -4.7010   22.6530 C.3   1182  DED1182     0.1051
     12  N12       -4.6100   -5.9260   21.8220 N.3   1182  DED1182    -0.2682
     13  C13       -5.8970   -6.5730   22.1070 C.3   1182  DED1182     0.0897
     14  C14       -4.3750   -5.9280   20.3750 C.3   1182  DED1182     0.0897
@<TRIPOS>BOND
     1     7     8    2
     2     3     4    2
     3     6     8    1
     4     8     5    1
     5     8     9    1
     6     2     4    1
     7     4     5    1
     8     4     1    1
     9    14    12    1
    10     9    10    1
    11    10    11    1
    12    12    13    1
    13    12    11    1
