@<TRIPOS>MOLECULE
2vnt_QGG_A_1.pdb
 26 28 0 0 0
SMALL
GASTEIGER

@<TRIPOS>ATOM
      1  N1       -40.9210  177.4850   70.2010 N.pl3 1258  QGG1258     0.1359
      2  C2       -40.7980  176.3480   69.4720 C.cat 1258  QGG1258     0.5407
      3  N3       -40.2510  175.2830   69.9750 N.pl3 1258  QGG1258    -0.0404
      4  C4       -39.8180  175.1510   71.2640 C.ar  1258  QGG1258     0.2417
      5  N5       -40.2230  175.9580   72.2200 N.ar  1258  QGG1258    -0.2095
      6  C6       -39.8550  175.8330   73.4880 C.ar  1258  QGG1258     0.1133
      7  C7       -39.0350  174.8050   73.8810 C.ar  1258  QGG1258     0.0770
      8 CL8       -38.5660  174.6890   75.5150 Cl    1258  QGG1258    -0.0806
      9  C9       -38.5440  173.8570   72.9590 C.ar  1258  QGG1258     0.0166
     10  C10      -37.6860  172.7860   73.3360 C.ar  1258  QGG1258     0.0024
     11  C11      -37.2630  171.9350   72.3950 C.ar  1258  QGG1258     0.0199
     12  C12      -37.6400  172.1200   71.0650 C.ar  1258  QGG1258     0.1224
     13  C13      -38.4680  173.1250   70.6660 C.ar  1258  QGG1258     0.0245
     14  C14      -38.9290  174.0240   71.6130 C.ar  1258  QGG1258     0.0552
     15  S15      -36.9920  171.0050   69.8890 S.O2  1258  QGG1258     0.0637
     16  O16      -37.2850  171.4480   68.5580 O.2   1258  QGG1258    -0.1528
     17  O17      -35.7080  170.9240   70.3800 O.2   1258  QGG1258    -0.1528
     18  N18      -37.8400  169.5680   70.1460 N.3   1258  QGG1258    -0.1460
     19  C19      -37.4950  168.4640   71.0630 C.3   1258  QGG1258     0.0964
     20  C20      -38.8610  167.8720   71.4960 C.3   1258  QGG1258     0.0212
     21  C21      -39.7580  168.0070   70.2380 C.3   1258  QGG1258     0.0308
     22  C22      -39.1120  169.2010   69.5140 C.3   1258  QGG1258     0.1822
     23  C24      -38.8990  168.8190   68.0830 C.2   1258  QGG1258     0.3806
     24  O25      -37.9160  168.2270   67.6480 O.co2 1258  QGG1258    -0.2441
     25  O26      -39.8930  169.1860   67.2920 O.co2 1258  QGG1258    -0.2441
     26  N27      -41.1920  176.2670   68.1890 N.pl3 1258  QGG1258     0.1359
@<TRIPOS>BOND
     1    25    23   ar
     2    24    23   ar
     3    23    22    1
     4    26     2    1
     5    16    15    2
     6     2     3    2
     7     2     1    1
     8    22    18    1
     9    22    21    1
    10    15    18    1
    11    15    17    2
    12    15    12    1
    13     3     4    1
    14    18    19    1
    15    21    20    1
    16    13    12   ar
    17    13    14   ar
    18    19    20    1
    19    12    11   ar
    20     4    14   ar
    21     4     5   ar
    22    14     9   ar
    23     5     6   ar
    24    11    10   ar
    25     9    10   ar
    26     9     7   ar
    27     6     7   ar
    28     7     8    1
