@<TRIPOS>MOLECULE
2vnw_M01_A_1.pdb
 17 19 0 0 0
SMALL
GASTEIGER

@<TRIPOS>ATOM
      1  N1         5.1520    9.8890    4.8650 N.2   1351  M011351    -0.0336
      2  C2         3.8220    9.7650    4.9450 C.3   1351  M011351     0.4005
      3  N3         2.9400    9.6130    3.9550 N.2   1351  M011351    -0.1640
      4  C4         3.5260    9.6500    2.7530 C.1   1351  M011351     0.0576
      5  C5         4.8780    9.7890    2.5250 C.2   1351  M011351     0.2219
      6  C7         5.7050    9.9110    3.6390 C.2   1351  M011351     0.3479
      7  C9        10.4050    7.4110    3.9950 C.3   1351  M011351     0.1095
      8  N7         5.1330    9.7820    1.1450 N.2   1351  M011351    -0.2269
      9  C8         3.9340    9.6300    0.5960 C.3   1351  M011351     0.2618
     10  N9         2.9550    9.5480    1.5210 N.2   1351  M011351    -0.1914
     11  C10        9.6980    8.7260    3.7700 C.3   1351  M011351     0.0273
     12  C15        8.8070    8.6100    2.5290 C.3   1351  M011351     0.0524
     13  C14        7.9000    9.8070    2.3550 C.3   1351  M011351     0.2024
     14  C12        7.9770   10.3000    4.7150 C.3   1351  M011351     0.2024
     15  N10       11.1660    6.9680    2.7950 N.3   1351  M011351    -0.1314
     16  C11        8.8500    9.0950    4.9900 C.3   1351  M011351     0.0524
     17  N6         7.1050   10.0550    3.5650 N.pl3 1351  M011351    -0.1888
@<TRIPOS>BOND
     1     9     8    1
     2     9    10    1
     3     8     5    2
     4    10     4    2
     5    13    12    1
     6    13    17    1
     7     5     4    1
     8     5     6    1
     9    12    11    1
    10     4     3    2
    11    15     7    1
    12    17     6    1
    13    17    14    1
    14     6     1    2
    15    11     7    1
    16    11    16    1
    17     3     2    1
    18    14    16    1
    19     1     2    1
