@<TRIPOS>MOLECULE
2vnx_HEM_X_1.pdb
 43 50 0 0 0
SMALL
GASTEIGER

@<TRIPOS>ATOM
      1 FE         14.9940   54.7430   19.1860 Fe    251  HEM251      0.0000
      2  CHA       13.6790   57.6520   20.5220 C.2   251  HEM251      0.0000
      3  CHB       12.8740   55.0500   16.4880 C.2   251  HEM251      0.0000
      4  CHC       16.2720   51.8970   17.8150 C.2   251  HEM251      0.0000
      5  CHD       17.1240   54.4380   21.8160 C.2   251  HEM251      0.0000
      6  NA        13.5610   56.0780   18.6340 N.ar  251  HEM251      0.0000
      7  C1A       13.1880   57.2190   19.3040 C.ar  251  HEM251      0.0000
      8  C2A       12.1600   57.8970   18.5400 C.ar  251  HEM251      0.0000
      9  C3A       11.9210   57.1790   17.4320 C.ar  251  HEM251      0.0000
     10  C4A       12.8080   56.0310   17.4570 C.ar  251  HEM251      0.0000
     11  CMA       10.9090   57.5080   16.3000 C.3   251  HEM251      0.0000
     12  CAA       11.4640   59.2070   18.9650 C.3   251  HEM251      0.0000
     13  CBA       12.3340   60.4280   18.6690 C.3   251  HEM251      0.0000
     14  CGA       11.5860   61.6410   19.1770 C.2   251  HEM251      0.0000
     15  O1A       10.4740   61.9690   18.6640 O.co2 251  HEM251      0.0000
     16  O2A       12.0970   62.2870   20.1250 O.co2 251  HEM251      0.0000
     17  NB        14.6880   53.7160   17.4430 N.2   251  HEM251      0.0000
     18  C1B       13.6450   53.9220   16.5600 C.2   251  HEM251      0.0000
     19  C2B       13.5120   52.7370   15.7350 C.2   251  HEM251      0.0000
     20  C3B       14.4530   51.8580   16.1040 C.2   251  HEM251      0.0000
     21  C4B       15.1980   52.4620   17.2000 C.2   251  HEM251      0.0000
     22  CMB       12.4570   52.5480   14.6280 C.3   251  HEM251      0.0000
     23  CAB       14.6960   50.4340   15.5710 C.2   251  HEM251      0.0000
     24  CBB       14.5940   49.4390   16.4680 C.2   251  HEM251      0.0000
     25  NC        16.3900   53.4450   19.7100 N.ar  251  HEM251      0.0000
     26  C1C       16.8390   52.3780   18.9640 C.ar  251  HEM251      0.0000
     27  C2C       17.9760   51.7700   19.6100 C.ar  251  HEM251      0.0000
     28  C3C       18.2090   52.4840   20.7280 C.ar  251  HEM251      0.0000
     29  C4C       17.2170   53.5290   20.8020 C.ar  251  HEM251      0.0000
     30  CMC       18.7620   50.5570   19.0630 C.3   251  HEM251      0.0000
     31  CAC       19.2970   52.2700   21.8050 C.2   251  HEM251      0.0000
     32  CBC       19.5340   51.0350   22.2630 C.2   251  HEM251      0.0000
     33  ND        15.3910   55.8950   20.8550 N.2   251  HEM251      0.0000
     34  C1D       16.2170   55.4530   21.8810 C.2   251  HEM251      0.0000
     35  C2D       15.9470   56.2530   23.0540 C.2   251  HEM251      0.0000
     36  C3D       14.8880   57.2460   22.6570 C.2   251  HEM251      0.0000
     37  C4D       14.5970   56.9610   21.2620 C.2   251  HEM251      0.0000
     38  CMD       16.5780   56.1250   24.4410 C.3   251  HEM251      0.0000
     39  CAD       14.2580   58.3290   23.5510 C.3   251  HEM251      0.0000
     40  CBD       14.9620   59.6570   23.2930 C.3   251  HEM251      0.0000
     41  CGD       14.4120   60.7830   24.1500 C.2   251  HEM251      0.0000
     42  O1D       14.6000   61.9660   23.7430 O.co2 251  HEM251      0.0000
     43  O2D       13.8420   60.5020   25.2510 O.co2 251  HEM251      0.0000
@<TRIPOS>BOND
     1    22    19    1
     2    23    20    1
     3    23    24    2
     4    19    20    2
     5    19    18    1
     6    20    21    1
     7    11     9    1
     8     3    18    1
     9     3    10    2
    10    18    17    2
    11    21    17    1
    12    21     4    2
    13     9    10   ar
    14     9     8   ar
    15    17     1    1
    16    10     6   ar
    17     4    26    1
    18     8    12    1
    19     8     7   ar
    20     6     1    1
    21     6     7   ar
    22    15    14   ar
    23    13    12    1
    24    13    14    1
    25    26    27   ar
    26    26    25   ar
    27    30    27    1
    28    14    16   ar
    29     1    25    1
    30     1    33    1
    31     7     2    2
    32    27    28   ar
    33    25    29   ar
    34     2    37    1
    35    28    29   ar
    36    28    31    1
    37    29     5    1
    38    33    37    2
    39    33    34    1
    40    37    36    1
    41    31    32    2
    42     5    34    2
    43    34    35    1
    44    36    35    2
    45    36    39    1
    46    35    38    1
    47    40    39    1
    48    40    41    1
    49    42    41   ar
    50    41    43   ar
