@<TRIPOS>MOLECULE
2vny_M02_A_1.pdb
 16 18 0 0 0
SMALL
GASTEIGER

@<TRIPOS>ATOM
      1  CAK        9.0130    8.2850    2.8210 C.3   1351  M021351     0.0699
      2  CAM        9.7770    8.4410    4.1380 C.3   1351  M021351     0.1001
      3  CAP        8.2480    9.5360    2.4380 C.3   1351  M021351     0.2039
      4  CAO        8.8630    9.0230    5.2130 C.3   1351  M021351     0.0699
      5  C7         8.1780   10.2840    4.7210 C.3   1351  M021351     0.2039
      6  N6         7.3780    9.9900    3.5280 N.pl3 1351  M021351    -0.1887
      7  C6         5.9600    9.9040    3.5720 C.2   1351  M021351     0.3479
      8  C5         5.1190    9.8120    2.4530 C.2   1351  M021351     0.2219
      9  N7         5.3630    9.7760    1.0780 N.2   1351  M021351    -0.2269
     10  C4         3.7670    9.7330    2.6900 C.1   1351  M021351     0.0576
     11  N9         3.1730    9.6510    1.4680 N.2   1351  M021351    -0.1914
     12  C8         4.1480    9.6600    0.5310 C.3   1351  M021351     0.2618
     13  N10       10.2640    7.0810    4.5470 N.3   1351  M021351    -0.1326
     14  N3         3.1690    9.7380    3.8940 N.2   1351  M021351    -0.1640
     15  C2         4.0580    9.8490    4.8830 C.3   1351  M021351     0.4005
     16  N1         5.3920    9.9180    4.8040 N.2   1351  M021351    -0.0336
@<TRIPOS>BOND
     1    12     9    1
     2    12    11    1
     3     9     8    2
     4    11    10    2
     5     3     1    1
     6     3     6    1
     7     8    10    1
     8     8     7    1
     9    10    14    2
    10     1     2    1
    11     6     7    1
    12     6     5    1
    13     7    16    2
    14    14    15    1
    15     2    13    1
    16     2     4    1
    17     5     4    1
    18    16    15    1
