@<TRIPOS>MOLECULE
2vnz_HEM_X_1.pdb
 43 50 0 0 0
SMALL
GASTEIGER

@<TRIPOS>ATOM
      1 FE         14.6650   54.4200   19.1660 Fe    251  HEM251      0.0000
      2  CHA       13.5480   57.4100   20.3930 C.2   251  HEM251      0.0000
      3  CHB       12.5770   54.7370   16.4720 C.2   251  HEM251      0.0000
      4  CHC       16.0360   51.6450   17.7470 C.2   251  HEM251      0.0000
      5  CHD       16.9900   54.2370   21.6910 C.2   251  HEM251      0.0000
      6  NA        13.3450   55.8110   18.5470 N.ar  251  HEM251      0.0000
      7  C1A       13.0110   56.9730   19.2060 C.ar  251  HEM251      0.0000
      8  C2A       11.9890   57.6540   18.4540 C.ar  251  HEM251      0.0000
      9  C3A       11.7140   56.9120   17.3760 C.ar  251  HEM251      0.0000
     10  C4A       12.5640   55.7460   17.4100 C.ar  251  HEM251      0.0000
     11  CMA       10.6850   57.2170   16.2600 C.3   251  HEM251      0.0000
     12  CAA       11.3370   58.9880   18.8580 C.3   251  HEM251      0.0000
     13  CBA       12.2130   60.1930   18.5340 C.3   251  HEM251      0.0000
     14  CGA       11.5170   61.4210   19.0630 C.2   251  HEM251      0.0000
     15  O1A       10.4120   61.7520   18.5540 O.co2 251  HEM251      0.0000
     16  O2A       12.0460   62.0780   19.9970 O.co2 251  HEM251      0.0000
     17  NB        14.4180   53.4250   17.3800 N.2   251  HEM251      0.0000
     18  C1B       13.3460   53.6050   16.5360 C.2   251  HEM251      0.0000
     19  C2B       13.1830   52.4110   15.7410 C.2   251  HEM251      0.0000
     20  C3B       14.1350   51.5480   16.1020 C.2   251  HEM251      0.0000
     21  C4B       14.9310   52.1730   17.1350 C.2   251  HEM251      0.0000
     22  CMB       12.0940   52.1910   14.6730 C.3   251  HEM251      0.0000
     23  CAB       14.3470   50.1220   15.5480 C.2   251  HEM251      0.0000
     24  CBB       14.4060   49.0910   16.4060 C.2   251  HEM251      0.0000
     25  NC        16.2200   53.1900   19.6330 N.ar  251  HEM251      0.0000
     26  C1C       16.6640   52.1340   18.8670 C.ar  251  HEM251      0.0000
     27  C2C       17.8590   51.5810   19.4630 C.ar  251  HEM251      0.0000
     28  C3C       18.1200   52.3030   20.5610 C.ar  251  HEM251      0.0000
     29  C4C       17.0990   53.3140   20.6840 C.ar  251  HEM251      0.0000
     30  CMC       18.6580   50.3970   18.8670 C.3   251  HEM251      0.0000
     31  CAC       19.2710   52.1350   21.5660 C.2   251  HEM251      0.0000
     32  CBC       19.5190   50.9290   22.0850 C.2   251  HEM251      0.0000
     33  ND        15.2380   55.6680   20.7320 N.2   251  HEM251      0.0000
     34  C1D       16.0800   55.2580   21.7570 C.2   251  HEM251      0.0000
     35  C2D       15.8420   56.0680   22.9210 C.2   251  HEM251      0.0000
     36  C3D       14.7820   57.0610   22.5280 C.2   251  HEM251      0.0000
     37  C4D       14.4680   56.7420   21.1600 C.2   251  HEM251      0.0000
     38  CMD       16.5240   55.9460   24.2880 C.3   251  HEM251      0.0000
     39  CAD       14.1620   58.1500   23.4100 C.3   251  HEM251      0.0000
     40  CBD       14.8190   59.4840   23.0940 C.3   251  HEM251      0.0000
     41  CGD       14.3250   60.5720   24.0210 C.2   251  HEM251      0.0000
     42  O1D       13.7410   60.2710   25.0960 O.co2 251  HEM251      0.0000
     43  O2D       14.5290   61.7580   23.6650 O.co2 251  HEM251      0.0000
@<TRIPOS>BOND
     1    22    19    1
     2    23    20    1
     3    23    24    2
     4    19    20    2
     5    19    18    1
     6    20    21    1
     7    11     9    1
     8     3    18    1
     9     3    10    2
    10    18    17    2
    11    21    17    1
    12    21     4    2
    13     9    10   ar
    14     9     8   ar
    15    17     1    1
    16    10     6   ar
    17     4    26    1
    18     8    12    1
    19     8     7   ar
    20    13    12    1
    21    13    14    1
    22     6     1    1
    23     6     7   ar
    24    15    14   ar
    25    30    27    1
    26    26    27   ar
    27    26    25   ar
    28    14    16   ar
    29     1    25    1
    30     1    33    1
    31     7     2    2
    32    27    28   ar
    33    25    29   ar
    34     2    37    1
    35    28    29   ar
    36    28    31    1
    37    29     5    1
    38    33    37    2
    39    33    34    1
    40    37    36    1
    41    31    32    2
    42     5    34    2
    43    34    35    1
    44    36    35    2
    45    36    39    1
    46    35    38    1
    47    40    39    1
    48    40    41    1
    49    43    41   ar
    50    41    42   ar
