@<TRIPOS>MOLECULE
2vo0_M03_A_1.pdb
 24 27 0 0 0
SMALL
GASTEIGER

@<TRIPOS>ATOM
      1  N1         6.8490    9.6780    3.1540 N.pl3 1354  M031354    -0.1932
      2  C2         7.5460    9.3150    1.9200 C.3   1354  M031354     0.2024
      3  C3         8.4710    8.1470    2.1620 C.3   1354  M031354     0.0564
      4  C4         9.5270    8.4550    3.2270 C.3   1354  M031354     0.0446
      5  C5        10.2950    7.1520    3.4950 C.3   1354  M031354     0.1135
      6  N6        11.2310    6.7980    2.3900 N.3   1354  M031354    -0.1310
      7  C7         8.7550    8.8600    4.4950 C.3   1354  M031354     0.0564
      8  C8         7.7950   10.0140    4.2370 C.3   1354  M031354     0.2024
      9  C9        10.4760    9.5920    2.7770 C.ar  1354  M031354    -0.0211
     10  C10       11.2720   10.2330    3.7250 C.ar  1354  M031354    -0.0034
     11  C11       12.1330   11.2490    3.3530 C.ar  1354  M031354     0.0111
     12  C12       12.2150   11.6490    2.0270 C.ar  1354  M031354     0.0577
     13 CL1        13.2480   12.9730    1.5830 Cl    1354  M031354    -0.0822
     14  C14       11.4470   11.0070    1.0680 C.ar  1354  M031354     0.0111
     15  C15       10.5930    9.9770    1.4360 C.ar  1354  M031354    -0.0034
     16  C16        5.4750    9.5270    3.2970 C.2   1354  M031354     0.3148
     17  N17        5.0070    9.6250    4.5530 N.2   1354  M031354    -0.0389
     18  C18        3.6920    9.4710    4.7420 C.3   1354  M031354     0.3998
     19  N19        2.7460    9.2140    3.8380 N.2   1354  M031354    -0.1687
     20  C20        3.2230    9.1500    2.5950 C.1   1354  M031354     0.0266
     21  N21        2.4810    8.9470    1.4610 N.2   1354  M031354    -0.1961
     22  C22        3.3010    8.9590    0.3880 C.2   1354  M031354     0.1063
     23  C23        4.5910    9.1690    0.8240 C.2   1354  M031354     0.0219
     24  C24        4.5570    9.3170    2.2250 C.3   1354  M031354     0.2132
@<TRIPOS>BOND
     1    22    23    2
     2    22    21    1
     3    23    24    1
     4    14    15   ar
     5    14    12   ar
     6    15     9   ar
     7    21    20    2
     8    13    12    1
     9     2     3    1
    10     2     1    1
    11    12    11   ar
    12     3     4    1
    13    24    20    1
    14    24    16    1
    15     6     5    1
    16    20    19    2
    17     9     4    1
    18     9    10   ar
    19     1    16    1
    20     1     8    1
    21     4     5    1
    22     4     7    1
    23    16    17    2
    24    11    10   ar
    25    19    18    1
    26     8     7    1
    27    17    18    1
