@<TRIPOS>MOLECULE
2vo2_HEM_X_1.pdb
 43 50 0 0 0
SMALL
GASTEIGER

@<TRIPOS>ATOM
      1 FE         15.0220   54.7760   19.2120 Fe    1250  HEM1250     0.0000
      2  CHA       13.6950   57.6170   20.6070 C.2   1250  HEM1250     0.0000
      3  CHB       12.7920   55.0920   16.5510 C.2   1250  HEM1250     0.0000
      4  CHC       16.2900   51.9930   17.8410 C.2   1250  HEM1250     0.0000
      5  CHD       17.1820   54.4130   21.9570 C.2   1250  HEM1250     0.0000
      6  NA        13.4880   56.0860   18.6830 N.ar  1250  HEM1250     0.0000
      7  C1A       13.1770   57.2470   19.3650 C.ar  1250  HEM1250     0.0000
      8  C2A       12.2380   57.9870   18.5370 C.ar  1250  HEM1250     0.0000
      9  C3A       11.9930   57.2630   17.4070 C.ar  1250  HEM1250     0.0000
     10  C4A       12.7730   56.0710   17.5010 C.ar  1250  HEM1250     0.0000
     11  CMA       11.0700   57.5450   16.1870 C.3   1250  HEM1250     0.0000
     12  CAA       11.6230   59.3300   18.9370 C.3   1250  HEM1250     0.0000
     13  CBA       12.4290   60.5660   18.5490 C.3   1250  HEM1250     0.0000
     14  CGA       11.6670   61.7020   19.2070 C.2   1250  HEM1250     0.0000
     15  O1A       10.5370   62.0060   18.7530 O.co2 1250  HEM1250     0.0000
     16  O2A       12.1690   62.2980   20.2160 O.co2 1250  HEM1250     0.0000
     17  NB        14.6320   53.7780   17.4950 N.2   1250  HEM1250     0.0000
     18  C1B       13.5930   53.9940   16.6000 C.2   1250  HEM1250     0.0000
     19  C2B       13.4650   52.8380   15.7480 C.2   1250  HEM1250     0.0000
     20  C3B       14.4160   51.9800   16.1050 C.2   1250  HEM1250     0.0000
     21  C4B       15.1910   52.5510   17.2080 C.2   1250  HEM1250     0.0000
     22  CMB       12.4170   52.6740   14.6480 C.3   1250  HEM1250     0.0000
     23  CAB       14.6440   50.5870   15.4850 C.2   1250  HEM1250     0.0000
     24  CBB       14.6120   49.5610   16.3260 C.2   1250  HEM1250     0.0000
     25  NC        16.4630   53.4350   19.8090 N.ar  1250  HEM1250     0.0000
     26  C1C       16.9000   52.4070   19.0030 C.ar  1250  HEM1250     0.0000
     27  C2C       18.0570   51.8030   19.6260 C.ar  1250  HEM1250     0.0000
     28  C3C       18.2970   52.4880   20.7840 C.ar  1250  HEM1250     0.0000
     29  C4C       17.2890   53.5130   20.9100 C.ar  1250  HEM1250     0.0000
     30  CMC       18.8510   50.6190   19.0060 C.3   1250  HEM1250     0.0000
     31  CAC       19.3880   52.2780   21.8600 C.2   1250  HEM1250     0.0000
     32  CBC       19.5650   51.0280   22.3270 C.2   1250  HEM1250     0.0000
     33  ND        15.4370   55.8810   20.9800 N.2   1250  HEM1250     0.0000
     34  C1D       16.2690   55.4560   22.0270 C.2   1250  HEM1250     0.0000
     35  C2D       16.0140   56.2810   23.1980 C.2   1250  HEM1250     0.0000
     36  C3D       14.9260   57.2810   22.7560 C.2   1250  HEM1250     0.0000
     37  C4D       14.6220   56.9540   21.3800 C.2   1250  HEM1250     0.0000
     38  CMD       16.7230   56.1860   24.5730 C.3   1250  HEM1250     0.0000
     39  CAD       14.2680   58.4130   23.5650 C.3   1250  HEM1250     0.0000
     40  CBD       15.0290   59.7210   23.3350 C.3   1250  HEM1250     0.0000
     41  CGD       14.4400   60.8550   24.1740 C.2   1250  HEM1250     0.0000
     42  O1D       14.5300   62.0370   23.7850 O.co2 1250  HEM1250     0.0000
     43  O2D       13.8570   60.6170   25.2490 O.co2 1250  HEM1250     0.0000
@<TRIPOS>BOND
     1    22    19    1
     2    23    20    1
     3    23    24    2
     4    19    20    2
     5    19    18    1
     6    20    21    1
     7    11     9    1
     8     3    18    1
     9     3    10    2
    10    18    17    2
    11    21    17    1
    12    21     4    2
    13     9    10   ar
    14     9     8   ar
    15    17     1    1
    16    10     6   ar
    17     4    26    1
    18     8    12    1
    19     8     7   ar
    20    13    12    1
    21    13    14    1
    22     6     1    1
    23     6     7   ar
    24    15    14   ar
    25    26    27   ar
    26    26    25   ar
    27    30    27    1
    28    14    16   ar
    29     1    25    1
    30     1    33    1
    31     7     2    2
    32    27    28   ar
    33    25    29   ar
    34     2    37    1
    35    28    29   ar
    36    28    31    1
    37    29     5    1
    38    33    37    2
    39    33    34    1
    40    37    36    1
    41    31    32    2
    42     5    34    2
    43    34    35    1
    44    36    35    2
    45    36    39    1
    46    35    38    1
    47    40    39    1
    48    40    41    1
    49    42    41   ar
    50    41    43   ar
