@<TRIPOS>MOLECULE
2vo3_M04_A_1.pdb
 25 28 0 0 0
SMALL
GASTEIGER

@<TRIPOS>ATOM
      1  N1         7.3830    9.8300    3.2380 N.pl3 1352  M041352    -0.1933
      2  C2         8.0050    8.9220    2.2590 C.3   1352  M041352     0.2021
      3  C3         9.4630    9.2770    2.0000 C.3   1352  M041352     0.0527
      4  C5        10.2900    7.9130    3.9670 C.3   1352  M041352     0.1098
      5  N6        10.9670    6.8840    3.1310 N.3   1352  M041352    -0.1314
      6  C7         9.6010   10.2820    4.2350 C.3   1352  M041352     0.0527
      7  C8         8.1420    9.9290    4.4960 C.3   1352  M041352     0.2021
      8  C9        12.0180   10.8310    2.1040 C.ar  1352  M041352    -0.0221
      9  C10       12.2160   10.5790    0.7550 C.ar  1352  M041352    -0.0034
     10  C11       12.5030   11.6110   -0.1150 C.ar  1352  M041352     0.0111
     11  C12       12.6020   12.9060    0.3540 C.ar  1352  M041352     0.0577
     12 CL1        13.0160   14.1930   -0.7340 Cl    1352  M041352    -0.0822
     13  C14       12.4260   13.1620    1.7020 C.ar  1352  M041352     0.0111
     14  C15       12.1380   12.1300    2.5700 C.ar  1352  M041352    -0.0034
     15  C16        5.9560    9.7860    3.4080 C.2   1352  M041352     0.3148
     16  N17        5.4900    9.8580    4.6680 N.2   1352  M041352    -0.0389
     17  C13       11.7570    9.6980    3.0590 C.3   1352  M041352     0.0280
     18  C18        4.1660    9.8270    4.8510 C.3   1352  M041352     0.3998
     19  N19        3.2010    9.7210    3.9360 N.2   1352  M041352    -0.1687
     20  C20        3.6990    9.6530    2.6940 C.1   1352  M041352     0.0266
     21  N21        2.9710    9.5290    1.5470 N.2   1352  M041352    -0.1961
     22  C22        3.8040    9.5030    0.4780 C.2   1352  M041352     0.1063
     23  C23        5.0960    9.5980    0.9300 C.2   1352  M041352     0.0219
     24  C24        5.0380    9.6980    2.3530 C.3   1352  M041352     0.2132
     25  C4        10.2920    9.2950    3.2860 C.3   1352  M041352     0.0297
@<TRIPOS>BOND
     1    12    11    1
     2    10    11   ar
     3    10     9   ar
     4    11    13   ar
     5    22    23    2
     6    22    21    1
     7     9     8   ar
     8    23    24    1
     9    21    20    2
    10    13    14   ar
    11     3     2    1
    12     3    25    1
    13     8    14   ar
    14     8    17    1
    15     2     1    1
    16    24    20    1
    17    24    15    1
    18    20    19    2
    19    17    25    1
    20     5     4    1
    21     1    15    1
    22     1     7    1
    23    25     4    1
    24    25     6    1
    25    15    16    2
    26    19    18    1
    27     6     7    1
    28    16    18    1
