@<TRIPOS>MOLECULE
2vo4_4NM_A_1.pdb
 11 11 0 0 0
SMALL
GASTEIGER

@<TRIPOS>ATOM
      1  CAA       33.4910  -45.4870  -10.7280 C.3   1221  4NM1221     0.0949
      2  SAH       34.9880  -46.4940  -10.6520 S.3   1221  4NM1221    -0.0770
      3  CAD       31.4650  -46.4090   -9.6270 C.ar  1221  4NM1221    -0.0017
      4  CAF       30.7030  -46.7270   -8.5070 C.ar  1221  4NM1221     0.0238
      5  CAJ       31.1480  -46.4180   -7.2150 C.ar  1221  4NM1221     0.1429
      6  NAK       30.2920  -46.7280   -6.1400 N.pl3 1221  4NM1221     0.0577
      7  OAC       30.4410  -46.2410   -5.0380 O.2   1221  4NM1221    -0.1261
      8  OAB       29.3180  -47.4340   -6.3260 O.2   1221  4NM1221    -0.1261
      9  CAG       32.3920  -45.7910   -7.0430 C.ar  1221  4NM1221     0.0238
     10  C1        32.6970  -45.7950   -9.4700 C.ar  1221  4NM1221    -0.0104
     11  CAE       33.1610  -45.4960   -8.1730 C.ar  1221  4NM1221    -0.0017
@<TRIPOS>BOND
     1     1     2    1
     2     1    10    1
     3     3    10   ar
     4     3     4   ar
     5    10    11   ar
     6     4     5   ar
     7    11     9   ar
     8     5     9   ar
     9     5     6    1
    10     8     6    2
    11     6     7    2
