@<TRIPOS>MOLECULE
2vo4_GTB_A_1.pdb
 30 30 0 0 0
SMALL
GASTEIGER

@<TRIPOS>ATOM
      1  N1        27.9290  -28.4680   -3.0660 N.3   1220  GTB1220    -0.1208
      2  CA1       28.8790  -29.5470   -3.3240 C.3   1220  GTB1220     0.1948
      3  C1        28.5770  -30.2550   -4.6390 C.2   1220  GTB1220     0.3819
      4  O11       27.4090  -30.2950   -5.1080 O.co2 1220  GTB1220    -0.2441
      5  O12       29.5180  -30.7940   -5.2440 O.co2 1220  GTB1220    -0.2441
      6  CB1       28.8160  -30.5090   -2.1400 C.3   1220  GTB1220     0.0402
      7  CG1       29.8820  -31.6010   -2.2160 C.3   1220  GTB1220     0.0889
      8  CD1       30.1840  -32.1990   -0.8490 C.2   1220  GTB1220     0.2418
      9  OE1       29.4420  -31.9950    0.0960 O.2   1220  GTB1220    -0.2733
     10  N2        31.2910  -32.9470   -0.7280 N.am  1220  GTB1220    -0.1969
     11  CA2       31.6850  -33.5460    0.5810 C.3   1220  GTB1220     0.1834
     12  C2        33.1100  -33.1360    0.8580 C.2   1220  GTB1220     0.2626
     13  O2        33.9320  -33.2060   -0.0350 O.2   1220  GTB1220    -0.2714
     14  CB2       31.6440  -35.0840    0.5290 C.3   1220  GTB1220     0.0889
     15  SG2       30.0330  -35.8100    0.2920 S.3   1220  GTB1220    -0.1331
     16  N3        33.4470  -32.6870    2.0650 N.am  1220  GTB1220    -0.1917
     17  CA3       34.8130  -32.2880    2.4410 C.3   1220  GTB1220     0.2285
     18  C3        34.9080  -32.1880    3.9270 C.2   1220  GTB1220     0.3865
     19  O31       33.9200  -32.5760    4.5900 O.co2 1220  GTB1220    -0.2437
     20  O32       35.9400  -31.7050    4.4150 O.co2 1220  GTB1220    -0.2437
     21  C'        29.0630  -35.2880    1.6690 C.3   1220  GTB1220     0.0838
     22  C1'       29.6510  -35.7590    2.9700 C.ar  1220  GTB1220    -0.0112
     23  C2'       30.2050  -34.8290    3.8650 C.ar  1220  GTB1220    -0.0017
     24  C3'       30.7250  -35.2680    5.0730 C.ar  1220  GTB1220     0.0238
     25  C4'       30.7270  -36.6320    5.3630 C.ar  1220  GTB1220     0.1429
     26  N41       31.2700  -37.0620    6.5910 N.pl3 1220  GTB1220     0.0577
     27  O41       31.5930  -36.2410    7.4380 O.2   1220  GTB1220    -0.1261
     28  O42       31.3960  -38.2530    6.8180 O.2   1220  GTB1220    -0.1261
     29  C5'       30.1980  -37.5700    4.4770 C.ar  1220  GTB1220     0.0238
     30  C6'       29.6380  -37.1220    3.2730 C.ar  1220  GTB1220    -0.0017
@<TRIPOS>BOND
     1     5     3   ar
     2     4     3   ar
     3     3     2    1
     4     2     1    1
     5     2     6    1
     6     7     6    1
     7     7     8    1
     8     8    10   am
     9     8     9    2
    10    10    11    1
    11    13    12    2
    12    15    14    1
    13    15    21    1
    14    14    11    1
    15    11    12    1
    16    12    16   am
    17    21    22    1
    18    16    17    1
    19    17    18    1
    20    22    30   ar
    21    22    23   ar
    22    30    29   ar
    23    23    24   ar
    24    18    20   ar
    25    18    19   ar
    26    29    25   ar
    27    24    25   ar
    28    25    26    1
    29    26    28    2
    30    26    27    2
