@<TRIPOS>MOLECULE
2vo5_VBZ_A_1.pdb
 20 22 0 0 0
SMALL
GASTEIGER

@<TRIPOS>ATOM
      1  O2        28.0980   44.6850   -0.0200 O.3   1865  VBZ1865    -0.2189
      2  C2        27.5320   45.9020   -0.4860 C.3   1865  VBZ1865     0.1991
      3  C3        28.0950   47.0940    0.2520 C.3   1865  VBZ1865     0.2125
      4  O3        29.3600   46.7230    0.7310 O.3   1865  VBZ1865    -0.2177
      5  C4        28.1710   48.2240   -0.7810 C.3   1865  VBZ1865     0.1739
      6  O4        28.4180   49.4660   -0.0720 O.3   1865  VBZ1865    -0.2214
      7  C5        26.7880   48.3040   -1.4660 C.3   1865  VBZ1865     0.0664
      8  C6        26.4000   49.6390   -2.1070 C.3   1865  VBZ1865     0.1847
      9  O6        27.1900   49.8270   -3.2700 O.3   1865  VBZ1865    -0.2203
     10  C7        26.6230   47.1130   -2.4160 C.3   1865  VBZ1865     0.0238
     11  C8        29.3090   47.9170   -1.7690 C.3   1865  VBZ1865     0.1058
     12  N1        29.0330   46.6270   -2.4470 N.3   1865  VBZ1865    -0.2657
     13  C1        27.6950   46.1220   -2.0130 C.3   1865  VBZ1865     0.0912
     14  C9        29.0480   46.7000   -3.9540 C.3   1865  VBZ1865     0.0992
     15  C10       30.2710   47.3530   -4.5820 C.ar  1865  VBZ1865    -0.0061
     16  C11       31.5620   46.8800   -4.3340 C.ar  1865  VBZ1865    -0.0029
     17  C12       32.6840   47.4960   -4.9300 C.ar  1865  VBZ1865    -0.0003
     18  C15       30.1230   48.4760   -5.4090 C.ar  1865  VBZ1865    -0.0029
     19  C14       31.2340   49.1100   -5.9950 C.ar  1865  VBZ1865    -0.0003
     20  C13       32.5200   48.6130   -5.7630 C.ar  1865  VBZ1865    -0.0000
@<TRIPOS>BOND
     1    19    20   ar
     2    19    18   ar
     3    20    17   ar
     4    18    15   ar
     5    17    16   ar
     6    15    16   ar
     7    15    14    1
     8    14    12    1
     9     9     8    1
    10    12    13    1
    11    12    11    1
    12    10    13    1
    13    10     7    1
    14     8     7    1
    15    13     2    1
    16    11     5    1
    17     7     5    1
    18     5     6    1
    19     5     3    1
    20     2     1    1
    21     2     3    1
    22     3     4    1
