@<TRIPOS>MOLECULE
2vo6_M05_A_1.pdb
 24 27 0 0 0
SMALL
GASTEIGER

@<TRIPOS>ATOM
      1  N1         7.3220    9.6530    3.1190 N.pl3 1352  M051352    -0.1932
      2  C8         8.0460    9.6900    4.4010 C.3   1352  M051352     0.2035
      3  C4        11.6270    8.8750    3.1240 C.3   1352  M051352     0.0442
      4  C5        10.1150    8.7130    3.3270 C.3   1352  M051352     0.0890
      5  N6         9.9300    7.3980    3.9860 N.3   1352  M051352    -0.1337
      6  C2         7.8470    8.6670    2.1620 C.3   1352  M051352     0.2035
      7  C9        12.0530   10.0110    2.2430 C.ar  1352  M051352    -0.0207
      8  C10       12.3860   11.2380    2.8080 C.ar  1352  M051352    -0.0034
      9  C11       12.7760   12.2880    2.0150 C.ar  1352  M051352     0.0111
     10  C12       12.8160   12.1400    0.6420 C.ar  1352  M051352     0.0577
     11 CL1        13.3150   13.4720   -0.3480 Cl    1352  M051352    -0.0822
     12  C14       12.4800   10.9250    0.0610 C.ar  1352  M051352     0.0111
     13  C15       12.0960    9.8610    0.8600 C.ar  1352  M051352    -0.0034
     14  C16        5.9140    9.7210    3.2330 C.2   1352  M051352     0.3148
     15  N17        5.4260    9.8920    4.4800 N.2   1352  M051352    -0.0389
     16  C18        4.1000    9.9300    4.6340 C.3   1352  M051352     0.3998
     17  N19        3.1530    9.9190    3.6990 N.2   1352  M051352    -0.1687
     18  C20        3.6560    9.7930    2.4730 C.1   1352  M051352     0.0266
     19  N21        2.9360    9.7380    1.3180 N.2   1352  M051352    -0.1961
     20  C22        3.7890    9.6400    0.2540 C.2   1352  M051352     0.1063
     21  C23        5.0950    9.6150    0.7370 C.2   1352  M051352     0.0219
     22  C3         9.5460    9.8300    4.2050 C.3   1352  M051352     0.0689
     23  C17        9.3570    8.7790    1.9980 C.3   1352  M051352     0.0689
     24  C24        5.0160    9.7160    2.1540 C.3   1352  M051352     0.2132
@<TRIPOS>BOND
     1    11    10    1
     2    12    10   ar
     3    12    13   ar
     4    20    21    2
     5    20    19    1
     6    10     9   ar
     7    21    24    1
     8    13     7   ar
     9    19    18    2
    10    23     6    1
    11    23     4    1
    12     9     8   ar
    13    24    18    1
    14    24    14    1
    15     6     1    1
    16     7     8   ar
    17     7     3    1
    18    18    17    2
    19     1    14    1
    20     1     2    1
    21     3     4    1
    22    14    15    2
    23     4     5    1
    24     4    22    1
    25    17    16    1
    26    22     2    1
    27    15    16    1
