@<TRIPOS>MOLECULE
2vo7_M05_A_1.pdb
 24 27 0 0 0
SMALL
GASTEIGER

@<TRIPOS>ATOM
      1  N1        -6.8090   -8.3940   -8.2000 N.pl3 1351  M051351    -0.1932
      2  C8        -8.0300   -8.8050   -7.4940 C.3   1351  M051351     0.2035
      3  C4       -10.2160   -7.1850   -9.1930 C.3   1351  M051351     0.0442
      4  C5        -9.3830   -8.4080   -9.6390 C.3   1351  M051351     0.0890
      5  N6       -10.0730   -9.2030  -10.7130 N.3   1351  M051351    -0.1337
      6  C2        -7.1240   -7.3290   -9.1570 C.3   1351  M051351     0.2035
      7  C9       -11.5230   -7.4600   -8.4960 C.ar  1351  M051351    -0.0207
      8  C10      -12.5540   -8.1380   -9.1480 C.ar  1351  M051351    -0.0034
      9  C11      -13.7510   -8.3720   -8.5030 C.ar  1351  M051351     0.0111
     10  C12      -13.9420   -7.9130   -7.2090 C.ar  1351  M051351     0.0577
     11 CL1       -15.4510   -8.1970   -6.4020 Cl    1351  M051351    -0.0822
     12  C14      -12.9280   -7.2230   -6.5610 C.ar  1351  M051351     0.0111
     13  C15      -11.7290   -6.9940   -7.2010 C.ar  1351  M051351    -0.0034
     14  C16       -5.6360   -9.1770   -8.3300 C.2   1351  M051351     0.3148
     15  N17       -5.7040  -10.4630   -7.9200 N.2   1351  M051351    -0.0389
     16  C18       -4.6020  -11.2180   -8.0320 C.3   1351  M051351     0.3998
     17  N19       -3.3900  -10.8700   -8.4690 N.2   1351  M051351    -0.1687
     18  C20       -3.3460   -9.5690   -8.8440 C.1   1351  M051351     0.0266
     19  N21       -2.2580   -8.8920   -9.3220 N.2   1351  M051351    -0.1961
     20  C22       -2.6080   -7.6060   -9.5710 C.2   1351  M051351     0.1063
     21  C23       -3.9280   -7.4410   -9.2500 C.2   1351  M051351     0.0219
     22  C3        -9.0580   -9.3560   -8.4710 C.3   1351  M051351     0.0689
     23  C17       -8.0710   -7.8590  -10.2180 C.3   1351  M051351     0.0689
     24  C24       -4.4100   -8.6710   -8.7890 C.3   1351  M051351     0.2132
@<TRIPOS>BOND
     1     5     4    1
     2    23     4    1
     3    23     6    1
     4     4     3    1
     5     4    22    1
     6    20    19    1
     7    20    21    2
     8    19    18    2
     9    21    24    1
    10     3     7    1
    11     6     1    1
    12     8     9   ar
    13     8     7   ar
    14    18    24    1
    15    18    17    2
    16    24    14    1
    17     9    10   ar
    18     7    13   ar
    19    22     2    1
    20    17    16    1
    21    14     1    1
    22    14    15    2
    23     1     2    1
    24    16    15    1
    25    10    12   ar
    26    10    11    1
    27    13    12   ar
