@<TRIPOS>MOLECULE
2voj_NAD_A_1.pdb
 44 48 0 0 0
SMALL
GASTEIGER

@<TRIPOS>ATOM
      1  PA        30.1540  -31.6180   10.2910 P.3   500  NAD500      0.2189
      2  O1A       29.2510  -30.6550   10.9280 O.3   500  NAD500     -0.4371
      3  O2A       31.5620  -31.6610   10.7830 O.2   500  NAD500     -0.5170
      4  O5B       30.1800  -31.2180    8.7480 O.3   500  NAD500     -0.3112
      5  C5B       29.0160  -31.2910    7.9840 C.3   500  NAD500      0.1813
      6  C4B       29.2780  -30.3660    6.8420 C.3   500  NAD500      0.1821
      7  O4B       28.1070  -30.3340    6.0870 O.3   500  NAD500     -0.3135
      8  C3B       29.5480  -28.9420    7.3410 C.3   500  NAD500      0.2184
      9  O3B       30.8020  -28.4840    6.8970 O.3   500  NAD500     -0.2174
     10  C2B       28.4180  -28.1560    6.7050 C.3   500  NAD500      0.2570
     11  O2B       28.7940  -26.9270    6.1650 O.3   500  NAD500     -0.2130
     12  C1B       28.0870  -29.0490    5.5410 C.3   500  NAD500      0.3186
     13  N9A       26.8120  -28.6580    4.9710 N.pl3 500  NAD500     -0.1439
     14  C8A       25.6710  -28.2950    5.6530 C.3   500  NAD500      0.3377
     15  N7A       24.7350  -27.9920    4.7240 N.2   500  NAD500     -0.2095
     16  C5A       25.2740  -28.1440    3.4850 C.2   500  NAD500      0.2526
     17  C6A       24.7640  -27.9620    2.2140 C.2   500  NAD500      0.4393
     18  N6A       23.4400  -27.8340    2.0430 N.pl3 500  NAD500      0.2180
     19  N1A       25.5630  -28.2240    1.1280 N.2   500  NAD500      0.0021
     20  C2A       26.8690  -28.6470    1.2790 C.3   500  NAD500      0.5254
     21  N3A       27.3720  -28.7800    2.5500 N.2   500  NAD500     -0.0055
     22  C4A       26.5830  -28.5490    3.6290 C.2   500  NAD500      0.3518
     23  O3        29.4110  -33.0300   10.3850 O.3   500  NAD500     -0.2703
     24  PN        30.0710  -34.5120   10.3500 P.3   500  NAD500      0.2189
     25  O1N       30.4430  -34.9020   11.7230 O.3   500  NAD500     -0.4371
     26  O2N       31.0140  -34.5620    9.2090 O.2   500  NAD500     -0.5170
     27  O5D       28.7240  -35.2940    9.9790 O.3   500  NAD500     -0.3112
     28  C5D       28.2370  -35.4160    8.6520 C.3   500  NAD500      0.1813
     29  C4D       27.0950  -36.4410    8.6910 C.3   500  NAD500      0.1799
     30  O4D       27.6290  -37.7370    8.8980 O.3   500  NAD500     -0.3327
     31  C3D       26.1350  -36.2190    9.8630 C.3   500  NAD500      0.2158
     32  O3D       24.8190  -36.4870    9.4740 O.3   500  NAD500     -0.2175
     33  C2D       26.4880  -37.3190   10.8110 C.3   500  NAD500      0.2309
     34  O2D       25.3840  -37.6570   11.6110 O.3   500  NAD500     -0.2158
     35  C1D       26.7940  -38.4020    9.7970 C.3   500  NAD500      0.2263
     36  N1N       27.4470  -39.5220   10.4410 N.pl3 500  NAD500     -0.2787
     37  C2N       26.9030  -40.7740   10.3070 C.3   500  NAD500      0.1244
     38  C3N       27.5470  -41.8580   10.9210 C.2   500  NAD500      0.0544
     39  C7N       26.8870  -43.2020   11.0420 C.2   500  NAD500      0.2818
     40  O7N       27.5130  -44.3560   10.5830 O.2   500  NAD500     -0.2670
     41  N7N       25.6950  -43.2790   11.6340 N.am  500  NAD500     -0.0839
     42  C4N       28.6920  -41.6290   11.6660 C.2   500  NAD500      0.0033
     43  C5N       29.2020  -40.3430   11.7950 C.2   500  NAD500      0.0157
     44  C6N       28.5730  -39.2860   11.1600 C.2   500  NAD500      0.0633
@<TRIPOS>BOND
     1    19    20    1
     2    19    17    2
     3    20    21    1
     4    18    17    1
     5    17    16    1
     6    21    22    2
     7    16    22    1
     8    16    15    2
     9    22    13    1
    10    15    14    1
    11    13    12    1
    12    13    14    1
    13    12     7    1
    14    12    10    1
    15     7     6    1
    16    11    10    1
    17    10     8    1
    18     6     8    1
    19     6     5    1
    20     9     8    1
    21     5     4    1
    22    28    29    1
    23    28    27    1
    24    29    30    1
    25    29    31    1
    26     4     1    1
    27    30    35    1
    28    26    24    2
    29    32    31    1
    30    35    36    1
    31    35    33    1
    32    31    33    1
    33    27    24    1
    34     1    23    1
    35     1     3    2
    36     1     2    1
    37    37    36    1
    38    37    38    1
    39    24    23    1
    40    24    25    1
    41    36    44    1
    42    40    39    2
    43    33    34    1
    44    38    39    1
    45    38    42    2
    46    39    41   am
    47    44    43    2
    48    42    43    1
