@<TRIPOS>MOLECULE
2vol_MAN_A_1.pdb
 11 11 0 0 0
SMALL
GASTEIGER

@<TRIPOS>ATOM
      1  C1        19.9100    0.9030  -27.8210 C.3   1446  MAN1446     0.1777
      2  C2        21.4210    1.0560  -27.8710 C.3   1446  MAN1446     0.2141
      3  C3        21.8490    1.8740  -26.6420 C.3   1446  MAN1446     0.2173
      4  C4        21.1340    3.2090  -26.5520 C.3   1446  MAN1446     0.2142
      5  C5        19.6610    3.0330  -26.7220 C.3   1446  MAN1446     0.1810
      6  C6        18.9770    4.3370  -26.9950 C.3   1446  MAN1446     0.2141
      7  O2        21.8070    1.7100  -29.0800 O.3   1446  MAN1446    -0.2176
      8  O3        23.2220    2.2370  -26.6890 O.3   1446  MAN1446    -0.2175
      9  O4        21.4150    3.7120  -25.2640 O.3   1446  MAN1446    -0.2176
     10  O5        19.3010    2.1780  -27.8010 O.3   1446  MAN1446    -0.3481
     11  O6        17.6490    3.9480  -26.6420 O.3   1446  MAN1446    -0.2176
@<TRIPOS>BOND
     1     7     2    1
     2     2     1    1
     3     2     3    1
     4     1    10    1
     5    10     5    1
     6     6     5    1
     7     6    11    1
     8     5     4    1
     9     8     3    1
    10     3     4    1
    11     4     9    1
