@<TRIPOS>MOLECULE
2vol_GAL_A_1.pdb
 11 11 0 0 0
SMALL
GASTEIGER

@<TRIPOS>ATOM
      1  C1        12.6830    7.4770  -19.7750 C.3   1450  GAL1450     0.1777
      2  C2        13.0980    7.7780  -18.3020 C.3   1450  GAL1450     0.2141
      3  C3        11.8570    8.0680  -17.4430 C.3   1450  GAL1450     0.2173
      4  C4        10.8640    9.0330  -18.1330 C.3   1450  GAL1450     0.2142
      5  C5        10.5380    8.4920  -19.5380 C.3   1450  GAL1450     0.1810
      6  C6         9.4790    9.2990  -20.3090 C.3   1450  GAL1450     0.2141
      7  O2        13.9990    6.8570  -17.6530 O.3   1450  GAL1450    -0.2176
      8  O3        12.3240    8.5180  -16.2080 O.3   1450  GAL1450    -0.2175
      9  O4        11.4290   10.3240  -18.2880 O.3   1450  GAL1450    -0.2176
     10  O5        11.7500    8.4310  -20.2910 O.3   1450  GAL1450    -0.3481
     11  O6         9.2830    8.7200  -21.5990 O.3   1450  GAL1450    -0.2176
@<TRIPOS>BOND
     1    11     6    1
     2     6     5    1
     3    10     1    1
     4    10     5    1
     5     1     2    1
     6     5     4    1
     7     2     7    1
     8     2     3    1
     9     9     4    1
    10     4     3    1
    11     3     8    1
