@<TRIPOS>MOLECULE
2vor_ACP_A_1.pdb
 31 33 0 0 0
SMALL
GASTEIGER

@<TRIPOS>ATOM
      1  PG         4.2320  -33.6970   13.3650 P.3   1490  ACP1490     0.1295
      2  O1G        5.4020  -33.7240   14.7450 O.3   1490  ACP1490    -0.3567
      3  O2G        3.8350  -35.0310   12.6840 O.3   1490  ACP1490    -0.3567
      4  O3G        4.7850  -32.6730   12.4170 O.2   1490  ACP1490    -0.4595
      5  PB         2.7090  -32.4850   15.6810 P.3   1490  ACP1490     0.3815
      6  O1B        1.3300  -32.6480   16.1790 O.2   1490  ACP1490    -0.2547
      7  O2B        3.6450  -33.2560   16.5260 O.3   1490  ACP1490    -0.1391
      8  C3B        2.5870  -33.4580   14.1160 C.3   1490  ACP1490     0.1768
      9  PA         4.3730  -30.3050   15.8770 P.3   1490  ACP1490     0.2209
     10  O1A        5.4960  -30.8060   14.8980 O.2   1490  ACP1490    -0.5170
     11  O2A        4.6270  -29.1110   16.7680 O.3   1490  ACP1490    -0.4371
     12  O3A        2.8970  -30.9410   15.4680 O.3   1490  ACP1490    -0.2483
     13  O5'        3.9990  -29.1170   14.6810 O.3   1490  ACP1490    -0.3111
     14  C5'        3.7680  -29.3910   13.2180 C.3   1490  ACP1490     0.1813
     15  C4'        3.4080  -28.1360   12.4460 C.3   1490  ACP1490     0.1821
     16  O4'        2.1190  -27.7830   12.9990 O.3   1490  ACP1490    -0.3135
     17  C3'        4.2960  -26.9750   12.8880 C.3   1490  ACP1490     0.2184
     18  O3'        5.4100  -26.7890   12.0280 O.3   1490  ACP1490    -0.2174
     19  C2'        3.3950  -25.7470   12.8220 C.3   1490  ACP1490     0.2570
     20  O2'        3.2550  -25.2740   11.4790 O.3   1490  ACP1490    -0.2130
     21  C1'        2.0520  -26.3230   13.1670 C.3   1490  ACP1490     0.3186
     22  N9         1.5700  -26.2230   14.5850 N.pl3 1490  ACP1490    -0.1439
     23  C8         2.2120  -26.5850   15.7400 C.3   1490  ACP1490     0.3377
     24  N7         1.4040  -26.3850   16.7960 N.2   1490  ACP1490    -0.2095
     25  C5         0.2640  -25.8620   16.3040 C.2   1490  ACP1490     0.2526
     26  C6        -0.9260  -25.4660   16.8830 C.2   1490  ACP1490     0.4393
     27  N6        -1.1050  -25.5360   18.2020 N.pl3 1490  ACP1490     0.2180
     28  N1        -1.9000  -25.0370   16.0670 N.2   1490  ACP1490     0.0021
     29  C2        -1.7510  -24.9250   14.7600 C.3   1490  ACP1490     0.5254
     30  N3        -0.6300  -25.2910   14.1630 N.2   1490  ACP1490    -0.0055
     31  C4         0.3580  -25.7800   14.9130 C.2   1490  ACP1490     0.3518
@<TRIPOS>BOND
     1    20    19    1
     2    18    17    1
     3     4     1    2
     4    15    17    1
     5    15    16    1
     6    15    14    1
     7     3     1    1
     8    19    17    1
     9    19    21    1
    10    16    21    1
    11    21    22    1
    12    14    13    1
    13     1     8    1
    14     1     2    1
    15     8     5    1
    16    30    29    1
    17    30    31    2
    18    22    31    1
    19    22    23    1
    20    13     9    1
    21    29    28    1
    22    10     9    2
    23    31    25    1
    24    12     5    1
    25    12     9    1
    26     5     6    2
    27     5     7    1
    28    23    24    1
    29     9    11    1
    30    28    26    2
    31    25    24    2
    32    25    26    1
    33    26    27    1
