@<TRIPOS>MOLECULE
2vos_ADP_A_1.pdb
 27 29 0 0 0
SMALL
GASTEIGER

@<TRIPOS>ATOM
      1  PB        25.4340   12.2500   60.3570 P.3   1490  ADP1490     0.5373
      2  O1B       24.3830   11.4320   61.0610 O.3   1490  ADP1490    -0.1143
      3  O2B       25.4260   13.6960   60.7680 O.3   1490  ADP1490    -0.1143
      4  O3B       26.8080   11.6550   60.2920 O.2   1490  ADP1490    -0.2221
      5  PA        23.6540   12.2380   57.9860 P.3   1490  ADP1490     0.2231
      6  O1A       22.5960   12.8860   58.8670 O.3   1490  ADP1490    -0.4370
      7  O2A       23.4160   11.0380   57.0840 O.2   1490  ADP1490    -0.5169
      8  O3A       25.0920   12.1980   58.7680 O.3   1490  ADP1490    -0.2261
      9  O5'       23.9890   13.4230   56.9260 O.3   1490  ADP1490    -0.3111
     10  C5'       24.1640   14.8060   57.2670 C.3   1490  ADP1490     0.1813
     11  C4'       24.5320   15.5150   55.9450 C.3   1490  ADP1490     0.1821
     12  O4'       25.8260   15.0270   55.4950 O.3   1490  ADP1490    -0.3135
     13  C3'       23.6330   15.1560   54.7640 C.3   1490  ADP1490     0.2184
     14  O3'       22.6540   16.1520   54.5480 O.3   1490  ADP1490    -0.2174
     15  C2'       24.4670   15.1540   53.5140 C.3   1490  ADP1490     0.2570
     16  O2'       24.6750   16.5600   53.1430 O.3   1490  ADP1490    -0.2130
     17  C1'       25.8210   14.7900   54.0650 C.3   1490  ADP1490     0.3186
     18  N9        26.2310   13.3610   53.9490 N.pl3 1490  ADP1490    -0.1439
     19  C8        25.6090   12.2020   54.3510 C.3   1490  ADP1490     0.3377
     20  N7        26.4120   11.1300   54.0830 N.2   1490  ADP1490    -0.2095
     21  C5        27.5940   11.6280   53.6140 C.2   1490  ADP1490     0.2526
     22  C6        28.8830   11.0800   53.1770 C.2   1490  ADP1490     0.4393
     23  N6        29.1070    9.7490   53.1860 N.pl3 1490  ADP1490     0.2180
     24  N1        29.7840   11.9590   52.7230 N.2   1490  ADP1490     0.0021
     25  C2        29.6150   13.3030   52.6250 C.3   1490  ADP1490     0.5254
     26  N3        28.4660   13.9010   53.0360 N.2   1490  ADP1490    -0.0055
     27  C4        27.4620   13.0900   53.5060 C.2   1490  ADP1490     0.3518
@<TRIPOS>BOND
     1    25    24    1
     2    25    26    1
     3    24    22    2
     4    26    27    2
     5    16    15    1
     6    22    23    1
     7    22    21    1
     8    27    21    1
     9    27    18    1
    10    15    17    1
    11    15    13    1
    12    21    20    2
    13    18    17    1
    14    18    19    1
    15    17    12    1
    16    20    19    1
    17    14    13    1
    18    13    11    1
    19    12    11    1
    20    11    10    1
    21     9    10    1
    22     9     5    1
    23     7     5    2
    24     5     8    1
    25     5     6    1
    26     8     1    1
    27     4     1    2
    28     1     3    1
    29     1     2    1
