@<TRIPOS>MOLECULE
2vot_NHV_A_1.pdb
 22 24 0 0 0
SMALL
GASTEIGER

@<TRIPOS>ATOM
      1  O6B       27.5020   50.0970   -3.5970 O.3   1865  NHV1865    -0.2185
      2  C6B       26.4220   49.7350   -2.7520 C.3   1865  NHV1865     0.2044
      3  C5B       26.7500   48.4360   -1.9860 C.3   1865  NHV1865     0.1410
      4  C4B       27.8340   48.6540   -0.8990 C.3   1865  NHV1865     0.2057
      5  O4B       27.4810   49.7890   -0.1050 O.3   1865  NHV1865    -0.2184
      6  C3B       28.0520   47.4130    0.0070 C.3   1865  NHV1865     0.2222
      7  O3B       29.4270   47.3370    0.4010 O.3   1865  NHV1865    -0.2171
      8  O2B       28.2260   44.8710   -0.2940 O.3   1865  NHV1865    -0.2111
      9  N1B       27.3290   47.3400   -2.7950 N.pl3 1865  NHV1865    -0.2751
     10  C8B       27.6530   47.2770   -4.1000 C.3   1865  NHV1865     0.1495
     11  C7B       28.3390   46.0860   -4.2550 C.2   1865  NHV1865     0.1297
     12  N2B       28.3380   45.4180   -3.0680 N.2   1865  NHV1865    -0.3939
     13  C1B       27.7570   46.2560   -2.1820 C.2   1865  NHV1865     0.1930
     14  C7        28.8700   45.5700   -5.5530 C.3   1865  NHV1865     0.1679
     15  N1        30.3190   45.7090   -5.6290 N.pl3 1865  NHV1865    -0.2303
     16  C1        30.9860   46.8960   -5.8490 C.ar  1865  NHV1865     0.0658
     17  C6        30.3300   48.0360   -6.3370 C.ar  1865  NHV1865     0.0161
     18  C5        31.0630   49.2340   -6.5470 C.ar  1865  NHV1865     0.0013
     19  C4        32.4430   49.3190   -6.2740 C.ar  1865  NHV1865     0.0001
     20  C3        33.1140   48.1760   -5.7890 C.ar  1865  NHV1865     0.0013
     21  C2        32.3760   46.9850   -5.5880 C.ar  1865  NHV1865     0.0161
     22  C20       27.6020   46.1130   -0.6840 C.3   1865  NHV1865     0.2504
@<TRIPOS>BOND
     1    18    17   ar
     2    18    19   ar
     3    17    16   ar
     4    19    20   ar
     5    16    15    1
     6    16    21   ar
     7    20    21   ar
     8    15    14    1
     9    14    11    1
    10    11    10    1
    11    11    12    2
    12    10     9    1
    13     1     2    1
    14    12    13    2
    15     9    13    1
    16     9     3    1
    17     2     3    1
    18    13    22    1
    19     3     4    1
    20     4     5    1
    21     4     6    1
    22    22     8    1
    23    22     6    1
    24     6     7    1
