@<TRIPOS>MOLECULE
2vp0_TTP_A_1.pdb
 29 30 0 0 0
SMALL
GASTEIGER

@<TRIPOS>ATOM
      1  PA        -4.1030   19.4120   11.2410 P.3   1210  TTP1210     0.2189
      2  O1A       -5.1960   18.3710   11.0490 O.2   1210  TTP1210    -0.5170
      3  O2A       -3.1870   19.0490   12.3620 O.3   1210  TTP1210    -0.4371
      4  O3A       -4.7490   20.8250   11.6190 O.3   1210  TTP1210    -0.2700
      5  PB        -5.9300   21.5350   10.8190 P.3   1210  TTP1210     0.2277
      6  O1B       -5.9110   22.9790   11.2530 O.3   1210  TTP1210    -0.4368
      7  O2B       -5.7850   21.4540    9.3280 O.2   1210  TTP1210    -0.5168
      8  O3B       -7.2130   20.7470   11.3950 O.3   1210  TTP1210    -0.2258
      9  PG        -8.6790   21.3880   11.7120 P.3   1210  TTP1210     0.5373
     10  O1G       -9.4590   20.2540   12.3270 O.3   1210  TTP1210    -0.1143
     11  O2G       -8.6350   22.5640   12.6390 O.3   1210  TTP1210    -0.1143
     12  O3G       -9.2800   21.8130   10.3920 O.2   1210  TTP1210    -0.2221
     13  O5'       -3.3130   19.7040    9.8810 O.3   1210  TTP1210    -0.3112
     14  C5'       -2.4730   20.8290    9.6260 C.3   1210  TTP1210     0.1812
     15  C4'       -1.5600   20.4640    8.4580 C.3   1210  TTP1210     0.1773
     16  O4'       -0.4020   19.8240    8.9820 O.3   1210  TTP1210    -0.3339
     17  C3'       -2.1890   19.4640    7.5010 C.3   1210  TTP1210     0.1857
     18  O3'       -1.8400   19.8570    6.1700 O.3   1210  TTP1210    -0.2203
     19  C2'       -1.5710   18.1080    7.7950 C.3   1210  TTP1210     0.0874
     20  C1'       -0.2450   18.5260    8.3960 C.3   1210  TTP1210     0.2090
     21  N1         0.2770   17.6760    9.4410 N.am  1210  TTP1210    -0.1794
     22  C2         1.3420   16.8170    9.0790 C.1   1210  TTP1210     0.2844
     23  O2         1.7470   16.7870    7.8820 O.2   1210  TTP1210    -0.1918
     24  N3         1.9080   16.0380   10.0080 N.2   1210  TTP1210    -0.2455
     25  C4         1.4970   16.0640   11.2870 C.1   1210  TTP1210     0.2134
     26  O4         2.0470   15.3220   12.1310 O.2   1210  TTP1210    -0.2088
     27  C5         0.3770   16.9530   11.6820 C.2   1210  TTP1210     0.0891
     28  C5M       -0.1250   16.9840   13.1070 C.3   1210  TTP1210     0.0462
     29  C6        -0.1920   17.7490   10.7000 C.2   1210  TTP1210     0.0877
@<TRIPOS>BOND
     1    18    17    1
     2    17    19    1
     3    17    15    1
     4    19    20    1
     5    23    22    2
     6    20    16    1
     7    20    21    1
     8    15    16    1
     9    15    14    1
    10    22    21   am
    11    22    24    2
    12     7     5    2
    13    21    29    1
    14    14    13    1
    15    13     1    1
    16    24    25    2
    17    12     9    2
    18    29    27    2
    19     5     6    1
    20     5     8    1
    21     5     4    1
    22     2     1    2
    23     1     4    1
    24     1     3    1
    25    25    27    1
    26    25    26    2
    27     8     9    1
    28    27    28    1
    29     9    10    1
    30     9    11    1
