@<TRIPOS>MOLECULE
2vp2_DGT_A_1.pdb
 31 33 0 0 0
SMALL
GASTEIGER

@<TRIPOS>ATOM
      1  PG        -8.7520   21.3580   11.8310 P.3   1210  DGT1210     0.5373
      2  O1G       -8.5340   22.5530   12.7530 O.3   1210  DGT1210    -0.1143
      3  O2G       -9.1980   21.7180   10.4290 O.2   1210  DGT1210    -0.2221
      4  O3G       -9.4910   20.2030   12.4840 O.3   1210  DGT1210    -0.1143
      5  O3B       -7.2720   20.7550   11.5680 O.3   1210  DGT1210    -0.2258
      6  PB        -6.1270   21.5150   10.7490 P.3   1210  DGT1210     0.2277
      7  O1B       -6.1530   22.9790   11.0820 O.3   1210  DGT1210    -0.4368
      8  O2B       -6.1430   21.0950    9.3250 O.2   1210  DGT1210    -0.5168
      9  O3A       -4.8330   20.8960   11.4530 O.3   1210  DGT1210    -0.2700
     10  PA        -4.2970   19.3970   11.2210 P.3   1210  DGT1210     0.2189
     11  O1A       -5.4160   18.4080   11.0020 O.2   1210  DGT1210    -0.5170
     12  O2A       -3.3540   19.1310   12.3650 O.3   1210  DGT1210    -0.4371
     13  O5'       -3.4650   19.5340    9.8620 O.3   1210  DGT1210    -0.3112
     14  C5'       -2.5710   20.6320    9.6690 C.3   1210  DGT1210     0.1812
     15  C4'       -1.6790   20.3860    8.4550 C.3   1210  DGT1210     0.1772
     16  O4'       -0.4610   19.7550    8.8620 O.3   1210  DGT1210    -0.3347
     17  C3'       -2.3200   19.4160    7.4660 C.3   1210  DGT1210     0.1857
     18  O3'       -1.9600   19.8410    6.1500 O.3   1210  DGT1210    -0.2203
     19  C2'       -1.6570   18.0770    7.7400 C.3   1210  DGT1210     0.0865
     20  C1'       -0.2630   18.5930    8.0370 C.3   1210  DGT1210     0.1981
     21  N9         0.6260   17.5860    8.6470 N.pl3 1210  DGT1210    -0.2374
     22  C8         1.6030   16.9170    8.0050 C.3   1210  DGT1210     0.2245
     23  N7         2.2570   16.0760    8.8560 N.2   1210  DGT1210    -0.2322
     24  C5         1.6720   16.2200   10.0600 C.2   1210  DGT1210     0.2182
     25  C6         1.8640   15.6360   11.4000 C.1   1210  DGT1210     0.2372
     26  O6         2.7610   14.7900   11.5800 O.2   1210  DGT1210    -0.2069
     27  N1         1.0540   16.0320   12.4040 N.2   1210  DGT1210    -0.2485
     28  C2         0.0890   16.9600   12.2020 C.1   1210  DGT1210     0.2531
     29  N2        -0.6830   17.3170   13.2730 N.pl3 1210  DGT1210    -0.0226
     30  N3        -0.1440   17.5370   10.9850 N.2   1210  DGT1210    -0.3074
     31  C4         0.6000   17.2050    9.9190 C.2   1210  DGT1210     0.2299
@<TRIPOS>BOND
     1    18    17    1
     2    17    19    1
     3    17    15    1
     4    19    20    1
     5    22    21    1
     6    22    23    1
     7    20    21    1
     8    20    16    1
     9    15    16    1
    10    15    14    1
    11    21    31    1
    12    23    24    2
    13     8     6    2
    14    14    13    1
    15    13    10    1
    16    31    24    1
    17    31    30    2
    18    24    25    1
    19     3     1    2
    20     6     7    1
    21     6     9    1
    22     6     5    1
    23    30    28    2
    24    11    10    2
    25    10     9    1
    26    10    12    1
    27    25    26    2
    28    25    27    2
    29     5     1    1
    30     1     4    1
    31     1     2    1
    32    28    27    2
    33    28    29    1
