@<TRIPOS>MOLECULE
2vp3_M7G_A_1.pdb
 29 31 0 0 0
SMALL
GASTEIGER

@<TRIPOS>ATOM
      1  PA        12.5130   11.7080   23.6540 P.3   401  M7G401      0.2231
      2  O1A       13.2580   12.4420   22.5880 O.2   401  M7G401     -0.5169
      3  O2A       11.9150   12.5160   24.7470 O.3   401  M7G401     -0.4370
      4  O3A       11.4270   10.7040   23.0160 O.3   401  M7G401     -0.2261
      5  O5'       13.5630   10.7030   24.3460 O.3   401  M7G401     -0.3111
      6  PB        10.1390   11.1370   22.1770 P.3   401  M7G401      0.5373
      7  O1B        9.0910   11.7030   23.2500 O.3   401  M7G401     -0.1143
      8  O2B        9.5530    9.9000   21.5860 O.3   401  M7G401     -0.1143
      9  O3B       10.5140   12.2380   21.2720 O.2   401  M7G401     -0.2221
     10  C5'       13.8560    9.4040   23.8040 C.3   401  M7G401      0.1813
     11  C4'       15.2070    9.3150   23.0940 C.3   401  M7G401      0.1799
     12  O4'       15.2990   10.3020   22.0670 O.3   401  M7G401     -0.3326
     13  C3'       16.3490    9.6370   24.0380 C.3   401  M7G401      0.2158
     14  O3'       16.7170    8.4800   24.8110 O.3   401  M7G401     -0.2175
     15  C2'       17.4680   10.0210   23.0880 C.3   401  M7G401      0.2310
     16  O2'       18.2190    8.8880   22.6350 O.3   401  M7G401     -0.2158
     17  C1'       16.7020   10.5670   21.8790 C.3   401  M7G401      0.2287
     18  N9        16.8260   12.0250   21.7170 N.pl3 401  M7G401     -0.2454
     19  C8        16.1360   12.9920   22.3890 C.3   401  M7G401      0.1735
     20  N7        16.3630   14.1900   21.9740 N.3   401  M7G401     -0.2343
     21  CM7       15.7200   15.3760   22.4970 C.3   401  M7G401      0.0924
     22  C5        17.2800   14.0220   20.9540 C.3   401  M7G401      0.2475
     23  C6        17.8910   14.9910   20.1360 C.1   401  M7G401      0.2145
     24  O6        17.7210   16.2020   20.1610 O.2   401  M7G401     -0.2115
     25  N1        18.7600   14.4240   19.2320 N.2   401  M7G401     -0.2526
     26  C2        19.0280   13.0750   19.1040 C.1   401  M7G401      0.2525
     27  N2        19.8960   12.7120   18.1580 N.pl3 401  M7G401     -0.0226
     28  N3        18.4410   12.1550   19.8820 N.2   401  M7G401     -0.3118
     29  C4        17.5810   12.6970   20.7830 C.2   401  M7G401      0.2086
@<TRIPOS>BOND
     1    27    26    1
     2    26    25    2
     3    26    28    2
     4    25    23    2
     5    28    29    2
     6    23    24    2
     7    23    22    1
     8    29    22    1
     9    29    18    1
    10    22    20    1
    11     9     6    2
    12     8     6    1
    13    18    17    1
    14    18    19    1
    15    17    12    1
    16    17    15    1
    17    20    19    1
    18    20    21    1
    19    12    11    1
    20     6     4    1
    21     6     7    1
    22     2     1    2
    23    16    15    1
    24     4     1    1
    25    15    13    1
    26    11    10    1
    27    11    13    1
    28     1     5    1
    29     1     3    1
    30    10     5    1
    31    13    14    1
