@<TRIPOS>MOLECULE
2vp3_SAH_A_1.pdb
 26 28 0 0 0
SMALL
GASTEIGER

@<TRIPOS>ATOM
      1  N         -3.9520   12.8400   23.9020 N.3   400  SAH400     -0.1208
      2  CA        -4.0290   11.9270   25.0350 C.3   400  SAH400      0.1952
      3  CB        -2.6980   11.1790   25.1700 C.3   400  SAH400      0.0422
      4  CG        -2.3860   10.4450   23.8630 C.3   400  SAH400      0.0597
      5  SD        -1.1370    9.1640   23.8850 S.3   400  SAH400     -0.1375
      6  C         -4.4750   12.5980   26.3490 C.2   400  SAH400      0.3819
      7  O         -5.3160   13.5170   26.2160 O.co2 400  SAH400     -0.2441
      8  OXT       -4.4130   11.9230   27.4090 O.co2 400  SAH400     -0.2441
      9  C5'       -1.2350    8.6830   22.1710 C.3   400  SAH400      0.0899
     10  C4'       -2.4750    7.9300   21.8460 C.3   400  SAH400      0.1630
     11  O4'       -2.5170    7.7720   20.3950 O.3   400  SAH400     -0.3153
     12  C3'       -2.6290    6.4850   22.5450 C.3   400  SAH400      0.2168
     13  O3'       -3.7460    6.4610   23.5010 O.3   400  SAH400     -0.2175
     14  C2'       -2.8660    5.5810   21.2990 C.3   400  SAH400      0.2569
     15  O2'       -3.7970    4.4770   21.4590 O.3   400  SAH400     -0.2130
     16  C1'       -3.3530    6.6320   20.2590 C.3   400  SAH400      0.3185
     17  N9        -3.3570    6.2380   18.8600 N.pl3 400  SAH400     -0.1439
     18  C8        -2.3720    5.5630   18.1400 C.3   400  SAH400      0.3377
     19  N7        -2.7910    5.2500   16.9440 N.2   400  SAH400     -0.2095
     20  C5        -4.1170    5.7490   16.8720 C.2   400  SAH400      0.2526
     21  C6        -5.1430    5.6030   15.9200 C.2   400  SAH400      0.4393
     22  N6        -4.9130    5.1610   14.6670 N.pl3 400  SAH400      0.2180
     23  N1        -6.3930    5.8960   16.3160 N.2   400  SAH400      0.0021
     24  C2        -6.6040    6.3340   17.5360 C.3   400  SAH400      0.5254
     25  N3        -5.7300    6.6700   18.4530 N.2   400  SAH400     -0.0055
     26  C4        -4.4780    6.3320   18.0550 C.2   400  SAH400      0.3518
@<TRIPOS>BOND
     1    22    21    1
     2    21    23    2
     3    21    20    1
     4    23    24    1
     5    20    19    2
     6    20    26    1
     7    19    18    1
     8    24    25    1
     9    26    25    2
    10    26    17    1
    11    18    17    1
    12    17    16    1
    13    16    11    1
    14    16    14    1
    15    11    10    1
    16    14    15    1
    17    14    12    1
    18    10     9    1
    19    10    12    1
    20     9     5    1
    21    12    13    1
    22     4     5    1
    23     4     3    1
    24     1     2    1
    25     2     3    1
    26     2     6    1
    27     7     6   ar
    28     6     8   ar
