@<TRIPOS>MOLECULE
2vp4_DCP_A_1.pdb
 28 29 0 0 0
SMALL
GASTEIGER

@<TRIPOS>ATOM
      1  N1        31.8660   15.7910   10.9590 N.am  1210  DCP1210    -0.1802
      2  C2        31.0220   14.7250   10.5570 C.1   1210  DCP1210     0.2756
      3  N3        30.3550   14.0270   11.5080 N.2   1210  DCP1210    -0.3024
      4  C4        30.4650   14.3300   12.8160 C.2   1210  DCP1210     0.2346
      5  C5        31.2860   15.3780   13.2440 C.2   1210  DCP1210     0.0687
      6  C6        31.9970   16.0770   12.2680 C.2   1210  DCP1210     0.0835
      7  O2        30.8680   14.4210    9.3390 O.2   1210  DCP1210    -0.1925
      8  N4        29.7590   13.6070   13.7140 N.pl3 1210  DCP1210    -0.0921
      9  C1'       32.6620   16.4900    9.9610 C.3   1210  DCP1210     0.2090
     10  C2'       32.3330   17.9150    9.5500 C.3   1210  DCP1210     0.0874
     11  C3'       33.7300   18.4480    9.2020 C.3   1210  DCP1210     0.1857
     12  C4'       34.6800   17.7160   10.1310 C.3   1210  DCP1210     0.1773
     13  O4'       34.0010   16.5190   10.4830 O.3   1210  DCP1210    -0.3339
     14  O3'       34.0750   18.0640    7.8610 O.3   1210  DCP1210    -0.2203
     15  C5'       34.9320   18.4740   11.4260 C.3   1210  DCP1210     0.1812
     16  O5'       33.7960   19.2990   11.7170 O.3   1210  DCP1210    -0.3112
     17  PA        33.6120   19.8820   13.1810 P.3   1210  DCP1210     0.2189
     18  O1A       33.5330   18.7230   14.1540 O.3   1210  DCP1210    -0.4371
     19  O2A       32.4760   20.8590   13.1970 O.2   1210  DCP1210    -0.5170
     20  O3A       35.0620   20.5010   13.4760 O.3   1210  DCP1210    -0.2700
     21  PB        35.7140   21.8680   12.9340 P.3   1210  DCP1210     0.2277
     22  O1B       35.2200   22.1290   11.5480 O.2   1210  DCP1210    -0.5168
     23  O2B       37.1750   21.7100   13.2190 O.3   1210  DCP1210    -0.4368
     24  O3B       35.0740   22.9200   13.9940 O.3   1210  DCP1210    -0.2258
     25  PG        35.4970   24.4820   14.2020 P.3   1210  DCP1210     0.5373
     26  O1G       36.6240   24.3730   15.1480 O.3   1210  DCP1210    -0.1143
     27  O2G       34.2070   25.0500   14.7400 O.3   1210  DCP1210    -0.1143
     28  O3G       35.8500   24.9830   12.8330 O.2   1210  DCP1210    -0.2221
@<TRIPOS>BOND
     1    14    11    1
     2    11    10    1
     3    11    12    1
     4     7     2    2
     5    10     9    1
     6     9    13    1
     7     9     1    1
     8    12    13    1
     9    12    15    1
    10     2     1   am
    11     2     3    2
    12     1     6    1
    13    15    16    1
    14     3     4    2
    15    22    21    2
    16    16    17    1
    17     6     5    2
    18     4     5    1
    19     4     8    1
    20    28    25    2
    21    21    23    1
    22    21    20    1
    23    21    24    1
    24    17    19    2
    25    17    20    1
    26    17    18    1
    27    24    25    1
    28    25    27    1
    29    25    26    1
