@<TRIPOS>MOLECULE
2vp5_DCZ_A_1.pdb
 16 17 0 0 0
SMALL
GASTEIGER

@<TRIPOS>ATOM
      1  N1        60.7150   18.1460   10.4430 N.am  1210  DCZ1210    -0.1802
      2  C2        61.6160   17.2460   10.0110 C.1   1210  DCZ1210     0.2756
      3  N3        62.2600   16.4360   10.8640 N.2   1210  DCZ1210    -0.3024
      4  C4        62.0120   16.5090   12.1820 C.2   1210  DCZ1210     0.2346
      5  C5        61.0800   17.4310   12.6610 C.2   1210  DCZ1210     0.0687
      6  C6        60.4290   18.2610   11.7450 C.2   1210  DCZ1210     0.0835
      7  O2        61.8910   17.1320    8.6880 O.2   1210  DCZ1210    -0.1925
      8  N4        62.6660   15.6740   13.0190 N.pl3 1210  DCZ1210    -0.0921
      9  C1'       60.0720   18.9980    9.4510 C.3   1210  DCZ1210     0.2090
     10  C2'       58.6140   18.6300    9.2220 C.3   1210  DCZ1210     0.0874
     11  C3'       57.9800   19.9550    8.8850 C.3   1210  DCZ1210     0.1858
     12  C4'       58.9170   21.0380    9.4050 C.3   1210  DCZ1210     0.1802
     13  O4'       60.0850   20.3650    9.8780 O.3   1210  DCZ1210    -0.3338
     14  O3'       57.9570   20.0410    7.4710 O.3   1210  DCZ1210    -0.2203
     15  C5'       58.3220   21.8400   10.5490 C.3   1210  DCZ1210     0.2141
     16  O5'       57.7750   20.9230   11.4980 O.3   1210  DCZ1210    -0.2176
@<TRIPOS>BOND
     1    14    11    1
     2     7     2    2
     3    11    10    1
     4    11    12    1
     5    10     9    1
     6    12    13    1
     7    12    15    1
     8     9    13    1
     9     9     1    1
    10     2     1   am
    11     2     3    2
    12     1     6    1
    13    15    16    1
    14     3     4    2
    15     6     5    2
    16     4     5    1
    17     4     8    1
