@<TRIPOS>MOLECULE
2vp6_5FU_A_1.pdb
 17 18 0 0 0
SMALL
GASTEIGER

@<TRIPOS>ATOM
      1  F5        17.5330    3.7750    8.0510 F     1211  5FU1211    -0.1891
      2  C5        18.9030    3.7530    8.0660 C.2   1211  5FU1211     0.2499
      3  C4        19.5570    2.6550    8.7770 C.1   1211  5FU1211     0.2454
      4  O4        18.8340    1.8210    9.3390 O.2   1211  5FU1211    -0.2062
      5  N3        20.8800    2.5650    8.8060 N.2   1211  5FU1211    -0.2430
      6  C2        21.6310    3.4760    8.2080 C.1   1211  5FU1211     0.2846
      7  O2        22.8660    3.3730    8.2510 O.2   1211  5FU1211    -0.1918
      8  C6        19.7350    4.6980    7.4380 C.2   1211  5FU1211     0.1221
      9  N1        21.0670    4.5550    7.5150 N.am  1211  5FU1211    -0.1768
     10  C1'       22.0210    5.4770    6.8920 C.3   1211  5FU1211     0.2091
     11  O4'       21.6590    6.8600    6.9920 O.3   1211  5FU1211    -0.3338
     12  C2'       22.1940    5.1320    5.4240 C.3   1211  5FU1211     0.0874
     13  C3'       22.4970    6.4760    4.8110 C.3   1211  5FU1211     0.1858
     14  O3'       23.9070    6.6110    4.7830 O.3   1211  5FU1211    -0.2203
     15  C4'       22.0180    7.5240    5.7820 C.3   1211  5FU1211     0.1802
     16  C5'       20.8050    8.1460    5.1500 C.3   1211  5FU1211     0.2141
     17  O5'       19.6590    7.4510    5.6620 O.3   1211  5FU1211    -0.2176
@<TRIPOS>BOND
     1    14    13    1
     2    13    12    1
     3    13    15    1
     4    16    17    1
     5    16    15    1
     6    12    10    1
     7    15    11    1
     8    10    11    1
     9    10     9    1
    10     8     9    1
    11     8     2    2
    12     9     6   am
    13     1     2    1
    14     2     3    1
    15     6     7    2
    16     6     5    2
    17     3     5    2
    18     3     4    2
