@<TRIPOS>MOLECULE
2vp9_DOC_A_1.pdb
 15 16 0 0 0
SMALL
GASTEIGER

@<TRIPOS>ATOM
      1  N1        21.4570    4.3180    7.4830 N.am  1211  DOC1211    -0.1803
      2  C2        21.8910    3.1850    8.2270 C.1   1211  DOC1211     0.2756
      3  N3        20.9810    2.4090    8.8700 N.2   1211  DOC1211    -0.3024
      4  C4        19.6620    2.7130    8.8290 C.2   1211  DOC1211     0.2346
      5  C5        19.2370    3.8200    8.1040 C.2   1211  DOC1211     0.0687
      6  C6        20.1480    4.6100    7.4210 C.2   1211  DOC1211     0.0835
      7  O2        23.0900    2.8670    8.3040 O.2   1211  DOC1211    -0.1925
      8  N4        18.7540    1.9210    9.4780 N.pl3 1211  DOC1211    -0.0921
      9  C1'       22.4090    5.1500    6.7700 C.3   1211  DOC1211     0.2063
     10  C2'       22.2850    4.8380    5.2890 C.3   1211  DOC1211     0.0545
     11  C3'       22.8290    6.0960    4.6300 C.3   1211  DOC1211     0.0367
     12  C4'       22.6170    7.1840    5.6830 C.3   1211  DOC1211     0.1501
     13  O4'       22.1410    6.5530    6.8920 O.3   1211  DOC1211    -0.3365
     14  C5'       21.6050    8.1860    5.1960 C.3   1211  DOC1211     0.2114
     15  O5'       20.4430    7.5070    4.6890 O.3   1211  DOC1211    -0.2177
@<TRIPOS>BOND
     1    11    10    1
     2    11    12    1
     3    15    14    1
     4    14    12    1
     5    10     9    1
     6    12    13    1
     7     9    13    1
     8     9     1    1
     9     6     1    1
    10     6     5    2
    11     1     2   am
    12     5     4    1
    13     2     7    2
    14     2     3    2
    15     4     3    2
    16     4     8    1
