@<TRIPOS>MOLECULE
2vpn_4CS_A_1.pdb
 10 10 0 0 0
SMALL
GASTEIGER

@<TRIPOS>ATOM
      1  O         43.8610   31.4390   35.0790 O.co2 1311  4CS1311    -0.2435
      2  C         43.5350   31.1580   33.9000 C.2   1311  4CS1311     0.3875
      3  OXT       43.4610   29.9940   33.4780 O.co2 1311  4CS1311    -0.2435
      4  CA        43.2840   32.2710   32.9390 C.3   1311  4CS1311     0.2173
      5  CB        42.3870   33.3630   33.5100 C.3   1311  4CS1311     0.0639
      6  CAD       42.1870   34.4380   32.4490 C.3   1311  4CS1311     0.1386
      7  NAG       41.8370   33.8640   31.1570 N.2   1311  4CS1311    -0.2239
      8  CAI       42.0700   32.6140   30.8420 C.1   1311  4CS1311     0.0036
      9  CAA       41.5400   32.1210   29.5190 C.3   1311  4CS1311     0.1143
     10  N         42.7150   31.8090   31.6740 N.2   1311  4CS1311    -0.2144
@<TRIPOS>BOND
     1     9     8    1
     2     8     7    2
     3     8    10    2
     4     7     6    1
     5    10     4    1
     6     6     5    1
     7     4     5    1
     8     4     2    1
     9     3     2   ar
    10     2     1   ar
