@<TRIPOS>MOLECULE
2vpo_6CS_A_1.pdb
 11 11 0 0 0
SMALL
GASTEIGER

@<TRIPOS>ATOM
      1  O         43.5300   29.8500   33.4510 O.co2 1312  6CS1312    -0.2434
      2  C         43.6750   31.0110   33.8780 C.2   1312  6CS1312     0.3901
      3  OXT       44.0070   31.2240   35.0690 O.co2 1312  6CS1312    -0.2434
      4  CA        43.5020   32.1680   32.9050 C.3   1312  6CS1312     0.2473
      5  N         42.8700   31.7640   31.6420 N.2   1312  6CS1312    -0.2117
      6  CAI       42.1840   32.5680   30.9210 C.1   1312  6CS1312     0.0038
      7  CAA       41.5790   32.0840   29.6210 C.3   1312  6CS1312     0.1143
      8  NAG       41.9840   33.8400   31.2840 N.2   1312  6CS1312    -0.2212
      9  CG2       42.4050   34.4470   32.5450 C.3   1312  6CS1312     0.1714
     10  CB        42.6500   33.2880   33.5100 C.3   1312  6CS1312     0.2110
     11  OG1       43.2810   33.8230   34.6840 O.3   1312  6CS1312    -0.2182
@<TRIPOS>BOND
     1     7     6    1
     2     6     8    2
     3     6     5    2
     4     8     9    1
     5     5     4    1
     6     9    10    1
     7     4    10    1
     8     4     2    1
     9     1     2   ar
    10    10    11    1
    11     2     3   ar
