@<TRIPOS>MOLECULE
2vpp_GEO_A_1.pdb
 18 19 0 0 0
SMALL
GASTEIGER

@<TRIPOS>ATOM
      1  O5'       57.2890   20.9970   11.7070 O.3   1210  GEO1210    -0.2176
      2  C5'       58.0570   21.8500   10.8450 C.3   1210  GEO1210     0.2143
      3  C4'       58.7980   20.9710    9.8500 C.3   1210  GEO1210     0.1859
      4  O4'       59.8590   20.2730   10.5220 O.3   1210  GEO1210    -0.3296
      5  C1'       59.9460   18.9270   10.0040 C.3   1210  GEO1210     0.2718
      6  N1        60.5630   18.0170   10.9820 N.am  1210  GEO1210    -0.1754
      7  C6        60.2740   18.1040   12.2840 C.2   1210  GEO1210     0.0837
      8  C5        60.8830   17.2630   13.1980 C.2   1210  GEO1210     0.0687
      9  C4        61.8260   16.3500   12.7210 C.2   1210  GEO1210     0.2346
     10  N3        62.1010   16.3070   11.4060 N.2   1210  GEO1210    -0.3024
     11  C2        61.4740   17.1390   10.5520 C.1   1210  GEO1210     0.2757
     12  O2        61.7740   17.0490    9.2340 O.2   1210  GEO1210    -0.1925
     13  N4        62.4730   15.4930   13.5450 N.pl3 1210  GEO1210    -0.0921
     14  C2'       58.5110   18.5770    9.6250 C.3   1210  GEO1210     0.3366
     15  F1        58.5260   17.7370    8.6000 F     1210  GEO1210    -0.1969
     16  F2        57.8930   18.0860   10.6780 F     1210  GEO1210    -0.1969
     17  C3'       57.8790   19.9060    9.2570 C.3   1210  GEO1210     0.2463
     18  O3'       57.8670   20.0190    7.8390 O.3   1210  GEO1210    -0.2144
@<TRIPOS>BOND
     1    18    17    1
     2    15    14    1
     3    12    11    2
     4    17    14    1
     5    17     3    1
     6    14     5    1
     7    14    16    1
     8     3     4    1
     9     3     2    1
    10     5     4    1
    11     5     6    1
    12    11     6   am
    13    11    10    2
    14     2     1    1
    15     6     7    1
    16    10     9    2
    17     7     8    2
    18     9     8    1
    19     9    13    1
