@<TRIPOS>MOLECULE
2vpq_ANP_A_1.pdb
 31 33 0 0 0
SMALL
GASTEIGER

@<TRIPOS>ATOM
      1  PG        13.8690   -0.4720   55.8050 P.3   1449  ANP1449     0.4884
      2  O1G       12.6510   -1.3410   55.6510 O.3   1449  ANP1449    -0.1240
      3  O2G       13.5250    0.9200   56.3000 O.3   1449  ANP1449    -0.1240
      4  O3G       14.7230   -0.4330   54.5630 O.2   1449  ANP1449    -0.2331
      5  PB        15.1500   -0.6940   58.3740 P.3   1449  ANP1449     0.4669
      6  O1B       14.3330    0.5280   58.6930 O.3   1449  ANP1449    -0.1253
      7  O2B       16.6410   -0.6250   58.5360 O.2   1449  ANP1449    -0.2351
      8  N3B       14.8160   -1.2050   56.8820 N.3   1449  ANP1449    -0.0163
      9  PA        13.3820   -2.4620   59.8810 P.3   1449  ANP1449     0.2220
     10  O1A       12.9670   -2.0940   61.2840 O.3   1449  ANP1449    -0.4370
     11  O2A       12.4200   -2.4410   58.7230 O.2   1449  ANP1449    -0.5170
     12  O3A       14.8000   -1.8080   59.4840 O.3   1449  ANP1449    -0.2360
     13  O5'       13.8250   -4.0000   60.0010 O.3   1449  ANP1449    -0.3111
     14  C5'       14.4980   -4.6540   58.9290 C.3   1449  ANP1449     0.1813
     15  C4'       14.1690   -6.1420   58.9520 C.3   1449  ANP1449     0.1821
     16  O4'       14.6800   -6.7720   60.1350 O.3   1449  ANP1449    -0.3135
     17  C3'       12.6700   -6.4160   58.9440 C.3   1449  ANP1449     0.2184
     18  O3'       12.1100   -6.3960   57.6390 O.3   1449  ANP1449    -0.2174
     19  C2'       12.5840   -7.7700   59.5980 C.3   1449  ANP1449     0.2570
     20  O2'       12.7960   -8.7980   58.6210 O.3   1449  ANP1449    -0.2130
     21  C1'       13.7170   -7.7030   60.6120 C.3   1449  ANP1449     0.3186
     22  N9        13.1870   -7.2560   61.9190 N.pl3 1449  ANP1449    -0.1439
     23  C8        13.0850   -5.9980   62.3970 C.3   1449  ANP1449     0.3377
     24  N7        12.5510   -5.9910   63.6460 N.2   1449  ANP1449    -0.2095
     25  C5        12.3130   -7.2780   63.9760 C.2   1449  ANP1449     0.2526
     26  C6        11.7670   -8.0110   65.1300 C.2   1449  ANP1449     0.4393
     27  N6        11.3400   -7.3560   66.2160 N.pl3 1449  ANP1449     0.2180
     28  N1        11.7050   -9.3570   65.0570 N.2   1449  ANP1449     0.0021
     29  C2        12.1090  -10.0430   63.9790 C.3   1449  ANP1449     0.5254
     30  N3        12.6260   -9.4530   62.9020 N.2   1449  ANP1449    -0.0055
     31  C4        12.7390   -8.1030   62.8400 C.2   1449  ANP1449     0.3518
@<TRIPOS>BOND
     1     4     1    2
     2     2     1    1
     3     1     3    1
     4     1     8    1
     5     8     5    1
     6    18    17    1
     7     5     7    2
     8     5     6    1
     9     5    12    1
    10    20    19    1
    11    11     9    2
    12    14    15    1
    13    14    13    1
    14    17    15    1
    15    17    19    1
    16    15    16    1
    17    12     9    1
    18    19    21    1
    19     9    13    1
    20     9    10    1
    21    16    21    1
    22    21    22    1
    23    22    23    1
    24    22    31    1
    25    23    24    1
    26    31    30    2
    27    31    25    1
    28    30    29    1
    29    24    25    2
    30    25    26    1
    31    29    28    1
    32    28    26    2
    33    26    27    1
