@<TRIPOS>MOLECULE
2vpr_TDC_A_1.pdb
 31 34 0 0 0
SMALL
GASTEIGER

@<TRIPOS>ATOM
      1  O12        3.6120   42.9190   33.2390 O.2   1206  TDC1206    -0.2882
      2  C12        4.7300   42.3350   33.2970 C.2   1206  TDC1206     0.2099
      3  C1B        5.2980   41.8480   34.5890 C.ar  1206  TDC1206     0.0723
      4  C11        4.5740   42.0110   35.7720 C.ar  1206  TDC1206     0.2012
      5  O11        3.2800   42.6050   35.7800 O.3   1206  TDC1206    -0.2864
      6  C1A        5.1260   41.5300   36.9650 C.ar  1206  TDC1206     0.0776
      7  C10        4.4210   41.6490   38.1630 C.ar  1206  TDC1206     0.1987
      8  O10        3.1600   42.2480   38.2060 O.3   1206  TDC1206    -0.2865
      9  C9         5.0340   41.1350   39.4320 C.ar  1206  TDC1206     0.0421
     10  C8         6.2970   40.5330   39.3990 C.ar  1206  TDC1206     0.0033
     11  C7         6.9530   40.4260   38.1650 C.ar  1206  TDC1206    -0.0000
     12  C61        6.3870   40.9170   36.9650 C.ar  1206  TDC1206     0.0019
     13  C6         7.1100   40.7720   35.7700 C.ar  1206  TDC1206    -0.0254
     14  C62        8.4890   40.1290   35.7690 C.3   1206  TDC1206     0.0307
     15  C51        6.5720   41.2630   34.5790 C.ar  1206  TDC1206    -0.0200
     16  C5         7.3520   41.1380   33.2500 C.3   1206  TDC1206     0.0313
     17  C1C        5.4760   42.1400   32.0090 C.3   1206  TDC1206     0.2340
     18  C1         5.1450   40.7960   31.3190 C.2   1206  TDC1206     0.2006
     19  O1         4.2330   40.0580   31.7010 O.2   1206  TDC1206    -0.2921
     20  O1C        5.1330   43.2070   31.1550 O.3   1206  TDC1206    -0.2101
     21  C41        6.9640   42.2280   32.2280 C.3   1206  TDC1206     0.0682
     22  C4         7.8110   42.0580   30.9390 C.3   1206  TDC1206     0.1202
     23  N4         8.4140   43.2900   30.2970 N.3   1206  TDC1206    -0.2654
     24  C43        9.4860   43.7710   31.2440 C.3   1206  TDC1206     0.0900
     25  C42        7.4170   44.3570   29.8950 C.3   1206  TDC1206     0.0900
     26  C3         7.1560   41.0930   29.9140 C.2   1206  TDC1206     0.1806
     27  O3         7.7620   40.7940   28.8860 O.2   1206  TDC1206    -0.2937
     28  C2         5.9010   40.4580   30.1390 C.3   1206  TDC1206     0.1983
     29  C21        5.4450   39.4480   29.1750 C.2   1206  TDC1206     0.2746
     30  O21        6.2630   38.9530   28.3990 O.2   1206  TDC1206    -0.2707
     31  N21        4.2550   38.8800   29.1700 N.am  1206  TDC1206    -0.0871
@<TRIPOS>BOND
     1    30    29    2
     2    27    26    2
     3    31    29   am
     4    29    28    1
     5    25    23    1
     6    26    28    1
     7    26    22    1
     8    28    18    1
     9    23    22    1
    10    23    24    1
    11    22    21    1
    12    20    17    1
    13    18    19    2
    14    18    17    1
    15    17    21    1
    16    17     2    1
    17    21    16    1
    18     1     2    2
    19    16    15    1
    20     2     3    1
    21    15     3   ar
    22    15    13   ar
    23     3     4   ar
    24    14    13    1
    25    13    12   ar
    26     4     5    1
    27     4     6   ar
    28    12     6   ar
    29    12    11   ar
    30     6     7   ar
    31     7     8    1
    32     7     9   ar
    33    11    10   ar
    34    10     9   ar
