@<TRIPOS>MOLECULE
2vpw_MGD_A_1.pdb
 47 52 0 0 0
SMALL
GASTEIGER

@<TRIPOS>ATOM
      1  PB       118.4640  144.2840   20.1430 P.3   1765  MGD1765     0.2189
      2  O1B      119.1770  143.2800   20.9340 O.3   1765  MGD1765    -0.4371
      3  O2B      118.6060  145.7130   20.4660 O.2   1765  MGD1765    -0.5170
      4  O3B      116.9970  143.7140   20.0890 O.3   1765  MGD1765    -0.2703
      5  O3A      114.7560  142.7400   19.9470 O.3   1765  MGD1765    -0.3109
      6  PA       115.8040  143.5000   19.0820 P.3   1765  MGD1765     0.2189
      7  O1A      115.4630  144.9010   18.6940 O.3   1765  MGD1765    -0.4371
      8  O2A      116.2360  142.5360   18.0850 O.2   1765  MGD1765    -0.5170
      9  O5'      118.8990  144.1720   18.6900 O.3   1765  MGD1765    -0.3112
     10  C5'      119.0100  145.3010   17.8730 C.3   1765  MGD1765     0.1813
     11  C4'      119.8650  144.8860   16.7300 C.3   1765  MGD1765     0.1799
     12  O4'      119.7080  145.9850   15.8900 O.3   1765  MGD1765    -0.3326
     13  C3'      121.3030  144.7870   17.0090 C.3   1765  MGD1765     0.2158
     14  O3'      121.8210  143.9250   16.0370 O.3   1765  MGD1765    -0.2175
     15  C2'      121.7530  146.2140   16.8040 C.3   1765  MGD1765     0.2310
     16  O2'      123.0920  146.1850   16.5320 O.3   1765  MGD1765    -0.2158
     17  C1'      120.9370  146.6660   15.6440 C.3   1765  MGD1765     0.2293
     18  N9       120.7010  148.1210   15.4450 N.pl3 1765  MGD1765    -0.2354
     19  C8       120.5590  149.0280   16.3690 C.3   1765  MGD1765     0.2246
     20  N7       120.3170  150.2470   15.9010 N.2   1765  MGD1765    -0.2322
     21  C5       120.2450  150.1440   14.5970 C.2   1765  MGD1765     0.2182
     22  C6       119.9570  151.0460   13.4450 C.1   1765  MGD1765     0.2372
     23  O6       119.7580  152.2840   13.5730 O.2   1765  MGD1765    -0.2069
     24  N1       119.9640  150.4540   12.2480 N.2   1765  MGD1765    -0.2485
     25  C2       120.2030  149.1450   12.0430 C.1   1765  MGD1765     0.2531
     26  N2       120.2100  148.5770   10.8400 N.pl3 1765  MGD1765    -0.0226
     27  N3       120.4320  148.3400   13.0460 N.2   1765  MGD1765    -0.3074
     28  C4       120.4930  148.7310   14.3200 C.2   1765  MGD1765     0.2300
     29  C10      113.8000  143.4340   20.7420 C.3   1765  MGD1765     0.1837
     30  C11      112.8270  142.4450   21.1920 C.3   1765  MGD1765     0.1762
     31  O11      113.5660  141.3320   21.6080 O.3   1765  MGD1765    -0.3271
     32  C12      111.8850  142.8600   22.2040 C.2   1765  MGD1765     0.0473
     33  S12      111.0120  144.2920   22.0830 S.2   1765  MGD1765    -0.0526
     34  C13      111.6100  142.1070   23.2270 C.2   1765  MGD1765     0.0449
     35  S13      110.6140  142.4830   24.4440 S.2   1765  MGD1765    -0.0530
     36  C14      112.0870  140.8080   23.4660 C.3   1765  MGD1765     0.1850
     37  N15      112.9410  140.8410   24.6350 N.2   1765  MGD1765    -0.2411
     38  C16      113.6280  139.6970   24.8320 C.2   1765  MGD1765     0.2467
     39  C17      114.1000  139.1820   26.0730 C.1   1765  MGD1765     0.2441
     40  O17      113.9330  139.8260   27.1110 O.2   1765  MGD1765    -0.2063
     41  N18      114.6930  138.0130   26.0740 N.2   1765  MGD1765    -0.2474
     42  C19      114.8850  137.2910   24.9960 C.1   1765  MGD1765     0.2608
     43  N19      115.5550  136.1290   25.0190 N.pl3 1765  MGD1765    -0.0220
     44  N20      114.4440  137.7070   23.8500 N.2   1765  MGD1765    -0.2682
     45  C21      113.8550  138.8590   23.6870 C.1   1765  MGD1765     0.1293
     46  N22      113.4940  139.2580   22.5050 N.2   1765  MGD1765    -0.1763
     47  C23      112.7340  140.3950   22.2300 C.3   1765  MGD1765     0.2573
@<TRIPOS>BOND
     1    26    25    1
     2    25    24    2
     3    25    27    2
     4    24    22    2
     5    27    28    2
     6    22    23    2
     7    22    21    1
     8    28    21    1
     9    28    18    1
    10    21    20    2
    11    18    17    1
    12    18    19    1
    13    17    12    1
    14    17    15    1
    15    12    11    1
    16    20    19    1
    17    14    13    1
    18    16    15    1
    19    11    13    1
    20    11    10    1
    21    15    13    1
    22    10     9    1
    23     8     6    2
    24     9     1    1
    25     7     6    1
    26     6     5    1
    27     6     4    1
    28     5    29    1
    29     4     1    1
    30     1     3    2
    31     1     2    1
    32    29    30    1
    33    30    31    1
    34    30    32    1
    35    31    47    1
    36    33    32    2
    37    32    34    1
    38    47    46    1
    39    47    36    1
    40    46    45    2
    41    34    36    1
    42    34    35    2
    43    36    37    1
    44    45    44    2
    45    45    38    1
    46    44    42    2
    47    37    38    2
    48    38    39    1
    49    42    43    1
    50    42    41    2
    51    39    41    2
    52    39    40    2
