@<TRIPOS>MOLECULE
2vpw_MQ7_C_1.pdb
 15 16 0 0 0
SMALL
GASTEIGER

@<TRIPOS>ATOM
      1  C1       153.5860  166.2580   45.0920 C.2   1252  MQ71252     0.1915
      2  O1       153.1200  166.1280   43.9770 O.2   1252  MQ71252    -0.2869
      3  C2       154.4880  167.3880   45.3880 C.2   1252  MQ71252     0.0162
      4  C2M      154.8260  168.3750   44.3010 C.3   1252  MQ71252     0.0342
      5  C3       155.0120  167.5460   46.6120 C.2   1252  MQ71252     0.0159
      6  C4       154.7060  166.5940   47.6960 C.2   1252  MQ71252     0.1915
      7  O4       155.1930  166.7500   48.7980 O.2   1252  MQ71252    -0.2869
      8  C5       153.8010  165.4540   47.4380 C.ar  1252  MQ71252     0.0417
      9  C6       153.4940  164.5470   48.4450 C.ar  1252  MQ71252     0.0033
     10  C7       152.6470  163.4820   48.1760 C.ar  1252  MQ71252     0.0001
     11  C8       152.1070  163.3170   46.9150 C.ar  1252  MQ71252     0.0001
     12  C9       152.4040  164.2150   45.9010 C.ar  1252  MQ71252     0.0033
     13  C10      153.2520  165.2860   46.1550 C.ar  1252  MQ71252     0.0417
     14  C11      155.9300  168.7100   46.8810 C.3   1252  MQ71252     0.0294
     15  C12      156.3930  169.2980   45.5720 C.3   1252  MQ71252     0.0051
@<TRIPOS>BOND
     1     2     1    2
     2     4     3    1
     3     1     3    1
     4     1    13    1
     5     3     5    2
     6    15    14    1
     7    12    13   ar
     8    12    11   ar
     9    13     8   ar
    10     5    14    1
    11     5     6    1
    12    11    10   ar
    13     8     6    1
    14     8     9   ar
    15     6     7    2
    16    10     9   ar
