@<TRIPOS>MOLECULE
2vpx_MGD_A_1.pdb
 47 52 0 0 0
SMALL
GASTEIGER

@<TRIPOS>ATOM
      1  PB       117.6230  141.9300   20.2160 P.3   1765  MGD1765     0.2189
      2  O1B      118.3330  140.9410   21.0080 O.3   1765  MGD1765    -0.4371
      3  O2B      117.7650  143.3380   20.5400 O.2   1765  MGD1765    -0.5170
      4  O3B      116.1660  141.3690   20.1660 O.3   1765  MGD1765    -0.2703
      5  O3A      113.9400  140.4100   20.0300 O.3   1765  MGD1765    -0.3109
      6  PA       114.9780  141.1580   19.1590 P.3   1765  MGD1765     0.2189
      7  O1A      114.6390  142.5380   18.7710 O.3   1765  MGD1765    -0.4371
      8  O2A      115.4040  140.2080   18.1580 O.2   1765  MGD1765    -0.5170
      9  O5'      118.0510  141.8190   18.7570 O.3   1765  MGD1765    -0.3112
     10  C5'      118.1590  142.9320   17.9380 C.3   1765  MGD1765     0.1813
     11  C4'      119.0050  142.5230   16.7890 C.3   1765  MGD1765     0.1799
     12  O4'      118.8470  143.6050   15.9460 O.3   1765  MGD1765    -0.3326
     13  C3'      120.4340  142.4250   17.0640 C.3   1765  MGD1765     0.2158
     14  O3'      120.9450  141.5750   16.0880 O.3   1765  MGD1765    -0.2175
     15  C2'      120.8810  143.8300   16.8580 C.3   1765  MGD1765     0.2310
     16  O2'      122.2100  143.8010   16.5810 O.3   1765  MGD1765    -0.2158
     17  C1'      120.0670  144.2760   15.6960 C.3   1765  MGD1765     0.2293
     18  N9       119.8330  145.7090   15.4970 N.pl3 1765  MGD1765    -0.2354
     19  C8       119.6940  146.6030   16.4240 C.3   1765  MGD1765     0.2246
     20  N7       119.4530  147.8040   15.9560 N.2   1765  MGD1765    -0.2322
     21  C5       119.3780  147.7030   14.6480 C.2   1765  MGD1765     0.2182
     22  C6       119.0890  148.5910   13.4930 C.1   1765  MGD1765     0.2372
     23  O6       118.8920  149.8110   13.6220 O.2   1765  MGD1765    -0.2069
     24  N1       119.0920  148.0080   12.2920 N.2   1765  MGD1765    -0.2485
     25  C2       119.3290  146.7180   12.0860 C.1   1765  MGD1765     0.2531
     26  N2       119.3320  146.1590   10.8790 N.pl3 1765  MGD1765    -0.0226
     27  N3       119.5590  145.9250   13.0910 N.2   1765  MGD1765    -0.3074
     28  C4       119.6230  146.3100   14.3690 C.2   1765  MGD1765     0.2300
     29  C10      112.9930  141.0940   20.8300 C.3   1765  MGD1765     0.1837
     30  C11      112.0270  140.1200   21.2840 C.3   1765  MGD1765     0.1762
     31  O11      112.7620  139.0230   21.6990 O.3   1765  MGD1765    -0.3271
     32  C12      111.0950  140.5290   22.3020 C.2   1765  MGD1765     0.0473
     33  S12      110.2280  141.9400   22.1830 S.2   1765  MGD1765    -0.0526
     34  C13      110.8240  139.7870   23.3290 C.2   1765  MGD1765     0.0449
     35  S13      109.8390  140.1580   24.5530 S.2   1765  MGD1765    -0.0530
     36  C14      111.2990  138.5070   23.5670 C.3   1765  MGD1765     0.1850
     37  N15      112.1500  138.5390   24.7380 N.2   1765  MGD1765    -0.2411
     38  C16      112.8320  137.4120   24.9340 C.2   1765  MGD1765     0.2467
     39  C17      113.3050  136.9050   26.1770 C.1   1765  MGD1765     0.2441
     40  O17      113.1420  137.5390   27.2190 O.2   1765  MGD1765    -0.2063
     41  N18      113.8930  135.7530   26.1760 N.2   1765  MGD1765    -0.2474
     42  C19      114.0810  135.0410   25.0950 C.1   1765  MGD1765     0.2608
     43  N19      114.7460  133.8960   25.1160 N.pl3 1765  MGD1765    -0.0220
     44  N20      113.6400  135.4510   23.9460 N.2   1765  MGD1765    -0.2682
     45  C21      113.0540  136.5860   23.7840 C.1   1765  MGD1765     0.1293
     46  N22      112.6930  136.9800   22.6000 N.2   1765  MGD1765    -0.1763
     47  C23      111.9370  138.1000   22.3260 C.3   1765  MGD1765     0.2573
@<TRIPOS>BOND
     1    26    25    1
     2    25    24    2
     3    25    27    2
     4    24    22    2
     5    27    28    2
     6    22    23    2
     7    22    21    1
     8    28    21    1
     9    28    18    1
    10    21    20    2
    11    18    17    1
    12    18    19    1
    13    17    12    1
    14    17    15    1
    15    12    11    1
    16    20    19    1
    17    14    13    1
    18    16    15    1
    19    11    13    1
    20    11    10    1
    21    15    13    1
    22    10     9    1
    23     8     6    2
    24     9     1    1
    25     7     6    1
    26     6     5    1
    27     6     4    1
    28     5    29    1
    29     4     1    1
    30     1     3    2
    31     1     2    1
    32    29    30    1
    33    30    31    1
    34    30    32    1
    35    31    47    1
    36    33    32    2
    37    32    34    1
    38    47    46    1
    39    47    36    1
    40    46    45    2
    41    34    36    1
    42    34    35    2
    43    36    37    1
    44    45    44    2
    45    45    38    1
    46    44    42    2
    47    37    38    2
    48    38    39    1
    49    42    43    1
    50    42    41    2
    51    41    39    2
    52    39    40    2
