@<TRIPOS>MOLECULE
2vpx_UQ1_C_1.pdb
 18 18 0 0 0
SMALL
GASTEIGER

@<TRIPOS>ATOM
      1  C1       152.7410  163.6650   46.0200 C.2   1252  UQ11252     0.2285
      2  O1       152.1540  163.7960   45.0010 O.2   1252  UQ11252    -0.2835
      3  C2       152.5510  162.4470   46.8450 C.2   1252  UQ11252     0.2140
      4  O2       151.6740  161.4860   46.4150 O.2   1252  UQ11252    -0.4652
      5  CM2      152.2160  160.8130   45.2700 C.3   1252  UQ11252     0.2528
      6  C3       153.2410  162.3010   48.0210 C.2   1252  UQ11252     0.2140
      7  O3       153.1110  161.2210   48.8280 O.2   1252  UQ11252    -0.4652
      8  CM3      151.7590  160.7610   48.7650 C.3   1252  UQ11252     0.2528
      9  C4       154.1630  163.3580   48.4430 C.2   1252  UQ11252     0.2282
     10  O4       154.7510  163.1850   49.4910 O.2   1252  UQ11252    -0.2836
     11  C5       154.3510  164.5820   47.5920 C.2   1252  UQ11252     0.0198
     12  CM5      155.3530  165.6130   48.1160 C.3   1252  UQ11252     0.0343
     13  C6       153.6680  164.7320   46.3920 C.2   1252  UQ11252     0.0235
     14  C7       153.7730  165.9100   45.4150 C.3   1252  UQ11252     0.0548
     15  C8       155.1280  166.6020   45.5290 C.2   1252  UQ11252    -0.0298
     16  C9       156.2530  166.4780   44.8010 C.2   1252  UQ11252    -0.0475
     17  C10      157.3720  167.3280   45.3180 C.3   1252  UQ11252     0.0260
     18  C11      156.5370  165.6140   43.5700 C.3   1252  UQ11252     0.0260
@<TRIPOS>BOND
     1    18    16    1
     2    16    17    1
     3    16    15    2
     4     2     1    2
     5     5     4    1
     6    14    15    1
     7    14    13    1
     8     1    13    1
     9     1     3    1
    10    13    11    2
    11     4     3    1
    12     3     6    2
    13    11    12    1
    14    11     9    1
    15     6     9    1
    16     6     7    1
    17     9    10    2
    18     8     7    1
