@<TRIPOS>MOLECULE
2vpy_PCI_C_1.pdb
 12 12 0 0 0
SMALL
GASTEIGER

@<TRIPOS>ATOM
      1  O1       157.3410  167.0610   50.6430 O.3   1252  PCI1252    -0.2847
      2  C1       156.9450  167.3870   49.3980 C.ar  1252  PCI1252     0.2182
      3  C2       157.4740  168.5290   48.7600 C.ar  1252  PCI1252     0.1087
      4 CL1       158.6100  169.4740   49.5990 Cl    1252  PCI1252    -0.0780
      5  C3       157.0420  168.8410   47.4580 C.ar  1252  PCI1252     0.0827
      6 CL2       157.6660  170.1820   46.6520 Cl    1252  PCI1252    -0.0803
      7  C4       156.0750  168.0110   46.7930 C.ar  1252  PCI1252     0.0806
      8 CL3       155.5230  168.3350   45.2210 Cl    1252  PCI1252    -0.0804
      9  C5       155.5750  166.8960   47.4450 C.ar  1252  PCI1252     0.0827
     10 CL4       154.4300  165.8800   46.6660 Cl    1252  PCI1252    -0.0803
     11  C6       156.0050  166.5840   48.7390 C.ar  1252  PCI1252     0.1087
     12 CL5       155.3840  165.2010   49.4770 Cl    1252  PCI1252    -0.0780
@<TRIPOS>BOND
     1     8     7    1
     2     6     5    1
     3    10     9    1
     4     7     9   ar
     5     7     5   ar
     6     9    11   ar
     7     5     3   ar
     8    11     2   ar
     9    11    12    1
    10     3     2   ar
    11     3     4    1
    12     2     1    1
