@<TRIPOS>MOLECULE
2vpy_MGD_A_1.pdb
 47 52 0 0 0
SMALL
GASTEIGER

@<TRIPOS>ATOM
      1  PB       120.2130  145.6860   20.4820 P.3   1765  MGD1765     0.2189
      2  O1B      120.9350  144.6700   21.2870 O.3   1765  MGD1765    -0.4371
      3  O2B      120.3600  147.1280   20.8110 O.2   1765  MGD1765    -0.5170
      4  O3B      118.7230  145.1130   20.4280 O.3   1765  MGD1765    -0.2703
      5  O3A      116.4460  144.1340   20.2840 O.3   1765  MGD1765    -0.3109
      6  PA       117.5110  144.8990   19.4030 P.3   1765  MGD1765     0.2189
      7  O1A      117.1670  146.3150   19.0080 O.3   1765  MGD1765    -0.4371
      8  O2A      117.9470  143.9250   18.3880 O.2   1765  MGD1765    -0.5170
      9  O5'      120.6540  145.5720   19.0030 O.3   1765  MGD1765    -0.3112
     10  C5'      120.7680  146.7120   18.1710 C.3   1765  MGD1765     0.1813
     11  C4'      121.6350  146.2910   17.0070 C.3   1765  MGD1765     0.1799
     12  O4'      121.4770  147.4010   16.1520 O.3   1765  MGD1765    -0.3326
     13  C3'      123.0940  146.1880   17.2910 C.3   1765  MGD1765     0.2158
     14  O3'      123.6180  145.3160   16.3010 O.3   1765  MGD1765    -0.2175
     15  C2'      123.5540  147.6280   17.0820 C.3   1765  MGD1765     0.2310
     16  O2'      124.9130  147.5960   16.8040 O.3   1765  MGD1765    -0.2158
     17  C1'      122.7260  148.0860   15.9020 C.3   1765  MGD1765     0.2293
     18  N9       122.4890  149.5560   15.6990 N.pl3 1765  MGD1765    -0.2354
     19  C8       122.3470  150.4720   16.6400 C.3   1765  MGD1765     0.2246
     20  N7       122.1040  151.7040   16.1630 N.2   1765  MGD1765    -0.2322
     21  C5       122.0300  151.6000   14.8360 C.2   1765  MGD1765     0.2182
     22  C6       121.7390  152.5110   13.6640 C.1   1765  MGD1765     0.2372
     23  O6       121.5390  153.7620   13.7940 O.2   1765  MGD1765    -0.2069
     24  N1       121.7440  151.9130   12.4450 N.2   1765  MGD1765    -0.2485
     25  C2       121.9840  150.5910   12.2370 C.1   1765  MGD1765     0.2531
     26  N2       121.9900  150.0170   11.0120 N.pl3 1765  MGD1765    -0.0226
     27  N3       122.2150  149.7780   13.2570 N.2   1765  MGD1765    -0.3074
     28  C4       122.2790  150.1720   14.5540 C.2   1765  MGD1765     0.2300
     29  C10      115.4770  144.8370   21.0940 C.3   1765  MGD1765     0.1837
     30  C11      114.4880  143.8400   21.5520 C.3   1765  MGD1765     0.1762
     31  O11      115.2360  142.7140   21.9750 O.3   1765  MGD1765    -0.3271
     32  C12      113.5330  144.2610   22.5830 C.2   1765  MGD1765     0.0473
     33  S12      112.6490  145.7090   22.4600 S.2   1765  MGD1765    -0.0526
     34  C13      113.2520  143.5010   23.6240 C.2   1765  MGD1765     0.0449
     35  S13      112.2430  143.8830   24.8630 S.2   1765  MGD1765    -0.0530
     36  C14      113.7340  142.1880   23.8670 C.3   1765  MGD1765     0.1850
     37  N15      114.6020  142.2200   25.0570 N.2   1765  MGD1765    -0.2411
     38  C16      115.2970  141.0630   25.2570 C.2   1765  MGD1765     0.2467
     39  C17      115.7760  140.5420   26.5200 C.1   1765  MGD1765     0.2441
     40  O17      115.6080  141.1930   27.5760 O.2   1765  MGD1765    -0.2063
     41  N18      116.3750  139.3610   26.5200 N.2   1765  MGD1765    -0.2474
     42  C19      116.5680  138.6310   25.4230 C.1   1765  MGD1765     0.2608
     43  N19      117.2460  137.4560   25.4460 N.pl3 1765  MGD1765    -0.0220
     44  N20      116.1210  139.0520   24.2570 N.2   1765  MGD1765    -0.2682
     45  C21      115.5250  140.2170   24.0910 C.1   1765  MGD1765     0.1293
     46  N22      115.1590  140.6200   22.8880 N.2   1765  MGD1765    -0.1763
     47  C23      114.3900  141.7700   22.6090 C.3   1765  MGD1765     0.2573
@<TRIPOS>BOND
     1    26    25    1
     2    25    24    2
     3    25    27    2
     4    24    22    2
     5    27    28    2
     6    22    23    2
     7    22    21    1
     8    28    21    1
     9    28    18    1
    10    21    20    2
    11    18    17    1
    12    18    19    1
    13    17    12    1
    14    17    15    1
    15    12    11    1
    16    20    19    1
    17    14    13    1
    18    16    15    1
    19    11    13    1
    20    11    10    1
    21    15    13    1
    22    10     9    1
    23     8     6    2
    24     9     1    1
    25     7     6    1
    26     6     5    1
    27     6     4    1
    28     5    29    1
    29     4     1    1
    30     1     3    2
    31     1     2    1
    32    29    30    1
    33    30    31    1
    34    30    32    1
    35    31    47    1
    36    33    32    2
    37    32    34    1
    38    47    46    1
    39    47    36    1
    40    46    45    2
    41    34    36    1
    42    34    35    2
    43    36    37    1
    44    45    44    2
    45    45    38    1
    46    44    42    2
    47    37    38    2
    48    38    39    1
    49    42    43    1
    50    42    41    2
    51    39    41    2
    52    39    40    2
