@<TRIPOS>MOLECULE
2vpz_MGD_A_1.pdb
 47 52 0 0 0
SMALL
GASTEIGER

@<TRIPOS>ATOM
      1  PB       121.5230  146.6280   20.8290 P.3   1765  MGD1765     0.2189
      2  O1B      122.2550  145.6080   21.6460 O.3   1765  MGD1765    -0.4371
      3  O2B      121.6680  148.0810   21.1630 O.2   1765  MGD1765    -0.5170
      4  O3B      120.0180  146.0480   20.7730 O.3   1765  MGD1765    -0.2703
      5  O3A      117.7190  145.0570   20.6240 O.3   1765  MGD1765    -0.3109
      6  PA       118.7940  145.8300   19.7330 P.3   1765  MGD1765     0.2189
      7  O1A      118.4440  147.2540   19.3320 O.3   1765  MGD1765    -0.4371
      8  O2A      119.2390  144.8510   18.7050 O.2   1765  MGD1765    -0.5170
      9  O5'      121.9700  146.5150   19.3310 O.3   1765  MGD1765    -0.3112
     10  C5'      122.0840  147.6620   18.4880 C.3   1765  MGD1765     0.1813
     11  C4'      122.9630  147.2410   17.3100 C.3   1765  MGD1765     0.1799
     12  O4'      122.8020  148.3580   16.4430 O.3   1765  MGD1765    -0.3326
     13  C3'      124.4380  147.1410   17.5980 C.3   1765  MGD1765     0.2158
     14  O3'      124.9710  146.2650   16.5960 O.3   1765  MGD1765    -0.2175
     15  C2'      124.8990  148.5920   17.3870 C.3   1765  MGD1765     0.2310
     16  O2'      126.2740  148.5630   17.1080 O.3   1765  MGD1765    -0.2158
     17  C1'      124.0630  149.0510   16.1900 C.3   1765  MGD1765     0.2293
     18  N9       123.8200  150.5290   15.9850 N.pl3 1765  MGD1765    -0.2354
     19  C8       123.6730  151.4510   16.9380 C.3   1765  MGD1765     0.2246
     20  N7       123.4240  152.6900   16.4550 N.2   1765  MGD1765    -0.2322
     21  C5       123.3510  152.5850   15.1100 C.2   1765  MGD1765     0.2182
     22  C6       123.0560  153.5020   13.9210 C.1   1765  MGD1765     0.2372
     23  O6       122.8510  154.7600   14.0530 O.2   1765  MGD1765    -0.2069
     24  N1       123.0640  152.9000   12.6860 N.2   1765  MGD1765    -0.2485
     25  C2       123.3110  151.5700   12.4750 C.1   1765  MGD1765     0.2531
     26  N2       123.3190  150.9930   11.2340 N.pl3 1765  MGD1765    -0.0226
     27  N3       123.5450  150.7520   13.5100 N.2   1765  MGD1765    -0.3074
     28  C4       123.6070  151.1490   14.8240 C.2   1765  MGD1765     0.2300
     29  C10      116.7370  145.7620   21.4440 C.3   1765  MGD1765     0.1837
     30  C11      115.7380  144.7560   21.9070 C.3   1765  MGD1765     0.1762
     31  O11      116.4970  143.6250   22.3370 O.3   1765  MGD1765    -0.3271
     32  C12      114.7710  145.1770   22.9510 C.2   1765  MGD1765     0.0473
     33  S12      113.8740  146.6320   22.8250 S.2   1765  MGD1765    -0.0526
     34  C13      114.4880  144.4120   24.0060 C.2   1765  MGD1765     0.0449
     35  S13      113.4650  144.7940   25.2600 S.2   1765  MGD1765    -0.0530
     36  C14      114.9780  143.0920   24.2530 C.3   1765  MGD1765     0.1850
     37  N15      115.8540  143.1260   25.4590 N.2   1765  MGD1765    -0.2411
     38  C16      116.5590  141.9640   25.6630 C.2   1765  MGD1765     0.2467
     39  C17      117.0430  141.4400   26.9430 C.1   1765  MGD1765     0.2441
     40  O17      116.8710  142.0950   28.0140 O.2   1765  MGD1765    -0.2063
     41  N18      117.6520  140.2530   26.9450 N.2   1765  MGD1765    -0.2474
     42  C19      117.8500  139.5190   25.8330 C.1   1765  MGD1765     0.2608
     43  N19      118.5390  138.3380   25.8570 N.pl3 1765  MGD1765    -0.0220
     44  N20      117.3980  139.9410   24.6500 N.2   1765  MGD1765    -0.2682
     45  C21      116.7930  141.1120   24.4820 C.1   1765  MGD1765     0.1293
     46  N22      116.4240  141.5170   23.2620 N.2   1765  MGD1765    -0.1763
     47  C23      115.6430  142.6720   22.9780 C.3   1765  MGD1765     0.2573
@<TRIPOS>BOND
     1    26    25    1
     2    25    24    2
     3    25    27    2
     4    24    22    2
     5    27    28    2
     6    22    23    2
     7    22    21    1
     8    28    21    1
     9    28    18    1
    10    21    20    2
    11    18    17    1
    12    18    19    1
    13    17    12    1
    14    17    15    1
    15    12    11    1
    16    20    19    1
    17    14    13    1
    18    16    15    1
    19    11    13    1
    20    11    10    1
    21    15    13    1
    22    10     9    1
    23     8     6    2
    24     9     1    1
    25     7     6    1
    26     6     5    1
    27     6     4    1
    28     5    29    1
    29     4     1    1
    30     1     3    2
    31     1     2    1
    32    29    30    1
    33    30    31    1
    34    30    32    1
    35    31    47    1
    36    33    32    2
    37    32    34    1
    38    47    46    1
    39    47    36    1
    40    46    45    2
    41    34    36    1
    42    34    35    2
    43    36    37    1
    44    45    44    2
    45    45    38    1
    46    44    42    2
    47    37    38    2
    48    38    39    1
    49    42    43    1
    50    42    41    2
    51    39    41    2
    52    39    40    2
