@<TRIPOS>MOLECULE
2vq3_NAP_A_1.pdb
 48 52 0 0 0
SMALL
GASTEIGER

@<TRIPOS>ATOM
      1  PA        40.6550  -21.4480   52.2380 P.3   1210  NAP1210     0.2189
      2  O1A       42.0090  -20.9980   51.8460 O.2   1210  NAP1210    -0.5170
      3  O2A       39.6840  -20.3170   52.3470 O.3   1210  NAP1210    -0.4371
      4  O5B       40.7810  -22.3250   53.5740 O.3   1210  NAP1210    -0.3112
      5  C5B       41.8170  -23.2620   53.7780 C.3   1210  NAP1210     0.1813
      6  C4B       41.8870  -23.5200   55.2810 C.3   1210  NAP1210     0.1820
      7  O4B       42.8710  -24.4830   55.5870 O.3   1210  NAP1210    -0.3136
      8  C3B       42.2930  -22.3000   56.1050 C.3   1210  NAP1210     0.2157
      9  O3B       41.1970  -21.4830   56.4330 O.3   1210  NAP1210    -0.2175
     10  C2B       42.9820  -22.8940   57.3220 C.3   1210  NAP1210     0.2314
     11  O2B       42.2600  -22.8270   58.5310 O.3   1210  NAP1210    -0.2630
     12  C1B       43.1410  -24.3650   56.9700 C.3   1210  NAP1210     0.3158
     13  N9A       44.4890  -24.8130   57.3430 N.pl3 1210  NAP1210    -0.1439
     14  C8A       44.7930  -25.8120   58.2350 C.3   1210  NAP1210     0.3377
     15  N7A       46.1380  -25.9030   58.3210 N.2   1210  NAP1210    -0.2095
     16  C5A       46.6800  -24.9680   57.5040 C.2   1210  NAP1210     0.2526
     17  C6A       47.9900  -24.6340   57.2150 C.2   1210  NAP1210     0.4393
     18  N6A       48.9680  -25.3060   57.8020 N.pl3 1210  NAP1210     0.2180
     19  N1A       48.2550  -23.6140   56.3210 N.2   1210  NAP1210     0.0021
     20  C2A       47.2130  -22.9210   55.7200 C.3   1210  NAP1210     0.5254
     21  N3A       45.9060  -23.2630   56.0040 N.2   1210  NAP1210    -0.0055
     22  C4A       45.6540  -24.2700   56.8810 C.2   1210  NAP1210     0.3518
     23  O3        40.0410  -22.5180   51.1920 O.3   1210  NAP1210    -0.2703
     24  PN        38.5230  -23.0490   51.0080 P.3   1210  NAP1210     0.2189
     25  O1N       37.8260  -23.0240   52.3060 O.3   1210  NAP1210    -0.4371
     26  O2N       37.9040  -22.3560   49.8650 O.2   1210  NAP1210    -0.5170
     27  O5D       38.8380  -24.5550   50.5050 O.3   1210  NAP1210    -0.3112
     28  C5D       39.4200  -25.5470   51.3300 C.3   1210  NAP1210     0.1813
     29  C4D       39.1290  -26.9050   50.6920 C.3   1210  NAP1210     0.1799
     30  O4D       37.7640  -26.9730   50.2770 O.3   1210  NAP1210    -0.3327
     31  C3D       39.9910  -27.1220   49.4370 C.3   1210  NAP1210     0.2158
     32  O3D       40.5340  -28.4290   49.3550 O.3   1210  NAP1210    -0.2175
     33  C2D       39.0180  -26.8800   48.3060 C.3   1210  NAP1210     0.2309
     34  O2D       39.3940  -27.5320   47.1110 O.3   1210  NAP1210    -0.2158
     35  C1D       37.6960  -27.3500   48.9180 C.3   1210  NAP1210     0.2263
     36  N1N       36.5180  -26.8610   48.1480 N.pl3 1210  NAP1210    -0.2787
     37  C2N       36.2940  -25.5000   47.9380 C.3   1210  NAP1210     0.1244
     38  C3N       35.1880  -25.0460   47.1750 C.2   1210  NAP1210     0.0544
     39  C7N       34.7020  -23.6050   47.2870 C.2   1210  NAP1210     0.2818
     40  O7N       33.6340  -23.1380   46.4700 O.2   1210  NAP1210    -0.2670
     41  N7N       35.2870  -22.7580   48.1570 N.am  1210  NAP1210    -0.0839
     42  C4N       34.3280  -26.0120   46.6200 C.2   1210  NAP1210     0.0033
     43  C5N       34.5520  -27.3820   46.8260 C.2   1210  NAP1210     0.0157
     44  C6N       35.6660  -27.8010   47.6010 C.2   1210  NAP1210     0.0633
     45  P2B       42.9960  -22.5960   59.9620 P.3   1210  NAP1210     0.5328
     46  O1X       43.7780  -23.8360   60.3140 O.3   1210  NAP1210    -0.1145
     47  O2X       43.8790  -21.3610   59.8660 O.2   1210  NAP1210    -0.2224
     48  O3X       41.9760  -22.3840   61.0520 O.3   1210  NAP1210    -0.1145
@<TRIPOS>BOND
     1    40    39    2
     2    42    43    1
     3    42    38    2
     4    43    44    2
     5    34    33    1
     6    38    39    1
     7    38    37    1
     8    39    41   am
     9    44    36    1
    10    37    36    1
    11    36    35    1
    12    33    35    1
    13    33    31    1
    14    35    30    1
    15    32    31    1
    16    31    29    1
    17    26    24    2
    18    30    29    1
    19    27    24    1
    20    27    28    1
    21    29    28    1
    22    24    23    1
    23    24    25    1
    24    23     1    1
    25     2     1    2
    26     1     3    1
    27     1     4    1
    28     4     5    1
    29     5     6    1
    30     6     7    1
    31     6     8    1
    32     7    12    1
    33    20    21    1
    34    20    19    1
    35    21    22    2
    36     8     9    1
    37     8    10    1
    38    19    17    2
    39    22    13    1
    40    22    16    1
    41    12    10    1
    42    12    13    1
    43    17    16    1
    44    17    18    1
    45    10    11    1
    46    13    14    1
    47    16    15    2
    48    14    15    1
    49    11    45    1
    50    47    45    2
    51    45    46    1
    52    45    48    1
