@<TRIPOS>MOLECULE
2vq5_LDP_B_1.pdb
 11 11 0 0 0
SMALL
GASTEIGER

@<TRIPOS>ATOM
      1  C7        26.7440    3.1660    2.5880 C.3   1197  LDP1197     0.0469
      2  C1        25.9290    4.2820    1.9700 C.ar  1197  LDP1197    -0.0173
      3  C4        24.3470    6.3050    0.8780 C.ar  1197  LDP1197     0.2342
      4  C2        24.5750    4.3560    2.2880 C.ar  1197  LDP1197     0.0412
      5  C6        26.4920    5.2270    1.1080 C.ar  1197  LDP1197    -0.0007
      6  C5        25.7060    6.2420    0.5600 C.ar  1197  LDP1197     0.0451
      7  C3        23.7950    5.3680    1.7380 C.ar  1197  LDP1197     0.2339
      8  O1        22.4740    5.4380    2.0450 O.3   1197  LDP1197    -0.2832
      9  O2        23.5520    7.2810    0.3550 O.3   1197  LDP1197    -0.2831
     10  C8        28.0620    2.9140    1.8690 C.3   1197  LDP1197     0.1140
     11  N1        28.7780    1.9010    2.6200 N.3   1197  LDP1197    -0.1310
@<TRIPOS>BOND
     1     9     3    1
     2     6     3   ar
     3     6     5   ar
     4     3     7   ar
     5     5     2   ar
     6     7     8    1
     7     7     4   ar
     8    10     1    1
     9    10    11    1
    10     2     4   ar
    11     2     1    1
