@<TRIPOS>MOLECULE
2vq6_FP1_A_1.pdb
 10 10 0 0 0
SMALL
GASTEIGER

@<TRIPOS>ATOM
      1  O1         2.3310   68.6680   61.6640 O.3   1536  FP11536    -0.1001
      2  N2         2.8810   68.9380   62.9870 N.4   1536  FP11536    -0.0456
      3  C6         4.3200   69.2190   62.9040 C.3   1536  FP11536     0.1488
      4  C5         4.8800   69.5060   64.3100 C.3   1536  FP11536     0.1153
      5  C4         6.2560   69.7730   64.4040 C.2   1536  FP11536    -0.0052
      6  C3         6.8190   70.0430   65.6720 C.2   1536  FP11536    -0.0016
      7  C2         6.0290   70.0520   66.8340 C.2   1536  FP11536     0.0155
      8  C1         4.6520   69.7870   66.7600 C.2   1536  FP11536     0.0616
      9  N1         4.0680   69.5110   65.4920 N.pl3 1536  FP11536    -0.3012
     10  C7         2.6130   69.2350   65.4790 C.3   1536  FP11536     0.1125
@<TRIPOS>BOND
     1     1     2    1
     2     3     2    1
     3     3     4    1
     4     4     5    1
     5     4     9    1
     6     5     6    2
     7    10     9    1
     8     9     8    1
     9     6     7    1
    10     8     7    2
