@<TRIPOS>MOLECULE
2vq7_NAP_A_1.pdb
 48 52 0 0 0
SMALL
GASTEIGER

@<TRIPOS>ATOM
      1  PA       -15.7140  182.2020  -24.7980 P.3   1452  NAP1452     0.2189
      2  O1A      -15.4640  183.2720  -25.8020 O.2   1452  NAP1452    -0.5170
      3  O2A      -17.1520  181.4880  -24.9470 O.3   1452  NAP1452    -0.4371
      4  O5B      -14.6110  181.0460  -24.8970 O.3   1452  NAP1452    -0.3112
      5  C5B      -15.1810  179.7480  -24.7420 C.3   1452  NAP1452     0.1813
      6  C4B      -13.9400  178.8300  -24.8280 C.3   1452  NAP1452     0.1820
      7  O4B      -13.9970  177.7980  -23.8160 O.3   1452  NAP1452    -0.3136
      8  C3B      -13.8160  178.1170  -26.2070 C.3   1452  NAP1452     0.2157
      9  O3B      -12.4290  178.1090  -26.5880 O.3   1452  NAP1452    -0.2175
     10  C2B      -14.2900  176.6630  -25.9120 C.3   1452  NAP1452     0.2314
     11  O2B      -13.6490  175.6170  -26.6610 O.3   1452  NAP1452    -0.2630
     12  C1B      -13.6720  176.5490  -24.4950 C.3   1452  NAP1452     0.3158
     13  N9A      -14.1870  175.3260  -23.8620 N.pl3 1452  NAP1452    -0.1439
     14  C8A      -15.4810  175.0260  -23.4790 C.3   1452  NAP1452     0.3377
     15  N7A      -15.5180  173.8090  -22.9590 N.2   1452  NAP1452    -0.2095
     16  C5A      -14.2520  173.2600  -22.9940 C.2   1452  NAP1452     0.2526
     17  C6A      -13.6750  172.0340  -22.5860 C.2   1452  NAP1452     0.4393
     18  N6A      -14.4520  171.0440  -22.0000 N.pl3 1452  NAP1452     0.2180
     19  N1A      -12.3600  171.8430  -22.7710 N.2   1452  NAP1452     0.0021
     20  C2A      -11.5970  172.7910  -23.3350 C.3   1452  NAP1452     0.5254
     21  N3A      -12.0900  173.9620  -23.7410 N.2   1452  NAP1452    -0.0055
     22  C4A      -13.3910  174.2270  -23.5850 C.2   1452  NAP1452     0.3518
     23  O3       -15.5460  182.8830  -23.3200 O.3   1452  NAP1452    -0.2703
     24  PN       -14.1200  183.6360  -23.0480 P.3   1452  NAP1452     0.2189
     25  O1N      -12.9340  183.1090  -23.8780 O.2   1452  NAP1452    -0.5170
     26  O2N      -13.8310  183.3700  -21.5340 O.3   1452  NAP1452    -0.4371
     27  O5D      -14.3240  185.2280  -23.2390 O.3   1452  NAP1452    -0.3112
     28  C5D      -15.7190  185.5190  -23.0950 C.3   1452  NAP1452     0.1813
     29  C4D      -15.9200  187.0460  -23.1010 C.3   1452  NAP1452     0.1799
     30  O4D      -14.9770  187.6260  -22.1550 O.3   1452  NAP1452    -0.3327
     31  C3D      -15.6160  187.6460  -24.5090 C.3   1452  NAP1452     0.2158
     32  O3D      -16.5560  188.6770  -24.7900 O.3   1452  NAP1452    -0.2175
     33  C2D      -14.2690  188.3840  -24.3440 C.3   1452  NAP1452     0.2309
     34  O2D      -14.2630  189.6440  -25.0380 O.3   1452  NAP1452    -0.2158
     35  C1D      -14.2710  188.7150  -22.8230 C.3   1452  NAP1452     0.2263
     36  N1N      -12.8640  188.8260  -22.3790 N.pl3 1452  NAP1452    -0.2787
     37  C2N      -12.1830  189.9650  -22.6320 C.3   1452  NAP1452     0.1244
     38  C3N      -10.8350  190.1050  -22.2290 C.2   1452  NAP1452     0.0544
     39  C7N      -10.0870  191.3590  -22.4560 C.2   1452  NAP1452     0.2818
     40  O7N       -8.8900  191.2640  -22.6530 O.2   1452  NAP1452    -0.2670
     41  N7N      -10.6660  192.6040  -22.4200 N.am  1452  NAP1452    -0.0839
     42  C4N      -10.2140  189.0310  -21.5600 C.2   1452  NAP1452     0.0033
     43  C5N      -10.9620  187.8650  -21.3210 C.2   1452  NAP1452     0.0157
     44  C6N      -12.2920  187.7890  -21.7510 C.2   1452  NAP1452     0.0633
     45  P2B      -14.2450  175.3400  -28.1560 P.3   1452  NAP1452     0.5328
     46  O1X      -13.7160  176.6180  -29.0310 O.2   1452  NAP1452    -0.2224
     47  O2X      -13.7380  174.0310  -28.7810 O.3   1452  NAP1452    -0.1145
     48  O3X      -15.8740  175.4560  -28.1890 O.3   1452  NAP1452    -0.1145
@<TRIPOS>BOND
     1    46    45    2
     2    47    45    1
     3    48    45    1
     4    45    11    1
     5    11    10    1
     6     9     8    1
     7     8    10    1
     8     8     6    1
     9    10    12    1
    10     2     1    2
    11    34    33    1
    12     3     1    1
    13     4     1    1
    14     4     5    1
    15     6     5    1
    16     6     7    1
    17     1    23    1
    18    32    31    1
    19    31    33    1
    20    31    29    1
    21    12    13    1
    22    12     7    1
    23    33    35    1
    24    25    24    2
    25    13    22    1
    26    13    14    1
    27    21    22    2
    28    21    20    1
    29    22    16    1
    30    14    15    1
    31    20    19    1
    32    23    24    1
    33    27    28    1
    34    27    24    1
    35    29    28    1
    36    29    30    1
    37    24    26    1
    38    16    15    2
    39    16    17    1
    40    35    36    1
    41    35    30    1
    42    19    17    2
    43    40    39    2
    44    37    36    1
    45    37    38    1
    46    17    18    1
    47    39    41   am
    48    39    38    1
    49    36    44    1
    50    38    42    2
    51    44    43    2
    52    42    43    1
