@<TRIPOS>MOLECULE
2vqb_NAP_A_1.pdb
 48 52 0 0 0
SMALL
GASTEIGER

@<TRIPOS>ATOM
      1  PA       -15.9610  181.6520  -24.4700 P.3   501  NAP501      0.2189
      2  O1A      -15.7220  182.8580  -25.3340 O.2   501  NAP501     -0.5170
      3  O2A      -17.4370  181.0500  -24.7030 O.3   501  NAP501     -0.4371
      4  O5B      -14.8900  180.4820  -24.8060 O.3   501  NAP501     -0.3112
      5  C5B      -15.3670  179.1770  -24.4340 C.3   501  NAP501      0.1813
      6  C4B      -14.1270  178.2660  -24.5490 C.3   501  NAP501      0.1820
      7  O4B      -14.0840  177.2360  -23.5210 O.3   501  NAP501     -0.3136
      8  C3B      -14.0600  177.5790  -25.9420 C.3   501  NAP501      0.2157
      9  O3B      -12.7040  177.6730  -26.4510 O.3   501  NAP501     -0.2175
     10  C2B      -14.4680  176.1150  -25.5940 C.3   501  NAP501      0.2314
     11  O2B      -13.8460  175.0860  -26.3700 O.3   501  NAP501     -0.2630
     12  C1B      -13.7770  175.9900  -24.2150 C.3   501  NAP501      0.3158
     13  N9A      -14.2650  174.7830  -23.5210 N.pl3 501  NAP501     -0.1439
     14  C8A      -15.5460  174.5750  -23.0910 C.3   501  NAP501      0.3377
     15  N7A      -15.6260  173.4050  -22.5190 N.2   501  NAP501     -0.2095
     16  C5A      -14.4140  172.7870  -22.5480 C.2   501  NAP501      0.2526
     17  C6A      -13.9300  171.5390  -22.0890 C.2   501  NAP501      0.4393
     18  N6A      -14.7710  170.6480  -21.4390 N.pl3 501  NAP501      0.2180
     19  N1A      -12.6430  171.2400  -22.2940 N.2   501  NAP501      0.0021
     20  C2A      -11.8280  172.1060  -22.9250 C.3   501  NAP501      0.5254
     21  N3A      -12.2470  173.2860  -23.3810 N.2   501  NAP501     -0.0055
     22  C4A      -13.5180  173.6650  -23.2060 C.2   501  NAP501      0.3518
     23  O3       -15.6730  182.1060  -22.9380 O.3   501  NAP501     -0.2703
     24  PN       -14.3840  182.9310  -22.6480 P.3   501  NAP501      0.2189
     25  O1N      -13.1000  182.6750  -23.5270 O.2   501  NAP501     -0.5170
     26  O2N      -13.9370  182.5850  -21.1190 O.3   501  NAP501     -0.4371
     27  O5D      -14.5320  184.5630  -22.6590 O.3   501  NAP501     -0.3112
     28  C5D      -15.8970  184.9080  -22.9020 C.3   501  NAP501      0.1813
     29  C4D      -16.0570  186.4440  -22.8130 C.3   501  NAP501      0.1799
     30  O4D      -15.1030  187.0410  -21.8800 O.3   501  NAP501     -0.3327
     31  C3D      -15.8430  187.1280  -24.1890 C.3   501  NAP501      0.2158
     32  O3D      -16.8780  188.0870  -24.3450 O.3   501  NAP501     -0.2175
     33  C2D      -14.4730  187.8440  -24.0780 C.3   501  NAP501      0.2309
     34  O2D      -14.4890  189.1180  -24.7500 O.3   501  NAP501     -0.2158
     35  C1D      -14.3740  188.0940  -22.5690 C.3   501  NAP501      0.2263
     36  N1N      -12.9930  188.1800  -22.0710 N.pl3 501  NAP501     -0.2787
     37  C2N      -12.2930  189.2790  -22.3310 C.3   501  NAP501      0.1244
     38  C3N      -10.9850  189.4560  -21.8240 C.2   501  NAP501      0.0544
     39  C7N      -10.2120  190.6850  -22.1190 C.2   501  NAP501      0.2818
     40  O7N       -9.0020  190.5840  -22.2120 O.2   501  NAP501     -0.2670
     41  N7N      -10.8100  191.9050  -22.2780 N.am  501  NAP501     -0.0839
     42  C4N      -10.4090  188.4400  -21.0270 C.2   501  NAP501      0.0033
     43  C5N      -11.1900  187.3060  -20.7750 C.2   501  NAP501      0.0157
     44  C6N      -12.4840  187.2090  -21.3050 C.2   501  NAP501      0.0633
     45  P2B      -14.5280  175.0130  -27.8290 P.3   501  NAP501      0.5328
     46  O1X      -13.9660  176.1040  -28.6700 O.2   501  NAP501     -0.2224
     47  O2X      -14.1530  173.5450  -28.4240 O.3   501  NAP501     -0.1145
     48  O3X      -16.1300  175.1060  -27.7780 O.3   501  NAP501     -0.1145
@<TRIPOS>BOND
     1    46    45    2
     2    47    45    1
     3    45    48    1
     4    45    11    1
     5     9     8    1
     6    11    10    1
     7     8    10    1
     8     8     6    1
     9    10    12    1
    10     2     1    2
    11     4     1    1
    12     4     5    1
    13    34    33    1
    14     3     1    1
    15     6     5    1
    16     6     7    1
    17     1    23    1
    18    32    31    1
    19    12     7    1
    20    12    13    1
    21    31    33    1
    22    31    29    1
    23    33    35    1
    24    25    24    2
    25    13    22    1
    26    13    14    1
    27    21    22    2
    28    21    20    1
    29    22    16    1
    30    14    15    1
    31    23    24    1
    32    20    19    1
    33    28    29    1
    34    28    27    1
    35    29    30    1
    36    27    24    1
    37    24    26    1
    38    35    36    1
    39    35    30    1
    40    16    15    2
    41    16    17    1
    42    37    36    1
    43    37    38    1
    44    19    17    2
    45    41    39   am
    46    40    39    2
    47    39    38    1
    48    17    18    1
    49    36    44    1
    50    38    42    2
    51    44    43    2
    52    42    43    1
