@<TRIPOS>MOLECULE
2vqd_AP2_A_1.pdb
 27 29 0 0 0
SMALL
GASTEIGER

@<TRIPOS>ATOM
      1  PB         5.2220   29.6880   12.5810 P.3   1448  AP21448     0.1295
      2  O1B        4.6430   28.3050   12.4580 O.3   1448  AP21448    -0.3567
      3  O2B        5.0870   30.2710   13.9630 O.3   1448  AP21448    -0.3567
      4  O3B        6.6140   29.8490   12.0110 O.2   1448  AP21448    -0.4595
      5  C3A        4.1600   30.8030   11.6730 C.3   1448  AP21448     0.1765
      6  PA         3.5340   30.0950   10.1520 P.3   1448  AP21448     0.3770
      7  O1A        3.8270   31.0860    9.0550 O.2   1448  AP21448    -0.2550
      8  O2A        3.9660   28.6710    9.9280 O.3   1448  AP21448    -0.1394
      9  O5'        1.9680   30.0490   10.3760 O.3   1448  AP21448    -0.2897
     10  C5'        1.4160   29.1750   11.3510 C.3   1448  AP21448     0.1836
     11  C4'       -0.0880   29.3980   11.3850 C.3   1448  AP21448     0.1822
     12  O4'       -0.3990   30.7940   11.4730 O.3   1448  AP21448    -0.3135
     13  C3'       -0.7720   28.8890   10.1280 C.3   1448  AP21448     0.2184
     14  O3'       -1.0770   27.4950   10.1830 O.3   1448  AP21448    -0.2174
     15  C2'       -2.0180   29.7430   10.1160 C.3   1448  AP21448     0.2570
     16  O2'       -3.0030   29.1690   10.9680 O.3   1448  AP21448    -0.2130
     17  C1'       -1.5310   31.0840   10.6550 C.3   1448  AP21448     0.3186
     18  N9        -1.1600   31.9390    9.5010 N.pl3 1448  AP21448    -0.1439
     19  C8         0.0810   32.1290    8.9890 C.3   1448  AP21448     0.3377
     20  N7         0.0510   32.9660    7.9250 N.2   1448  AP21448    -0.2095
     21  C5        -1.2360   33.3200    7.7380 C.2   1448  AP21448     0.2526
     22  C6        -1.9820   34.1650    6.7770 C.2   1448  AP21448     0.4393
     23  N6        -1.3230   34.8180    5.7960 N.pl3 1448  AP21448     0.2180
     24  N1        -3.3270   34.2640    6.9230 N.2   1448  AP21448     0.0021
     25  C2        -3.9910   33.6090    7.9030 C.3   1448  AP21448     0.5254
     26  N3        -3.3730   32.8220    8.8050 N.2   1448  AP21448    -0.0055
     27  C4        -2.0290   32.6370    8.7740 C.2   1448  AP21448     0.3518
@<TRIPOS>BOND
     1    23    22    1
     2    22    24    2
     3    22    21    1
     4    24    25    1
     5    21    20    2
     6    21    27    1
     7    25    26    1
     8    20    19    1
     9    27    26    2
    10    27    18    1
    11    19    18    1
    12     7     6    2
    13    18    17    1
    14     8     6    1
    15    15    13    1
    16    15    17    1
    17    15    16    1
    18    13    14    1
    19    13    11    1
    20     6     9    1
    21     6     5    1
    22     9    10    1
    23    17    12    1
    24    10    11    1
    25    11    12    1
    26     5     1    1
    27     4     1    2
    28     2     1    1
    29     1     3    1
