@<TRIPOS>MOLECULE
2vqi_C8E_B_1.pdb
 21 20 0 0 0
SMALL
GASTEIGER

@<TRIPOS>ATOM
      1  C1         5.3700   66.7240   -6.9980 C.3   1637  C8E1637     0.0000
      2  C2         5.7840   65.2590   -6.9350 C.3   1637  C8E1637     0.0000
      3  C3         6.5660   64.8580   -8.1800 C.3   1637  C8E1637     0.0000
      4  C4         6.4750   63.3560   -8.4220 C.3   1637  C8E1637     0.0000
      5  C5         7.3160   62.9450   -9.6250 C.3   1637  C8E1637     0.0001
      6  C6         6.5940   61.8970  -10.4630 C.3   1637  C8E1637     0.0026
      7  C7         7.4370   61.4820  -11.6630 C.3   1637  C8E1637     0.0321
      8  C8         7.2930   59.9910  -11.9420 C.3   1637  C8E1637     0.1423
      9  O9         7.8090   59.7000  -13.2220 O.3   1637  C8E1637    -0.3511
     10  C10        8.4290   58.4340  -13.2610 C.3   1637  C8E1637     0.1741
     11  C11        9.3900   58.3760  -14.4430 C.3   1637  C8E1637     0.1742
     12  O12        9.6530   59.6840  -14.8990 O.3   1637  C8E1637    -0.3484
     13  C13        9.9100   60.5690  -13.8320 C.3   1637  C8E1637     0.1742
     14  C14       11.2520   61.2560  -14.0540 C.3   1637  C8E1637     0.1742
     15  O15       11.0490   62.6410  -14.2220 O.3   1637  C8E1637    -0.3484
     16  C16       11.8010   63.1540  -15.2990 C.3   1637  C8E1637     0.1742
     17  C17       11.3140   64.5590  -15.6360 C.3   1637  C8E1637     0.1742
     18  O18       11.6250   65.4310  -14.5730 O.3   1637  C8E1637    -0.3483
     19  C19       11.5140   66.7840  -14.9560 C.3   1637  C8E1637     0.1777
     20  C20       10.8520   67.5760  -13.8360 C.3   1637  C8E1637     0.2140
     21  O21       10.8690   68.9490  -14.1570 O.3   1637  C8E1637    -0.2176
@<TRIPOS>BOND
     1    17    16    1
     2    17    18    1
     3    16    15    1
     4    19    18    1
     5    19    20    1
     6    12    11    1
     7    12    13    1
     8    11    10    1
     9    15    14    1
    10    21    20    1
    11    14    13    1
    12    10     9    1
    13     9     8    1
    14     8     7    1
    15     7     6    1
    16     6     5    1
    17     5     4    1
    18     4     3    1
    19     3     2    1
    20     1     2    1
