@<TRIPOS>MOLECULE
2vqj_TFG_A_1.pdb
 29 32 0 0 0
SMALL
GASTEIGER

@<TRIPOS>ATOM
      1  C14       17.4590   74.0380   43.3590 C.ar  1414  TFG1414     0.0015
      2  C15       17.1750   74.2930   44.6940 C.ar  1414  TFG1414     0.0000
      3  C16       17.1960   75.5990   45.1830 C.ar  1414  TFG1414     0.0000
      4  C17       17.5070   76.6620   44.3370 C.ar  1414  TFG1414     0.0000
      5  C18       17.7910   76.4020   42.9980 C.ar  1414  TFG1414     0.0015
      6  C13       17.7600   75.0950   42.5000 C.ar  1414  TFG1414     0.0174
      7  C19       18.0830   74.8260   41.1680 C.ar  1414  TFG1414     0.0802
      8  C12       17.6760   73.8730   40.3310 C.ar  1414  TFG1414     0.1174
      9  N3        18.3120   74.0180   39.1600 N.ar  1414  TFG1414    -0.2276
     10  C11       19.1490   75.0510   39.2300 C.ar  1414  TFG1414     0.1408
     11  C10       20.1030   75.6110   38.1580 C.3   1414  TFG1414     0.1579
     12  N2        19.0310   75.5890   40.5150 N.ar  1414  TFG1414    -0.3117
     13  C9        19.7830   76.7560   40.9870 C.3   1414  TFG1414     0.1287
     14  C8        20.9710   76.9710   40.1040 C.3   1414  TFG1414     0.1186
     15  N1        20.5870   76.8860   38.6760 N.am  1414  TFG1414    -0.2666
     16  C7        20.6840   78.0160   37.9880 C.2   1414  TFG1414     0.2554
     17  O1        21.1230   78.9710   38.6340 O.2   1414  TFG1414    -0.2693
     18  C4        20.4730   78.2510   36.4970 C.ar  1414  TFG1414     0.0829
     19  S1        20.1870   79.7750   35.8800 S.2   1414  TFG1414    -0.0792
     20  C3        20.6420   77.4050   35.4750 C.ar  1414  TFG1414     0.0115
     21  C2        20.4860   77.9730   34.2490 C.ar  1414  TFG1414     0.0104
     22  C1        20.2200   79.2970   34.2650 C.ar  1414  TFG1414     0.0988
     23  C5        20.0180   80.2860   33.0780 C.3   1414  TFG1414     0.4599
     24  C6        19.6110   79.6320   31.7570 C.3   1414  TFG1414     0.4819
     25  F1        20.4430   78.6420   31.4460 F     1414  TFG1414    -0.1631
     26  F2        18.3690   79.2160   31.8450 F     1414  TFG1414    -0.1631
     27  F3        19.6670   80.5430   30.8120 F     1414  TFG1414    -0.1631
     28  O3        19.0660   81.3140   33.4170 O.2   1414  TFG1414    -0.2605
     29  O2        21.2750   80.9910   32.8330 O.2   1414  TFG1414    -0.2605
@<TRIPOS>BOND
     1    27    24    1
     2    25    24    1
     3    24    26    1
     4    24    23    1
     5    29    23    1
     6    23    28    1
     7    23    22    1
     8    21    22   ar
     9    21    20   ar
    10    22    19   ar
    11    20    18   ar
    12    19    18   ar
    13    18    16    1
    14    16    17    2
    15    16    15   am
    16    11    15    1
    17    11    10    1
    18    15    14    1
    19     9    10   ar
    20     9     8   ar
    21    10    12   ar
    22    14    13    1
    23     8     7   ar
    24    12    13    1
    25    12     7   ar
    26     7     6    1
    27     6     5   ar
    28     6     1   ar
    29     5     4   ar
    30     1     2   ar
    31     4     3   ar
    32     2     3   ar
