@<TRIPOS>MOLECULE
2vqm_HA3_A_1.pdb
 26 29 0 0 0
SMALL
GASTEIGER

@<TRIPOS>ATOM
      1  CAA       17.3680   -5.0840   -9.3040 C.ar  1410  HA31410     0.0015
      2  CAB       17.0230   -5.2880  -10.6380 C.ar  1410  HA31410     0.0000
      3  CAC       17.0750   -6.5700  -11.1940 C.ar  1410  HA31410     0.0000
      4  CAD       17.4880   -7.6460  -10.4020 C.ar  1410  HA31410     0.0000
      5  CAE       17.8380   -7.4380   -9.0710 C.ar  1410  HA31410     0.0015
      6  CAF       17.7780   -6.1520   -8.5000 C.ar  1410  HA31410     0.0174
      7  CAG       18.1470   -5.9070   -7.1670 C.ar  1410  HA31410     0.0802
      8  CAH       17.7870   -4.9090   -6.3450 C.ar  1410  HA31410     0.1174
      9  NAI       18.4090   -5.0470   -5.1610 N.ar  1410  HA31410    -0.2276
     10  CAJ       19.1990   -6.1210   -5.1680 C.ar  1410  HA31410     0.1408
     11  CAK       20.1230   -6.6990   -4.0480 C.3   1410  HA31410     0.1579
     12  NAL       19.0580   -6.7030   -6.4590 N.ar  1410  HA31410    -0.3117
     13  CAM       19.7760   -7.9120   -6.8620 C.3   1410  HA31410     0.1287
     14  CAN       21.0040   -8.0170   -6.0080 C.3   1410  HA31410     0.1186
     15  NAO       20.6060   -7.9870   -4.5940 N.am  1410  HA31410    -0.2666
     16  CAP       20.6270   -9.1590   -3.9700 C.2   1410  HA31410     0.2554
     17  OAQ       21.0230  -10.1520   -4.6000 O.2   1410  HA31410    -0.2693
     18  CAR       20.3530   -9.3820   -2.5220 C.ar  1410  HA31410     0.0831
     19  SAS       19.8070  -10.8420   -1.9240 S.2   1410  HA31410    -0.0805
     20  CAT       20.6990   -8.5630   -1.5270 C.ar  1410  HA31410     0.0116
     21  CAU       20.4490   -9.0700   -0.3000 C.ar  1410  HA31410     0.0090
     22  CAV       19.9460  -10.3070   -0.3350 C.ar  1410  HA31410     0.0523
     23  CAW       19.5660  -11.1530    0.8670 C.2   1410  HA31410     0.1163
     24  OAY       19.3640  -12.3580    0.7130 O.2   1410  HA31410    -0.5356
     25  NAX       19.5020  -10.5070    2.0410 N.am  1410  HA31410    -0.1979
     26  OAZ       19.1660  -11.2050    3.1600 O.3   1410  HA31410    -0.4023
@<TRIPOS>BOND
     1     3     2   ar
     2     3     4   ar
     3     2     1   ar
     4     4     5   ar
     5     1     6   ar
     6     5     6   ar
     7     6     7    1
     8     7    12   ar
     9     7     8   ar
    10    13    12    1
    11    13    14    1
    12    12    10   ar
    13     8     9   ar
    14    14    15    1
    15    10     9   ar
    16    10    11    1
    17    17    16    2
    18    15    11    1
    19    15    16   am
    20    16    18    1
    21    18    19   ar
    22    18    20   ar
    23    19    22   ar
    24    20    21   ar
    25    22    21   ar
    26    22    23    1
    27    24    23    2
    28    23    25   am
    29    25    26    1
