@<TRIPOS>MOLECULE
2vqo_TFG_A_1.pdb
 29 32 0 0 0
SMALL
GASTEIGER

@<TRIPOS>ATOM
      1  C14       15.2080   12.9310   30.2060 C.ar  1410  TFG1410     0.0015
      2  C15       15.2310   14.2830   30.5230 C.ar  1410  TFG1410     0.0000
      3  C16       14.2230   14.8310   31.3120 C.ar  1410  TFG1410     0.0000
      4  C17       13.1890   14.0230   31.7800 C.ar  1410  TFG1410     0.0000
      5  C18       13.1680   12.6660   31.4670 C.ar  1410  TFG1410     0.0015
      6  C13       14.1900   12.1100   30.6890 C.ar  1410  TFG1410     0.0174
      7  C19       14.1790   10.7600   30.3230 C.ar  1410  TFG1410     0.0802
      8  C12       15.1680    9.8770   30.2190 C.ar  1410  TFG1410     0.1174
      9  N3        14.6690    8.7090   29.7910 N.ar  1410  TFG1410    -0.2276
     10  C11       13.3590    8.8210   29.5980 C.ar  1410  TFG1410     0.1408
     11  C10       12.3450    7.7580   29.1050 C.3   1410  TFG1410     0.1579
     12  N2        13.0060   10.1320   29.9240 N.ar  1410  TFG1410    -0.3117
     13  C9        11.6330   10.6420   29.8410 C.3   1410  TFG1410     0.1287
     14  C8        10.7760    9.7220   29.0150 C.3   1410  TFG1410     0.1186
     15  N1        11.0140    8.3120   29.3870 N.am  1410  TFG1410    -0.2666
     16  C7        10.0240    7.6700   30.0200 C.2   1410  TFG1410     0.2554
     17  O1         8.9780    8.3030   30.1740 O.2   1410  TFG1410    -0.2693
     18  C4         9.9650    6.2030   30.4270 C.ar  1410  TFG1410     0.0829
     19  S1         8.9400    5.6540   31.6090 S.2   1410  TFG1410    -0.0792
     20  C3        10.5480    5.1390   29.8500 C.ar  1410  TFG1410     0.0115
     21  C2        10.2000    3.9520   30.4020 C.ar  1410  TFG1410     0.0104
     22  C1         9.3060    4.0480   31.4060 C.ar  1410  TFG1410     0.0988
     23  C6         9.4260    1.6080   32.2100 C.3   1410  TFG1410     0.4819
     24  F1        10.6510    1.8060   32.6510 F     1410  TFG1410    -0.1631
     25  F2         8.8100    0.7370   32.9870 F     1410  TFG1410    -0.1631
     26  F3         9.4620    1.1230   30.9610 F     1410  TFG1410    -0.1631
     27  O3         7.3540    2.6620   31.6420 O.2   1410  TFG1410    -0.2605
     28  O2         8.3570    3.3570   33.5730 O.2   1410  TFG1410    -0.2605
     29  C5         8.6470    2.9270   32.2320 C.3   1410  TFG1410     0.4599
@<TRIPOS>BOND
     1    14    15    1
     2    14    13    1
     3    11    15    1
     4    11    10    1
     5    15    16   am
     6    10     9   ar
     7    10    12   ar
     8     9     8   ar
     9    13    12    1
    10    20    21   ar
    11    20    18   ar
    12    12     7   ar
    13    16    17    2
    14    16    18    1
    15     1     2   ar
    16     1     6   ar
    17     8     7   ar
    18     7     6    1
    19    21    22   ar
    20    18    19   ar
    21     2     3   ar
    22     6     5   ar
    23    26    23    1
    24     3     4   ar
    25    22    19   ar
    26    22    29    1
    27     5     4   ar
    28    27    29    1
    29    23    29    1
    30    23    24    1
    31    23    25    1
    32    29    28    1
