@<TRIPOS>MOLECULE
2vqq_TFG_A_1.pdb
 29 32 0 0 0
SMALL
GASTEIGER

@<TRIPOS>ATOM
      1  C14      -14.0590   12.0600  -11.7750 C.ar  1410  TFG1410     0.0015
      2  C15      -14.0300   13.4150  -11.4500 C.ar  1410  TFG1410     0.0000
      3  C16      -15.0720   13.9640  -10.7020 C.ar  1410  TFG1410     0.0000
      4  C17      -16.1360   13.1500  -10.3070 C.ar  1410  TFG1410     0.0000
      5  C18      -16.1540   11.7930  -10.6370 C.ar  1410  TFG1410     0.0015
      6  C13      -15.1050   11.2290  -11.3670 C.ar  1410  TFG1410     0.0174
      7  C19      -15.0900    9.8740  -11.7460 C.ar  1410  TFG1410     0.0802
      8  C12      -14.0870    9.0020  -11.8370 C.ar  1410  TFG1410     0.1174
      9  N3       -14.5420    7.8200  -12.2840 N.ar  1410  TFG1410    -0.2276
     10  C11      -15.8560    7.9040  -12.5020 C.ar  1410  TFG1410     0.1408
     11  C10      -16.8660    6.8320  -13.0220 C.3   1410  TFG1410     0.1579
     12  N2       -16.2310    9.2190  -12.1590 N.ar  1410  TFG1410    -0.3117
     13  C9       -17.5980    9.7330  -12.2450 C.3   1410  TFG1410     0.1287
     14  C8       -18.4830    8.7880  -12.9760 C.3   1410  TFG1410     0.1186
     15  N1       -18.1910    7.3690  -12.6680 N.am  1410  TFG1410    -0.2666
     16  C7       -19.1480    6.7400  -11.9760 C.2   1410  TFG1410     0.2554
     17  O1       -20.1770    7.3890  -11.7590 O.2   1410  TFG1410    -0.2693
     18  C4       -19.2540    5.2790  -11.6280 C.ar  1410  TFG1410     0.0829
     19  S1       -20.2500    4.7380  -10.4180 S.2   1410  TFG1410    -0.0792
     20  C3       -18.7880    4.2400  -12.3350 C.ar  1410  TFG1410     0.0115
     21  C2       -19.1730    3.0290  -11.8550 C.ar  1410  TFG1410     0.0104
     22  C1       -20.0080    3.1070  -10.7940 C.ar  1410  TFG1410     0.0988
     23  C6       -19.9280    0.6380   -9.9250 C.3   1410  TFG1410     0.4819
     24  F1       -20.7970   -0.1930   -9.3920 F     1410  TFG1410    -0.1631
     25  F2       -19.5630    0.1760  -11.1340 F     1410  TFG1410    -0.1631
     26  F3       -18.8670    0.7290   -9.1330 F     1410  TFG1410    -0.1631
     27  O3       -21.9820    1.6700  -10.6730 O.2   1410  TFG1410    -0.2605
     28  O2       -21.0360    2.4530   -8.7190 O.2   1410  TFG1410    -0.2605
     29  C5       -20.6850    1.9750  -10.0200 C.3   1410  TFG1410     0.4599
@<TRIPOS>BOND
     1    11    15    1
     2    11    10    1
     3    14    15    1
     4    14    13    1
     5    15    16   am
     6    10     9   ar
     7    10    12   ar
     8    20    21   ar
     9    20    18   ar
    10     9     8   ar
    11    13    12    1
    12    12     7   ar
    13    16    17    2
    14    16    18    1
    15    21    22   ar
    16     8     7   ar
    17     1     2   ar
    18     1     6   ar
    19     7     6    1
    20    18    19   ar
    21     2     3   ar
    22     6     5   ar
    23    25    23    1
    24    22    19   ar
    25    22    29    1
    26     3     4   ar
    27    27    29    1
    28     5     4   ar
    29    29    23    1
    30    29    28    1
    31    23    24    1
    32    23    26    1
