@<TRIPOS>MOLECULE
2vqs_BVD_A_1.pdb
 19 20 0 0 0
SMALL
GASTEIGER

@<TRIPOS>ATOM
      1  O5'       23.2650   14.6830   -7.4070 O.3   1210  BVD1210    -0.2176
      2  C5'       23.7910   15.1040   -8.6710 C.3   1210  BVD1210     0.2141
      3  C4'       23.1470   14.2970   -9.8000 C.3   1210  BVD1210     0.1802
      4  O4'       22.5130   13.1310   -9.2900 O.3   1210  BVD1210    -0.3338
      5  C1'       21.1170   13.1470   -9.6040 C.3   1210  BVD1210     0.2090
      6  N1        20.3690   12.4600   -8.5550 N.am  1210  BVD1210    -0.1794
      7  C6        20.6790   12.6940   -7.2820 C.2   1210  BVD1210     0.0877
      8  C2        19.3760   11.5080   -8.8950 C.1   1210  BVD1210     0.2844
      9  O2        19.0880   11.2770  -10.0770 O.2   1210  BVD1210    -0.1918
     10  N3        18.6910   10.8330   -7.9790 N.2   1210  BVD1210    -0.2455
     11  C4        18.9330   11.0190   -6.6900 C.1   1210  BVD1210     0.2134
     12  O4        18.2790   10.3620   -5.8380 O.2   1210  BVD1210    -0.2088
     13  C5        19.9770   12.0080   -6.3180 C.2   1210  BVD1210     0.0896
     14  C5A       20.2910   12.2390   -4.9280 C.3   1210  BVD1210     0.0529
     15  C5B       19.4790   11.6470   -4.0940 C.3   1210  BVD1210     0.0731
     16 BR         19.8550   11.8860   -2.2620 Br    1210  BVD1210    -0.0804
     17  C2'       20.7360   14.5960   -9.8570 C.3   1210  BVD1210     0.0874
     18  C3'       22.0340   15.0680  -10.4960 C.3   1210  BVD1210     0.1858
     19  O3'       22.0620   14.6980  -11.8820 O.3   1210  BVD1210    -0.2203
@<TRIPOS>BOND
     1    19    18    1
     2    18    17    1
     3    18     3    1
     4     9     8    2
     5    17     5    1
     6     3     4    1
     7     3     2    1
     8     5     4    1
     9     5     6    1
    10     8     6   am
    11     8    10    2
    12     2     1    1
    13     6     7    1
    14    10    11    2
    15     7    13    2
    16    11    13    1
    17    11    12    2
    18    13    14    1
    19    14    15    1
    20    15    16    1
