@<TRIPOS>MOLECULE
2vqt_15A_A_1.pdb
 15 15 0 0 0
SMALL
GASTEIGER

@<TRIPOS>ATOM
      1  O6        26.8870   49.7360   -3.5530 O.3   1865  15A1865    -0.2155
      2  C6        25.9940   49.6520   -2.5910 C.3   1865  15A1865     0.2377
      3  C5        26.3510   48.4220   -1.7190 C.3   1865  15A1865     0.2800
      4  C4        27.5270   48.5780   -0.7100 C.3   1865  15A1865     0.2365
      5  O4        27.2290   49.5370    0.2070 O.3   1865  15A1865    -0.2155
      6  C3        27.9770   47.2330   -0.0400 C.3   1865  15A1865     0.2288
      7  O3        29.2890   47.1180    0.0840 O.3   1865  15A1865    -0.2168
      8  C2        27.4200   45.9670   -0.7780 C.3   1865  15A1865     0.2920
      9  O2        28.0270   44.7830   -0.4910 O.3   1865  15A1865    -0.2070
     10  N5        26.5860   47.3310   -2.5920 N.2   1865  15A1865    -0.0629
     11  C1        27.3150   46.2420   -2.2690 C.2   1865  15A1865     0.3653
     12  N1        27.8990   45.4260   -3.1680 N.pl3 1865  15A1865    -0.0317
     13  C7        28.1310   45.7100   -4.5470 C.3   1865  15A1865     0.2713
     14  C8        29.3210   46.6510   -4.9110 C.3   1865  15A1865     0.1645
     15  N2        30.6010   45.9580   -4.6720 N.3   1865  15A1865    -0.1267
@<TRIPOS>BOND
     1    14    15    1
     2    14    13    1
     3    13    12    1
     4     1     2    1
     5    12    11    1
     6    10    11    2
     7    10     3    1
     8     2     3    1
     9    11     8    1
    10     3     4    1
    11     8     9    1
    12     8     6    1
    13     4     6    1
    14     4     5    1
    15     6     7    1
