@<TRIPOS>MOLECULE
2vqu_NOY_A_1.pdb
 11 11 0 0 0
SMALL
GASTEIGER

@<TRIPOS>ATOM
      1  O4        26.8050   49.4820   -0.5270 O.3   1866  NOY1866    -0.2201
      2  C4        27.4940   48.3620   -1.1340 C.3   1866  NOY1866     0.1901
      3  C3        27.5940   47.1540   -0.1980 C.3   1866  NOY1866     0.2291
      4  O3        28.1950   47.5360    1.0630 O.3   1866  NOY1866    -0.2161
      5  C2        28.3560   46.0100   -0.8700 C.3   1866  NOY1866     0.2586
      6  N         27.8450   45.7320   -2.2390 N.3   1866  NOY1866    -0.1868
      7  C7        27.6400   46.8650   -3.1530 C.3   1866  NOY1866     0.0966
      8  C5        26.8020   47.9390   -2.4530 C.3   1866  NOY1866     0.0836
      9  C6        26.4950   49.1290   -3.3840 C.3   1866  NOY1866     0.1861
     10  O2        28.3680   44.7980   -0.0890 O.3   1866  NOY1866    -0.2007
     11  O6        27.6800   49.7620   -3.8530 O.3   1866  NOY1866    -0.2203
@<TRIPOS>BOND
     1    11     9    1
     2     9     8    1
     3     7     8    1
     4     7     6    1
     5     8     2    1
     6     6     5    1
     7     2     1    1
     8     2     3    1
     9     5     3    1
    10     5    10    1
    11     3     4    1
