@<TRIPOS>MOLECULE
2vqv_HA3_A_1.pdb
 26 29 0 0 0
SMALL
GASTEIGER

@<TRIPOS>ATOM
      1  CAA       15.7890   12.3990   30.7410 C.ar  1409  HA31409     0.0015
      2  CAB       15.9520   13.7300   31.1040 C.ar  1409  HA31409     0.0000
      3  CAC       14.9720   14.3560   31.8710 C.ar  1409  HA31409     0.0000
      4  CAD       13.8340   13.6690   32.2760 C.ar  1409  HA31409     0.0000
      5  CAE       13.6810   12.3380   31.9190 C.ar  1409  HA31409     0.0015
      6  CAF       14.6530   11.7020   31.1510 C.ar  1409  HA31409     0.0174
      7  CAG       14.4980   10.3680   30.7820 C.ar  1409  HA31409     0.0802
      8  CAH       15.4250    9.4200   30.6270 C.ar  1409  HA31409     0.1174
      9  NAI       14.8360    8.2770   30.2540 N.ar  1409  HA31409    -0.2276
     10  CAJ       13.5230    8.4780   30.1640 C.ar  1409  HA31409     0.1408
     11  CAK       12.4220    7.4820   29.7760 C.3   1409  HA31409     0.1579
     12  NAL       13.2610    9.8140   30.4980 N.ar  1409  HA31409    -0.3117
     13  CAM       11.8930   10.3780   30.4990 C.3   1409  HA31409     0.1287
     14  CAN       11.0560    9.5910   29.5150 C.3   1409  HA31409     0.1186
     15  NAO       11.1310    8.1850   29.9250 N.am  1409  HA31409    -0.2666
     16  CAP       10.0420    7.6490   30.4580 C.2   1409  HA31409     0.2554
     17  OAQ        9.0300    8.3380   30.5360 O.2   1409  HA31409    -0.2693
     18  CAR        9.9140    6.2250   30.9150 C.ar  1409  HA31409     0.0831
     19  SAS        9.1450    5.7940   32.3010 S.2   1409  HA31409    -0.0805
     20  CAT       10.3030    5.1350   30.2520 C.ar  1409  HA31409     0.0116
     21  CAU       10.0020    3.9770   30.8760 C.ar  1409  HA31409     0.0090
     22  CAV        9.3620    4.1560   32.0370 C.ar  1409  HA31409     0.0523
     23  CAW        8.8570    3.0690   32.9620 C.2   1409  HA31409     0.1163
     24  OAY        8.3520    3.3590   34.0440 O.2   1409  HA31409    -0.5356
     25  NAX        8.9350    1.8310   32.4860 N.am  1409  HA31409    -0.1979
     26  OAZ        8.4740    0.8180   33.2570 O.3   1409  HA31409    -0.4023
@<TRIPOS>BOND
     1    14    15    1
     2    14    13    1
     3    11    15    1
     4    11    10    1
     5    15    16   am
     6    10     9   ar
     7    10    12   ar
     8    20    21   ar
     9    20    18   ar
    10     9     8   ar
    11    16    17    2
    12    16    18    1
    13    12    13    1
    14    12     7   ar
    15     8     7   ar
    16     1     2   ar
    17     1     6   ar
    18     7     6    1
    19    21    22   ar
    20    18    19   ar
    21     2     3   ar
    22     6     5   ar
    23     3     4   ar
    24     5     4   ar
    25    22    19   ar
    26    22    23    1
    27    25    23   am
    28    25    26    1
    29    23    24    2
