@<TRIPOS>MOLECULE
2vqy_PAR_A_1.pdb
 42 45 0 0 0
SMALL
GASTEIGER

@<TRIPOS>ATOM
      1  C11       14.8110    9.4780   11.8220 C.3   1201  PAR1201     0.2561
      2  O11       14.5010   10.8820   11.9020 O.3   1201  PAR1201    -0.3278
      3  C21       14.4000    8.8630   10.4670 C.3   1201  PAR1201     0.1807
      4  N21       14.9780    9.6800    9.3990 N.3   1201  PAR1201    -0.1248
      5  C31       12.8510    8.8600   10.3700 C.3   1201  PAR1201     0.2070
      6  O31       12.4010    8.3400    9.0930 O.3   1201  PAR1201    -0.2186
      7  C41       12.2410    8.1090   11.5770 C.3   1201  PAR1201     0.2133
      8  O41       10.7910    8.1280   11.5580 O.3   1201  PAR1201    -0.2176
      9  C51       12.7560    8.7410   12.9150 C.3   1201  PAR1201     0.1834
     10  O51       14.2500    8.8440   12.9150 O.3   1201  PAR1201    -0.3264
     11  C61       12.4000    7.8890   14.1400 C.3   1201  PAR1201     0.2142
     12  O61       12.3270    8.7280   15.3150 O.3   1201  PAR1201    -0.2176
     13  C12       16.2830   14.3310   13.4890 C.3   1201  PAR1201     0.1261
     14  N12       17.1160   15.2760   14.2560 N.3   1201  PAR1201    -0.1301
     15  C22       15.2980   13.5680   14.4130 C.3   1201  PAR1201     0.0433
     16  C32       14.4490   12.6550   13.5130 C.3   1201  PAR1201     0.1230
     17  N32       13.4280   11.9630   14.3490 N.3   1201  PAR1201    -0.1302
     18  C42       15.3800   11.6130   12.7980 C.3   1201  PAR1201     0.1649
     19  C52       16.4160   12.3390   11.8940 C.3   1201  PAR1201     0.1779
     20  O52       17.3890   11.3580   11.4240 O.3   1201  PAR1201    -0.3258
     21  C62       17.2110   13.3080   12.7960 C.3   1201  PAR1201     0.1989
     22  O62       18.1480   13.9600   11.9450 O.3   1201  PAR1201    -0.2189
     23  C13       17.8460   11.5910   10.0620 C.3   1201  PAR1201     0.2694
     24  C23       19.3930   11.5830   10.0710 C.3   1201  PAR1201     0.2373
     25  O23       19.9190   12.8940   10.1840 O.3   1201  PAR1201    -0.2150
     26  C33       19.6970   10.9870    8.6770 C.3   1201  PAR1201     0.1827
     27  O33       19.3460   12.0060    7.6890 O.3   1201  PAR1201    -0.3265
     28  C43       18.6440    9.8760    8.6030 C.3   1201  PAR1201     0.1804
     29  O43       17.4920   10.3360    9.3870 O.3   1201  PAR1201    -0.3257
     30  C53       19.1610    8.5740    9.2630 C.3   1201  PAR1201     0.2141
     31  O53       19.6900    8.9060   10.5660 O.3   1201  PAR1201    -0.2176
     32  C14       19.5290   11.5690    6.3330 C.3   1201  PAR1201     0.2561
     33  C24       20.2640   12.6790    5.5570 C.3   1201  PAR1201     0.1807
     34  N24       19.5460   13.9670    5.7350 N.3   1201  PAR1201    -0.1248
     35  C34       20.3290   12.3000    4.0560 C.3   1201  PAR1201     0.2070
     36  O34       21.2570   11.2110    3.8850 O.3   1201  PAR1201    -0.2186
     37  C44       18.9420   11.9130    3.4950 C.3   1201  PAR1201     0.2122
     38  O44       18.0790   13.0630    3.4760 O.3   1201  PAR1201    -0.2177
     39  C54       18.2870   10.8450    4.3750 C.3   1201  PAR1201     0.1696
     40  O54       18.2040   11.3900    5.7490 O.3   1201  PAR1201    -0.3276
     41  C64       16.9250   10.4500    3.7680 C.3   1201  PAR1201     0.1415
     42  N64       15.9740   10.1450    4.8400 N.3   1201  PAR1201    -0.1286
@<TRIPOS>BOND
     1    38    37    1
     2    37    35    1
     3    37    39    1
     4    41    39    1
     5    41    42    1
     6    36    35    1
     7    35    33    1
     8    39    40    1
     9    33    34    1
    10    33    32    1
    11    40    32    1
    12    32    27    1
    13    27    26    1
    14    28    26    1
    15    28    30    1
    16    28    29    1
    17    26    24    1
    18     6     5    1
    19    30    31    1
    20    29    23    1
    21     4     3    1
    22    23    24    1
    23    23    20    1
    24    24    25    1
    25     5     3    1
    26     5     7    1
    27     3     1    1
    28    20    19    1
    29     8     7    1
    30     7     9    1
    31     1     2    1
    32     1    10    1
    33    19    21    1
    34    19    18    1
    35     2    18    1
    36    22    21    1
    37    21    13    1
    38    18    16    1
    39    10     9    1
    40     9    11    1
    41    13    14    1
    42    13    15    1
    43    16    17    1
    44    16    15    1
    45    11    12    1
