@<TRIPOS>MOLECULE
2vqz_MGT_A_1.pdb
 33 35 0 0 0
SMALL
GASTEIGER

@<TRIPOS>ATOM
      1  PG        47.6420   21.6440  -31.4680 P.3   1483  MGT1483     0.5373
      2  O1G       48.4310   21.3140  -32.8220 O.2   1483  MGT1483    -0.2221
      3  O2G       46.9060   20.2950  -30.9600 O.3   1483  MGT1483    -0.1143
      4  O3G       48.6070   22.1860  -30.4690 O.3   1483  MGT1483    -0.1143
      5  O3B       46.3920   22.5710  -31.9460 O.3   1483  MGT1483    -0.2258
      6  PB        46.5000   23.9660  -32.7850 P.3   1483  MGT1483     0.2277
      7  O1B       46.3070   23.5690  -34.3370 O.2   1483  MGT1483    -0.5168
      8  O2B       47.8060   24.6520  -32.5280 O.3   1483  MGT1483    -0.4368
      9  O3A       45.2290   24.8380  -32.2320 O.3   1483  MGT1483    -0.2700
     10  PA        43.7220   24.2800  -31.7560 P.3   1483  MGT1483     0.2189
     11  O1A       43.5640   22.7960  -32.3450 O.2   1483  MGT1483    -0.5170
     12  O2A       42.7130   25.2560  -32.2290 O.3   1483  MGT1483    -0.4371
     13  O5'       43.6260   24.2060  -30.1360 O.3   1483  MGT1483    -0.3112
     14  C5'       43.7710   25.4510  -29.3890 C.3   1483  MGT1483     0.1813
     15  C4'       44.8600   25.3680  -28.2970 C.3   1483  MGT1483     0.1799
     16  O4'       44.6410   24.1520  -27.5330 O.3   1483  MGT1483    -0.3326
     17  C3'       46.2950   25.2880  -28.8210 C.3   1483  MGT1483     0.2158
     18  O3'       47.1200   26.0480  -27.9450 O.3   1483  MGT1483    -0.2175
     19  C2'       46.6710   23.8310  -28.6820 C.3   1483  MGT1483     0.2310
     20  O2'       48.0790   23.7370  -28.4380 O.3   1483  MGT1483    -0.2158
     21  C1'       45.9360   23.4710  -27.4030 C.3   1483  MGT1483     0.2287
     22  N9        45.5220   22.0460  -27.0800 N.pl3 1483  MGT1483    -0.2454
     23  C8        44.5050   21.4340  -27.7150 C.3   1483  MGT1483     0.1735
     24  N7        44.4110   20.2280  -27.1550 N.3   1483  MGT1483    -0.2343
     25  CM7       43.3750   19.2490  -27.5610 C.3   1483  MGT1483     0.0924
     26  C5        45.3360   20.0710  -26.1910 C.3   1483  MGT1483     0.2475
     27  C6        45.6780   19.0570  -25.2950 C.1   1483  MGT1483     0.2145
     28  O6        45.0700   17.9970  -25.3110 O.2   1483  MGT1483    -0.2115
     29  N1        46.7120   19.2460  -24.3800 N.2   1483  MGT1483    -0.2526
     30  C2        47.4230   20.4710  -24.4050 C.1   1483  MGT1483     0.2525
     31  N2        48.4430   20.7010  -23.5750 N.pl3 1483  MGT1483    -0.0226
     32  N3        47.0610   21.4260  -25.2710 N.2   1483  MGT1483    -0.3118
     33  C4        46.0530   21.2490  -26.1490 C.2   1483  MGT1483     0.2086
@<TRIPOS>BOND
     1     7     6    2
     2     2     1    2
     3     6     8    1
     4     6     9    1
     5     6     5    1
     6    11    10    2
     7     9    10    1
     8    12    10    1
     9     5     1    1
    10    10    13    1
    11     1     3    1
    12     1     4    1
    13    13    14    1
    14    14    15    1
    15    17    19    1
    16    17    15    1
    17    17    18    1
    18    19    20    1
    19    19    21    1
    20    15    16    1
    21    23    24    1
    22    23    22    1
    23    25    24    1
    24    16    21    1
    25    21    22    1
    26    24    26    1
    27    22    33    1
    28    26    33    1
    29    26    27    1
    30    33    32    2
    31    28    27    2
    32    27    29    2
    33    32    30    2
    34    30    29    2
    35    30    31    1
