@<TRIPOS>MOLECULE
2vr0_HQO_C_1.pdb
 19 20 0 0 0
SMALL
GASTEIGER

@<TRIPOS>ATOM
      1  C1        38.1030    5.1430  -13.4720 C.ar  1005  HQO1005     0.2070
      2  O1        38.8430    6.2990  -13.5190 O.3   1005  HQO1005    -0.2862
      3  C2        38.3740    4.0680  -14.3300 C.ar  1005  HQO1005     0.1078
      4  C3        37.6170    2.8820  -14.2810 C.ar  1005  HQO1005     0.2166
      5  N1        36.6020    2.7420  -13.3940 N.ar  1005  HQO1005    -0.1656
      6  O4        35.9510    1.6840  -13.3700 O.co2 1005  HQO1005    -0.6191
      7  C5        36.2630    3.7910  -12.4860 C.ar  1005  HQO1005     0.2394
      8  C6        35.2100    3.6440  -11.5760 C.ar  1005  HQO1005     0.0706
      9  C7        34.8810    4.6750  -10.6930 C.ar  1005  HQO1005     0.0062
     10  C8        35.5950    5.8710  -10.7090 C.ar  1005  HQO1005     0.0005
     11  C9        36.6450    6.0250  -11.6150 C.ar  1005  HQO1005     0.0092
     12  C10       36.9810    4.9920  -12.4960 C.ar  1005  HQO1005     0.1038
     13  C11       37.9560    1.7500  -15.2470 C.3   1005  HQO1005     0.0982
     14  C12       37.8000    1.1400  -17.7430 C.3   1005  HQO1005     0.0006
     15  C13       37.1630    1.8770  -16.5620 C.3   1005  HQO1005     0.0111
     16  C14       36.7740    0.4090  -18.6220 C.3   1005  HQO1005     0.0000
     17  C15       36.6860   -1.0890  -18.2950 C.3   1005  HQO1005     0.0000
     18  C16       36.3950   -1.9900  -19.5030 C.3   1005  HQO1005     0.0000
     19  C17       37.2390   -3.2590  -19.5240 C.3   1005  HQO1005     0.0000
@<TRIPOS>UNITY_ATOM_ATTR
5 1
charge 1
6 1
charge -1
@<TRIPOS>BOND
     1    19    18    1
     2    18    17    1
     3    16    17    1
     4    16    14    1
     5    14    15    1
     6    15    13    1
     7    13     4    1
     8     3     4   ar
     9     3     1   ar
    10     4     5   ar
    11     2     1    1
    12     1    12   ar
    13     5     6    1
    14     5     7   ar
    15    12     7   ar
    16    12    11   ar
    17     7     8   ar
    18    11    10   ar
    19     8     9   ar
    20    10     9   ar
