@<TRIPOS>MOLECULE
2vr0_HEM_A_1.pdb
 43 50 0 0 0
SMALL
GASTEIGER

@<TRIPOS>ATOM
      1 FE         13.2450   21.8300   36.4420 Fe    1001  HEM1001     0.0000
      2  CHA       16.0760   19.9790   36.8660 C.2   1001  HEM1001     0.0000
      3  CHB       12.5470   21.6590   39.7450 C.2   1001  HEM1001     0.0000
      4  CHC       10.8260   24.1840   36.0010 C.2   1001  HEM1001     0.0000
      5  CHD       13.5220   21.5770   32.9630 C.2   1001  HEM1001     0.0000
      6  NA        14.1420   20.9940   38.0110 N.2   1001  HEM1001     0.0000
      7  C1A       15.3010   20.2300   37.9910 C.2   1001  HEM1001     0.0000
      8  C2A       15.5360   19.7750   39.3660 C.2   1001  HEM1001     0.0000
      9  C3A       14.5560   20.2650   40.1470 C.2   1001  HEM1001     0.0000
     10  C4A       13.6680   21.0210   39.3080 C.2   1001  HEM1001     0.0000
     11  CMA       14.3410   20.0820   41.6610 C.3   1001  HEM1001     0.0000
     12  CAA       16.7240   18.8970   39.8460 C.3   1001  HEM1001     0.0000
     13  CBA       18.0250   19.7050   39.9670 C.3   1001  HEM1001     0.0000
     14  CGA       17.9160   20.5050   41.2190 C.2   1001  HEM1001     0.0000
     15  O1A       18.2500   19.9540   42.2990 O.co2 1001  HEM1001     0.0000
     16  O2A       17.4590   21.6710   41.1380 O.co2 1001  HEM1001     0.0000
     17  NB        11.9110   22.6990   37.6340 N.ar  1001  HEM1001     0.0000
     18  C1B       11.8680   22.5860   39.0100 C.ar  1001  HEM1001     0.0000
     19  C2B       10.9890   23.6090   39.5540 C.ar  1001  HEM1001     0.0000
     20  C3B       10.5140   24.2930   38.5050 C.ar  1001  HEM1001     0.0000
     21  C4B       11.0770   23.7420   37.2810 C.ar  1001  HEM1001     0.0000
     22  CMB       10.6620   23.8630   41.0510 C.3   1001  HEM1001     0.0000
     23  CAB        9.5690   25.4970   38.6170 C.2   1001  HEM1001     0.0000
     24  CBB       10.0840   26.6080   39.1570 C.2   1001  HEM1001     0.0000
     25  NC        12.3660   22.7370   34.7520 N.2   1001  HEM1001     0.0000
     26  C1C       11.3320   23.6520   34.8330 C.2   1001  HEM1001     0.0000
     27  C2C       10.8750   23.9290   33.4920 C.2   1001  HEM1001     0.0000
     28  C3C       11.6260   23.2230   32.6390 C.2   1001  HEM1001     0.0000
     29  C4C       12.5740   22.4540   33.4220 C.2   1001  HEM1001     0.0000
     30  CMC        9.7300   24.8860   33.1390 C.3   1001  HEM1001     0.0000
     31  CAC       11.5130   23.2020   31.0860 C.2   1001  HEM1001     0.0000
     32  CBC       11.3640   24.3090   30.3340 C.2   1001  HEM1001     0.0000
     33  ND        14.5660   20.8920   35.1080 N.ar  1001  HEM1001     0.0000
     34  C1D       14.5250   20.9880   33.7180 C.ar  1001  HEM1001     0.0000
     35  C2D       15.7180   20.3790   33.1720 C.ar  1001  HEM1001     0.0000
     36  C3D       16.5020   19.8850   34.3850 C.ar  1001  HEM1001     0.0000
     37  C4D       15.7240   20.2460   35.5500 C.ar  1001  HEM1001     0.0000
     38  CMD       16.1250   20.2420   31.6860 C.3   1001  HEM1001     0.0000
     39  CAD       17.8610   19.1560   34.3580 C.3   1001  HEM1001     0.0000
     40  CBD       18.9710   20.1640   34.0680 C.3   1001  HEM1001     0.0000
     41  CGD       19.4550   20.9420   35.2760 C.2   1001  HEM1001     0.0000
     42  O1D       20.3980   21.7620   35.0580 O.co2 1001  HEM1001     0.0000
     43  O2D       18.9250   20.7600   36.4140 O.co2 1001  HEM1001     0.0000
@<TRIPOS>BOND
     1    32    31    2
     2    31    28    1
     3    38    35    1
     4    28    29    1
     5    28    27    2
     6     5    29    1
     7     5    34    2
     8    30    27    1
     9    35    34   ar
    10    35    36   ar
    11    29    25    2
    12    27    26    1
    13    34    33   ar
    14    40    39    1
    15    40    41    1
    16    39    36    1
    17    36    37   ar
    18    25    26    1
    19    25     1    1
    20    26     4    2
    21    42    41   ar
    22    33    37   ar
    23    33     1    1
    24    41    43   ar
    25    37     2    2
    26     4    21    1
    27     1    17    1
    28     1     6    1
    29     2     7    1
    30    21    17   ar
    31    21    20   ar
    32    17    18   ar
    33     7     6    2
    34     7     8    1
    35     6    10    1
    36    20    23    1
    37    20    19   ar
    38    23    24    2
    39    18    19   ar
    40    18     3    1
    41    10     3    2
    42    10     9    1
    43     8    12    1
    44     8     9    2
    45    19    22    1
    46    12    13    1
    47    13    14    1
    48     9    11    1
    49    16    14   ar
    50    14    15   ar
