@<TRIPOS>MOLECULE
2vr1_ATF_A_1.pdb
 33 35 0 0 0
SMALL
GASTEIGER

@<TRIPOS>ATOM
      1  PG        14.0620  -22.0970   21.1520 P.3   1448  ATF1448     0.1913
      2  O1G       14.5430  -22.1760   22.5800 O.3   1448  ATF1448    -0.3531
      3  O2G       14.3960  -23.3130   20.3240 O.2   1448  ATF1448    -0.4540
      4  O3G       14.4170  -20.8030   20.4620 O.3   1448  ATF1448    -0.3531
      5  PB        11.4550  -22.1370   19.6690 P.3   1448  ATF1448     0.4402
      6  O1B       11.8600  -20.9080   18.8860 O.2   1448  ATF1448    -0.2491
      7  O2B       11.7050  -23.4890   19.0360 O.3   1448  ATF1448    -0.1351
      8  C3B       12.2490  -22.0860   21.3050 C.3   1448  ATF1448     0.3975
      9  F1B       11.8480  -23.1210   22.0190 F     1448  ATF1448    -0.1836
     10  F2B       11.8740  -20.9960   21.9460 F     1448  ATF1448    -0.1836
     11  PA         9.0410  -23.3620   20.2350 P.3   1448  ATF1448     0.2210
     12  O1A        9.8350  -24.2650   21.1430 O.3   1448  ATF1448    -0.4371
     13  O2A        8.4640  -23.8870   18.9420 O.2   1448  ATF1448    -0.5170
     14  O3A        9.8710  -22.0320   19.9010 O.3   1448  ATF1448    -0.2448
     15  O5'        7.8600  -22.7570   21.1300 O.3   1448  ATF1448    -0.3111
     16  C5'        8.0490  -22.5240   22.5430 C.3   1448  ATF1448     0.1813
     17  C4'        6.8610  -21.6620   22.9720 C.3   1448  ATF1448     0.1821
     18  O4'        5.6540  -22.2190   22.4290 O.3   1448  ATF1448    -0.3135
     19  C3'        6.6790  -21.5640   24.4810 C.3   1448  ATF1448     0.2184
     20  O3'        7.1720  -20.3100   24.9630 O.3   1448  ATF1448    -0.2174
     21  C2'        5.1820  -21.6690   24.6750 C.3   1448  ATF1448     0.2570
     22  O2'        4.6140  -20.3660   24.7850 O.3   1448  ATF1448    -0.2130
     23  C1'        4.6240  -22.3020   23.4120 C.3   1448  ATF1448     0.3186
     24  N9         4.2090  -23.7140   23.6170 N.pl3 1448  ATF1448    -0.1439
     25  C8         4.8300  -24.8010   23.1280 C.3   1448  ATF1448     0.3377
     26  N7         4.1730  -25.9300   23.4980 N.2   1448  ATF1448    -0.2095
     27  C5         3.1080  -25.5760   24.2290 C.2   1448  ATF1448     0.2526
     28  C6         2.0040  -26.2810   24.9180 C.2   1448  ATF1448     0.4393
     29  N6         1.9250  -27.6320   24.8860 N.pl3 1448  ATF1448     0.2180
     30  N1         1.0890  -25.5280   25.5760 N.2   1448  ATF1448     0.0021
     31  C2         1.1720  -24.1820   25.6100 C.3   1448  ATF1448     0.5254
     32  N3         2.1490  -23.4820   25.0030 N.2   1448  ATF1448    -0.0055
     33  C4         3.1310  -24.1090   24.3060 C.2   1448  ATF1448     0.3518
@<TRIPOS>BOND
     1     6     5    2
     2    13    11    2
     3     7     5    1
     4     5    14    1
     5     5     8    1
     6    14    11    1
     7    11    15    1
     8    11    12    1
     9     3     1    2
    10     4     1    1
    11    15    16    1
    12     1     8    1
    13     1     2    1
    14     8    10    1
    15     8     9    1
    16    18    17    1
    17    18    23    1
    18    16    17    1
    19    17    19    1
    20    25    26    1
    21    25    24    1
    22    23    24    1
    23    23    21    1
    24    26    27    2
    25    24    33    1
    26    27    33    1
    27    27    28    1
    28    33    32    2
    29    19    21    1
    30    19    20    1
    31    21    22    1
    32    29    28    1
    33    28    30    2
    34    32    31    1
    35    30    31    1
