@<TRIPOS>MOLECULE
2vr4_17B_A_1.pdb
 17 17 0 0 0
SMALL
GASTEIGER

@<TRIPOS>ATOM
      1  C8        29.5950   46.6310   -6.3240 C.3   1865  17B1865     0.0249
      2  C2        27.4400   45.8710   -0.5910 C.3   1865  17B1865     0.2920
      3  C3        27.8810   47.1310    0.2300 C.3   1865  17B1865     0.2288
      4  C4        27.5730   48.4660   -0.5100 C.3   1865  17B1865     0.2365
      5  C5        26.4470   48.2670   -1.5740 C.3   1865  17B1865     0.2800
      6  C6        26.0000   49.5260   -2.3360 C.3   1865  17B1865     0.2377
      7  O2        28.0900   44.6220   -0.3750 O.3   1865  17B1865    -0.2070
      8  O3        29.2770   47.0030    0.4690 O.3   1865  17B1865    -0.2168
      9  O4        27.2360   49.5130    0.4040 O.3   1865  17B1865    -0.2155
     10  N5        26.8710   47.2740   -2.5080 N.2   1865  17B1865    -0.0629
     11  O6        27.0450   49.9150   -3.2470 O.3   1865  17B1865    -0.2155
     12  N1        31.8730   46.8640   -7.3280 N.3   1865  17B1865    -0.1314
     13  C7        30.7030   47.5930   -6.8020 C.3   1865  17B1865     0.1094
     14  C10       28.3310   45.5570   -4.3910 C.3   1865  17B1865     0.2510
     15  C9        29.5140   46.4600   -4.8000 C.3   1865  17B1865     0.0569
     16  N2        28.1720   45.3870   -2.9500 N.pl3 1865  17B1865    -0.0334
     17  C1        27.5150   46.1980   -2.1250 C.2   1865  17B1865     0.3652
@<TRIPOS>BOND
     1    12    13    1
     2    13     1    1
     3     1    15    1
     4    15    14    1
     5    14    16    1
     6    11     6    1
     7    16    17    1
     8    10    17    2
     9    10     5    1
    10     6     5    1
    11    17     2    1
    12     5     4    1
    13     2     7    1
    14     2     3    1
    15     4     3    1
    16     4     9    1
    17     3     8    1
