@<TRIPOS>MOLECULE
2vr5_GLC_A_1.pdb
 12 12 0 0 0
SMALL
GASTEIGER

@<TRIPOS>ATOM
      1  C1       -53.9160   89.5470   24.2810 C.3   1719  GLC1719     0.3024
      2  C2       -55.2400   90.2070   24.7530 C.3   1719  GLC1719     0.2434
      3  C3       -55.2290   90.3440   26.2990 C.3   1719  GLC1719     0.2199
      4  C4       -55.0930   88.9290   26.8990 C.3   1719  GLC1719     0.2144
      5  C5       -53.7680   88.3040   26.4010 C.3   1719  GLC1719     0.1836
      6  C6       -53.6100   86.8890   26.9650 C.3   1719  GLC1719     0.2142
      7  O1       -52.7940   90.3930   24.5810 O.3   1719  GLC1719    -0.1869
      8  O2       -55.3730   91.4910   24.1270 O.3   1719  GLC1719    -0.2148
      9  O3       -56.4560   90.9420   26.7420 O.3   1719  GLC1719    -0.2174
     10  O4       -55.0820   89.0020   28.3320 O.3   1719  GLC1719    -0.2176
     11  O5       -53.7710   88.2520   24.9420 O.3   1719  GLC1719    -0.3236
     12  O6       -52.3880   86.3240   26.4940 O.3   1719  GLC1719    -0.2176
@<TRIPOS>BOND
     1     8     2    1
     2     1     7    1
     3     1     2    1
     4     1    11    1
     5     2     3    1
     6    11     5    1
     7     3     9    1
     8     3     4    1
     9     5     4    1
    10     5     6    1
    11    12     6    1
    12     4    10    1
