@<TRIPOS>MOLECULE
2vr5_A16_A_1.pdb
 32 34 0 0 0
SMALL
GASTEIGER

@<TRIPOS>ATOM
      1  C1A      -58.0570   73.0710   39.6630 C.3   1722  A161722     0.1060
      2  C1B      -62.6470   75.1660   37.4150 C.3   1722  A161722     0.2694
      3  C1C      -63.7730   75.7470   32.0970 C.3   1722  A161722     0.1777
      4  C2A      -57.0430   71.8400   39.4630 C.3   1722  A161722     0.2005
      5  C2B      -61.5550   75.9570   38.2350 C.3   1722  A161722     0.2394
      6  C2C      -64.6890   76.1040   33.2970 C.3   1722  A161722     0.2140
      7  O2A      -57.5640   70.8920   38.5110 O.3   1722  A161722    -0.2188
      8  O2B      -61.3050   77.2530   37.6500 O.3   1722  A161722    -0.2149
      9  O2C      -65.4440   77.2740   32.9930 O.3   1722  A161722    -0.2176
     10  C3A      -56.7600   71.0910   40.8100 C.3   1722  A161722     0.2136
     11  C3B      -60.2560   75.1090   38.2790 C.3   1722  A161722     0.2054
     12  C3C      -63.8250   76.2750   34.5730 C.3   1722  A161722     0.2141
     13  O3A      -55.8640   69.9720   40.6490 O.3   1722  A161722    -0.2176
     14  O3B      -59.2400   75.8210   39.0180 O.3   1722  A161722    -0.2186
     15  O3C      -64.6850   76.6170   35.6690 O.3   1722  A161722    -0.2176
     16  C4A      -56.1890   72.0890   41.8820 C.3   1722  A161722     0.1872
     17  C4B      -60.5660   73.6950   38.9330 C.3   1722  A161722     0.1329
     18  C4C      -63.0210   74.9200   34.8460 C.3   1722  A161722     0.1802
     19  N4B      -59.3500   72.8060   38.9950 N.3   1722  A161722    -0.2131
     20  O4A      -55.9610   71.4370   43.1470 O.3   1722  A161722    -0.2202
     21  O4C      -62.1460   74.9550   36.0420 O.3   1722  A161722    -0.3257
     22  C5A      -57.1380   73.3130   42.0140 C.3   1722  A161722     0.0675
     23  C5B      -61.6910   72.9700   38.1000 C.3   1722  A161722     0.1364
     24  C5C      -62.1330   74.6360   33.6020 C.3   1722  A161722     0.1778
     25  O5B      -62.8930   73.8190   38.0240 O.3   1722  A161722    -0.3295
     26  O5C      -62.9550   74.5610   32.3940 O.3   1722  A161722    -0.3482
     27  C6A      -56.8160   74.4250   43.0050 C.3   1722  A161722     0.1847
     28  C6B      -62.0390   71.6080   38.7240 C.3   1722  A161722     0.0337
     29  C6C      -61.3340   73.3280   33.7760 C.3   1722  A161722     0.2140
     30  O6A      -57.8030   75.4750   42.9700 O.3   1722  A161722    -0.2203
     31  O6C      -62.1900   72.1910   33.5680 O.3   1722  A161722    -0.2176
     32  C7A      -58.2530   73.3690   41.1980 C.3   1722  A161722     0.0253
@<TRIPOS>BOND
     1     3    26    1
     2     3     6    1
     3    26    24    1
     4     9     6    1
     5     6    12    1
     6    31    29    1
     7    24    29    1
     8    24    18    1
     9    12    18    1
    10    12    15    1
    11    18    21    1
    12    21     2    1
    13     2    25    1
    14     2     5    1
    15     8     5    1
    16    25    23    1
    17    23    28    1
    18    23    17    1
    19     5    11    1
    20    11    17    1
    21    11    14    1
    22     7     4    1
    23    17    19    1
    24    19     1    1
    25     4     1    1
    26     4    10    1
    27     1    32    1
    28    13    10    1
    29    10    16    1
    30    32    22    1
    31    16    22    1
    32    16    20    1
    33    22    27    1
    34    30    27    1
