@<TRIPOS>MOLECULE
2vra_IDS_B_1.pdb
 16 16 0 0 0
SMALL
GASTEIGER

@<TRIPOS>ATOM
      1  C1        76.7060   48.2470   40.1970 C.3   1254  IDS1254     0.1774
      2  C2        77.4200   47.9290   38.8320 C.3   1254  IDS1254     0.2054
      3  C3        76.6900   46.9050   37.9200 C.3   1254  IDS1254     0.2169
      4  C4        75.1390   47.0280   37.9520 C.3   1254  IDS1254     0.2227
      5  C5        74.6620   47.1150   39.4280 C.3   1254  IDS1254     0.2512
      6  C6        73.1390   47.2120   39.6080 C.2   1254  IDS1254     0.3940
      7  O2        77.5800   49.1500   38.0980 O.3   1254  IDS1254    -0.2384
      8  O3        77.0500   45.5980   38.3370 O.3   1254  IDS1254    -0.2175
      9  O4        74.9950   48.0990   36.9960 O.3   1254  IDS1254    -0.2171
     10  O5        75.2780   48.2590   40.0530 O.3   1254  IDS1254    -0.3403
     11  O61       72.3670   46.7080   38.8140 O.co2 1254  IDS1254    -0.2429
     12  O62       72.6640   47.7910   40.5580 O.co2 1254  IDS1254    -0.2429
     13  S         78.4710   49.4560   36.8240 S.3   1254  IDS1254    -0.0001
     14  O1S       77.6040   49.3280   35.6940 O.2   1254  IDS1254    -0.3452
     15  O2S       78.9390   50.8000   37.0110 O.3   1254  IDS1254    -0.2682
     16  O3S       79.5460   48.5020   36.8100 O.2   1254  IDS1254    -0.3452
@<TRIPOS>BOND
     1    14    13    2
     2    16    13    2
     3    13    15    1
     4    13     7    1
     5     9     4    1
     6     3     4    1
     7     3     8    1
     8     3     2    1
     9     4     5    1
    10     7     2    1
    11    11     6   ar
    12     2     1    1
    13     5     6    1
    14     5    10    1
    15     6    12   ar
    16    10     1    1
