@<TRIPOS>MOLECULE
2vra_SGN_B_1.pdb
 19 19 0 0 0
SMALL
GASTEIGER

@<TRIPOS>ATOM
      1  C1        73.8910   48.0720   36.0990 C.3   1255  SGN1255     0.1640
      2  C2        74.2680   48.7090   34.7340 C.3   1255  SGN1255     0.1563
      3  C3        74.5500   50.2100   34.9530 C.3   1255  SGN1255     0.2047
      4  C4        73.2730   50.8810   35.5070 C.3   1255  SGN1255     0.2131
      5  C5        72.9220   50.1880   36.8640 C.3   1255  SGN1255     0.1800
      6  C6        71.6420   50.7060   37.5440 C.3   1255  SGN1255     0.2045
      7  N         75.4520   47.9980   34.1950 N.3   1255  SGN1255    -0.1156
      8  O3        74.8840   50.8070   33.7230 O.3   1255  SGN1255    -0.2187
      9  O4        73.5630   52.1790   36.0520 O.3   1255  SGN1255    -0.2176
     10  O5        72.7680   48.7530   36.6790 O.3   1255  SGN1255    -0.3493
     11  O6        70.6340   50.8470   36.5780 O.3   1255  SGN1255    -0.2384
     12  S1        75.3950   47.1590   32.7770 S.3   1255  SGN1255    -0.1289
     13  O1S       74.0300   46.9770   32.3830 O.3   1255  SGN1255    -0.2919
     14  O2S       76.1480   47.9340   31.8380 O.3   1255  SGN1255    -0.2919
     15  O3S       76.0320   45.9130   33.0790 O.3   1255  SGN1255    -0.2919
     16  S2        69.1900   50.2820   36.6450 S.3   1255  SGN1255    -0.0001
     17  O4S       68.5100   50.9930   37.6850 O.3   1255  SGN1255    -0.2682
     18  O5S       68.6530   50.5380   35.3360 O.2   1255  SGN1255    -0.3452
     19  O6S       69.3170   48.8810   36.9200 O.2   1255  SGN1255    -0.3452
@<TRIPOS>BOND
     1    14    12    1
     2    13    12    1
     3    12    15    1
     4    12     7    1
     5     8     3    1
     6     7     2    1
     7     2     3    1
     8     2     1    1
     9     3     4    1
    10    18    16    2
    11     4     9    1
    12     4     5    1
    13     1    10    1
    14    11    16    1
    15    11     6    1
    16    16    19    2
    17    16    17    1
    18    10     5    1
    19     5     6    1
