@<TRIPOS>MOLECULE
2vrb_NAP_A_1.pdb
 48 52 0 0 0
SMALL
GASTEIGER

@<TRIPOS>ATOM
      1  PA         7.7220   26.8570   -0.5780 P.3   1286  NAP1286     0.2189
      2  O1A        8.8370   27.3790    0.2730 O.3   1286  NAP1286    -0.4371
      3  O2A        7.8300   26.9400   -2.0670 O.2   1286  NAP1286    -0.5170
      4  O5B        6.3940   27.6380   -0.1120 O.3   1286  NAP1286    -0.3112
      5  C5B        6.1840   28.1480    1.1900 C.3   1286  NAP1286     0.1813
      6  C4B        4.9740   29.0790    1.0650 C.3   1286  NAP1286     0.1820
      7  O4B        4.5570   29.5180    2.3410 O.3   1286  NAP1286    -0.3136
      8  C3B        5.3060   30.3300    0.2340 C.3   1286  NAP1286     0.2157
      9  O3B        4.1940   30.6140   -0.5880 O.3   1286  NAP1286    -0.2175
     10  C2B        5.4810   31.4280    1.2530 C.3   1286  NAP1286     0.2314
     11  O2B        5.1200   32.7260    0.8190 O.3   1286  NAP1286    -0.2630
     12  C1B        4.4970   30.9400    2.3060 C.3   1286  NAP1286     0.3158
     13  N9A        4.7940   31.6200    3.5680 N.pl3 1286  NAP1286    -0.1439
     14  C8A        5.9810   31.7570    4.2220 C.3   1286  NAP1286     0.3377
     15  N7A        5.7570   32.4940    5.3390 N.2   1286  NAP1286    -0.2095
     16  C5A        4.4420   32.8360    5.3750 C.2   1286  NAP1286     0.2526
     17  C6A        3.6740   33.5950    6.2660 C.2   1286  NAP1286     0.4393
     18  N6A        4.2160   34.1520    7.3590 N.pl3 1286  NAP1286     0.2180
     19  N1A        2.3280   33.7380    5.9870 N.2   1286  NAP1286     0.0021
     20  C2A        1.7350   33.1950    4.8640 C.3   1286  NAP1286     0.5254
     21  N3A        2.5040   32.4580    3.9900 N.2   1286  NAP1286    -0.0055
     22  C4A        3.8270   32.2860    4.2610 C.2   1286  NAP1286     0.3518
     23  O3         7.3730   25.3340   -0.1650 O.3   1286  NAP1286    -0.2703
     24  PN         6.5950   24.2040   -1.0050 P.3   1286  NAP1286     0.2189
     25  O1N        5.4120   24.7340   -1.7130 O.3   1286  NAP1286    -0.4371
     26  O2N        7.6470   23.5090   -1.8390 O.2   1286  NAP1286    -0.5170
     27  O5D        6.0290   23.2340    0.1900 O.3   1286  NAP1286    -0.3112
     28  C5D        4.9080   23.6570    0.9460 C.3   1286  NAP1286     0.1813
     29  C4D        5.0600   23.4820    2.4640 C.3   1286  NAP1286     0.1799
     30  O4D        5.3880   22.1360    2.7310 O.3   1286  NAP1286    -0.3327
     31  C3D        6.1660   24.3270    3.0900 C.3   1286  NAP1286     0.2158
     32  O3D        5.6450   25.5050    3.6750 O.3   1286  NAP1286    -0.2175
     33  C2D        6.8360   23.4070    4.1010 C.3   1286  NAP1286     0.2309
     34  O2D        6.3160   23.4840    5.4210 O.3   1286  NAP1286    -0.2158
     35  C1D        6.4880   22.0150    3.6170 C.3   1286  NAP1286     0.2263
     36  N1N        7.6450   21.3630    2.9600 N.pl3 1286  NAP1286    -0.2787
     37  C2N        7.5610   20.0620    2.7020 C.3   1286  NAP1286     0.1244
     38  C3N        8.5560   19.3010    2.1390 C.2   1286  NAP1286     0.0544
     39  C7N        8.4570   17.9040    1.8730 C.2   1286  NAP1286     0.2818
     40  O7N        9.6460   17.3400    1.2940 O.2   1286  NAP1286    -0.2670
     41  N7N        7.3040   17.2510    2.2050 N.am  1286  NAP1286    -0.0839
     42  C4N        9.7570   20.0140    1.8160 C.2   1286  NAP1286     0.0033
     43  C5N        9.8490   21.3460    2.0660 C.2   1286  NAP1286     0.0157
     44  C6N        8.7550   22.0060    2.6600 C.2   1286  NAP1286     0.0633
     45  P2B        6.1430   33.6630   -0.0580 P.3   1286  NAP1286     0.5328
     46  O1X        6.1970   33.1210   -1.4820 O.2   1286  NAP1286    -0.2224
     47  O2X        7.5170   33.6830    0.5890 O.3   1286  NAP1286    -0.1145
     48  O3X        5.5440   35.0630   -0.0810 O.3   1286  NAP1286    -0.1145
@<TRIPOS>BOND
     1     3     1    2
     2    26    24    2
     3    25    24    1
     4    46    45    2
     5    24    23    1
     6    24    27    1
     7     9     8    1
     8     1    23    1
     9     1     4    1
    10     1     2    1
    11     4     5    1
    12    48    45    1
    13    45    47    1
    14    45    11    1
    15    27    28    1
    16     8     6    1
    17     8    10    1
    18    11    10    1
    19    28    29    1
    20     6     5    1
    21     6     7    1
    22    10    12    1
    23    40    39    2
    24    42    43    1
    25    42    38    2
    26    39    38    1
    27    39    41   am
    28    43    44    2
    29    38    37    1
    30    12     7    1
    31    12    13    1
    32    29    30    1
    33    29    31    1
    34    44    36    1
    35    37    36    1
    36    30    35    1
    37    36    35    1
    38    31    32    1
    39    31    33    1
    40    13    14    1
    41    13    22    1
    42    35    33    1
    43    21    22    2
    44    21    20    1
    45    33    34    1
    46    14    15    1
    47    22    16    1
    48    20    19    1
    49    15    16    2
    50    16    17    1
    51    19    17    2
    52    17    18    1
