@<TRIPOS>MOLECULE
2vrj_NCW_A_1.pdb
 22 23 0 0 0
SMALL
GASTEIGER

@<TRIPOS>ATOM
      1  S1         0.2420    7.8640   11.4280 S.2   1446  NCW1446    -0.0169
      2  C7        -0.6110    7.9650   10.0870 C.2   1446  NCW1446     0.1558
      3  N1        -1.2620    9.0930    9.7300 N.am  1446  NCW1446    -0.2626
      4  C5        -2.0640    9.2390    8.5310 C.3   1446  NCW1446     0.1391
      5  C4        -1.1450   10.0620    7.6440 C.3   1446  NCW1446     0.2053
      6  O4        -1.9100   10.3860    6.4730 O.3   1446  NCW1446    -0.2184
      7  C3        -0.5970   11.3480    8.3160 C.3   1446  NCW1446     0.2182
      8  O3         0.5910   11.8390    7.6950 O.3   1446  NCW1446    -0.2175
      9  C2        -0.2190   11.1670    9.7920 C.3   1446  NCW1446     0.2310
     10  O2         0.0160   12.4530   10.4040 O.3   1446  NCW1446    -0.2158
     11  C6        -3.1740   10.1240    9.0590 C.3   1446  NCW1446     0.1665
     12  O1        -2.6060   10.8130   10.1920 O.3   1446  NCW1446    -0.3336
     13  C1        -1.2890   10.3230   10.4910 C.3   1446  NCW1446     0.2274
     14  N2        -0.6770    6.8830    9.3030 N.am  1446  NCW1446    -0.2179
     15  C8         0.3010    5.8010    9.3510 C.3   1446  NCW1446     0.1141
     16  C9        -0.2490    4.5530    8.6730 C.3   1446  NCW1446     0.0234
     17  C10       -0.8990    4.8970    7.3310 C.3   1446  NCW1446     0.0018
     18  C11       -0.3780    4.0570    6.1870 C.3   1446  NCW1446     0.0001
     19  C12        1.1570    4.2110    6.1560 C.3   1446  NCW1446     0.0000
     20  C13        1.7700    2.9700    6.5910 C.3   1446  NCW1446     0.0000
     21  C14        0.6890    1.8730    6.4360 C.3   1446  NCW1446     0.0000
     22  C15        1.0310    0.7550    7.3610 C.3   1446  NCW1446     0.0000
@<TRIPOS>BOND
     1    19    18    1
     2    19    20    1
     3    18    17    1
     4    21    20    1
     5    21    22    1
     6     6     5    1
     7    17    16    1
     8     5     7    1
     9     5     4    1
    10     8     7    1
    11     7     9    1
    12     4    11    1
    13     4     3    1
    14    16    15    1
    15    11    12    1
    16    14    15    1
    17    14     2    1
    18     3     2    1
    19     3    13    1
    20     9    10    1
    21     9    13    1
    22     2     1    2
    23    12    13    1
