@<TRIPOS>MOLECULE
2vro_P6G_B_1.pdb
 19 18 0 0 0
SMALL
GASTEIGER

@<TRIPOS>ATOM
      1  O1       -13.0070    2.3070  -17.2940 O.3   1532  P6G1532    -0.2176
      2  C2       -12.2830    2.7250  -18.4850 C.3   1532  P6G1532     0.2140
      3  C3       -11.1240    1.7680  -18.7950 C.3   1532  P6G1532     0.1777
      4  O4       -10.9350    1.6480  -20.2210 O.3   1532  P6G1532    -0.3483
      5  C5        -9.7640    2.3970  -20.6250 C.3   1532  P6G1532     0.1742
      6  C6        -9.4940    2.4020  -22.0920 C.3   1532  P6G1532     0.1742
      7  O7        -8.4770    1.4160  -22.3790 O.3   1532  P6G1532    -0.3484
      8  C8        -7.7550    1.9980  -23.4440 C.3   1532  P6G1532     0.1742
      9  C9        -6.2710    1.8030  -23.3850 C.3   1532  P6G1532     0.1742
     10  O10       -5.7700    2.6410  -24.4440 O.3   1532  P6G1532    -0.3484
     11  C11       -5.8720    1.9100  -25.6660 C.3   1532  P6G1532     0.1742
     12  C12       -5.5020    2.7350  -26.8790 C.3   1532  P6G1532     0.1742
     13  O13       -5.8290    1.9330  -28.0170 O.3   1532  P6G1532    -0.3484
     14  C14       -7.1880    2.1940  -28.3480 C.3   1532  P6G1532     0.1742
     15  C15       -7.7840    1.3350  -29.4400 C.3   1532  P6G1532     0.1742
     16  O16       -9.2280    1.3480  -29.2790 O.3   1532  P6G1532    -0.3483
     17  C17       -9.8040    2.6510  -29.4800 C.3   1532  P6G1532     0.1777
     18  C18      -11.2060    2.5100  -30.0640 C.3   1532  P6G1532     0.2140
     19  O19      -11.9640    3.6810  -29.7610 O.3   1532  P6G1532    -0.2176
@<TRIPOS>BOND
     1    18    19    1
     2    18    17    1
     3    17    16    1
     4    15    16    1
     5    15    14    1
     6    14    13    1
     7    13    12    1
     8    12    11    1
     9    11    10    1
    10    10     9    1
    11     8     9    1
    12     8     7    1
    13     7     6    1
    14     6     5    1
    15     5     4    1
    16     4     3    1
    17     3     2    1
    18     2     1    1
