@<TRIPOS>MOLECULE
2vro_NDP_A_1.pdb
 48 52 0 0 0
SMALL
GASTEIGER

@<TRIPOS>ATOM
      1  PA        -2.2330   -5.0910   23.7410 P.3   1523  NDP1523     0.2189
      2  O1A       -1.7790   -5.2360   22.2200 O.2   1523  NDP1523    -0.5170
      3  O2A       -3.6410   -5.4950   24.0850 O.3   1523  NDP1523    -0.4371
      4  O5B       -2.6410   -3.5310   23.3070 O.3   1523  NDP1523    -0.3112
      5  C5B       -1.7100   -2.6380   22.5920 C.3   1523  NDP1523     0.1813
      6  C4B       -2.3500   -1.2960   22.1550 C.3   1523  NDP1523     0.1820
      7  O4B       -3.4180   -1.5660   21.1840 O.3   1523  NDP1523    -0.3136
      8  C3B       -3.0200   -0.5500   23.3160 C.3   1523  NDP1523     0.2157
      9  O3B       -2.9840    0.8510   23.0150 O.3   1523  NDP1523    -0.2175
     10  C2B       -4.4660   -1.0470   23.2070 C.3   1523  NDP1523     0.2314
     11  O2B       -5.4020   -0.1260   23.7840 O.3   1523  NDP1523    -0.2630
     12  C1B       -4.6440   -1.0190   21.6870 C.3   1523  NDP1523     0.3158
     13  N9A       -5.8830   -1.7400   21.2580 N.pl3 1523  NDP1523    -0.1439
     14  C8A       -6.2520   -2.9860   21.5840 C.3   1523  NDP1523     0.3377
     15  N7A       -7.4430   -3.2340   21.0170 N.2   1523  NDP1523    -0.2095
     16  C5A       -7.8150   -2.1510   20.3430 C.2   1523  NDP1523     0.2526
     17  C6A       -8.9270   -1.8360   19.5660 C.2   1523  NDP1523     0.4393
     18  N6A       -9.8840   -2.7450   19.4010 N.pl3 1523  NDP1523     0.2180
     19  N1A       -9.0230   -0.6110   19.0060 N.2   1523  NDP1523     0.0021
     20  C2A       -8.0460    0.2880   19.1750 C.3   1523  NDP1523     0.5254
     21  N3A       -6.9680    0.0100   19.9130 N.2   1523  NDP1523    -0.0055
     22  C4A       -6.8300   -1.1930   20.4990 C.2   1523  NDP1523     0.3518
     23  O3        -1.2630   -4.3440   24.8100 O.3   1523  NDP1523    -0.2703
     24  PN         0.3450   -4.8070   25.1910 P.3   1523  NDP1523     0.2189
     25  O1N        0.5130   -3.1900   24.9260 O.2   1523  NDP1523    -0.5170
     26  O2N       -0.1750   -5.3380   26.5450 O.3   1523  NDP1523    -0.4371
     27  O5D        0.2980   -5.7870   23.9200 O.3   1523  NDP1523    -0.3112
     28  C5D        1.4060   -5.6350   22.9850 C.3   1523  NDP1523     0.1813
     29  C4D        2.4960   -6.6630   23.2640 C.3   1523  NDP1523     0.1799
     30  O4D        1.9160   -7.9720   23.3920 O.3   1523  NDP1523    -0.3327
     31  C3D        3.3990   -6.8380   22.0450 C.3   1523  NDP1523     0.2158
     32  O3D        4.3650   -5.7660   21.9730 O.3   1523  NDP1523    -0.2175
     33  C2D        4.0480   -8.1980   22.3490 C.3   1523  NDP1523     0.2309
     34  O2D        5.3050   -8.0130   22.9970 O.3   1523  NDP1523    -0.2158
     35  C1D        3.0720   -8.8550   23.3540 C.3   1523  NDP1523     0.2263
     36  N1N        2.6280  -10.2440   23.0180 N.pl3 1523  NDP1523    -0.2787
     37  C2N        2.6460  -11.2280   24.0180 C.3   1523  NDP1523     0.1244
     38  C3N        2.2410  -12.5340   23.7450 C.2   1523  NDP1523     0.0544
     39  C7N        2.2910  -13.5730   24.8780 C.2   1523  NDP1523     0.2818
     40  O7N        2.6800  -13.2610   26.0040 O.2   1523  NDP1523    -0.2670
     41  N7N        1.8870  -14.8000   24.5490 N.am  1523  NDP1523    -0.0839
     42  C4N        1.7450  -12.9390   22.3370 C.2   1523  NDP1523     0.0033
     43  C5N        1.7590  -11.8850   21.4160 C.2   1523  NDP1523     0.0157
     44  C6N        2.1810  -10.5900   21.7300 C.2   1523  NDP1523     0.0633
     45  P2B       -5.9030   -0.3120   25.3320 P.3   1523  NDP1523     0.5328
     46  O1X       -7.4320    0.0760   25.2730 O.2   1523  NDP1523    -0.2224
     47  O2X       -5.7490   -1.8590   25.7050 O.3   1523  NDP1523    -0.1145
     48  O3X       -5.1120    0.5780   26.2280 O.3   1523  NDP1523    -0.1145
@<TRIPOS>BOND
     1    19    20    1
     2    19    17    2
     3    20    21    1
     4    18    17    1
     5    17    16    1
     6    21    22    2
     7    16    22    1
     8    16    15    2
     9    22    13    1
    10    15    14    1
    11     7    12    1
    12     7     6    1
    13    13    14    1
    14    13    12    1
    15    43    44    2
    16    43    42    1
    17    12    10    1
    18    44    36    1
    19    32    31    1
    20    31    33    1
    21    31    29    1
    22     6     5    1
    23     6     8    1
    24     2     1    2
    25    42    38    2
    26    33    34    1
    27    33    35    1
    28     5     4    1
    29    28    29    1
    30    28    27    1
    31     9     8    1
    32    36    35    1
    33    36    37    1
    34    10     8    1
    35    10    11    1
    36    29    30    1
    37     4     1    1
    38    35    30    1
    39     1     3    1
    40     1    23    1
    41    38    37    1
    42    38    39    1
    43    11    45    1
    44    27    24    1
    45    41    39   am
    46    23    24    1
    47    39    40    2
    48    25    24    2
    49    24    26    1
    50    46    45    2
    51    45    47    1
    52    45    48    1
