@<TRIPOS>MOLECULE
2vrt_NUC_E_1.pdb
 41 44 0 0 0
SMALL
GASTEIGER

@<TRIPOS>ATOM
      1  OP3      -12.7240  -18.8340    8.7090 O.3     1  RU1        -0.1145
      2  P        -14.1060  -19.1580    8.2810 P.3     1  RU1         0.5327
      3  OP1      -15.0110  -18.6650    9.3410 O.3     1  RU1        -0.1145
      4  OP2      -14.1360  -20.5930    7.9250 O.2     1  RU1        -0.2224
      5  O5'      -14.4380  -18.3370    6.9490 O.3     1  RU1        -0.2675
      6  C5'      -13.4470  -18.1370    5.9470 C.3     1  RU1         0.1858
      7  C4'      -13.7810  -16.9520    5.0540 C.3     1  RU1         0.1773
      8  O4'      -15.2130  -16.7020    5.0360 O.3     1  RU1        -0.3321
      9  C3'      -13.1420  -15.6250    5.4540 C.3     1  RU1         0.1857
     10  O3'      -12.8120  -14.8940    4.2660 O.3     1  RU1        -0.3112
     11  C2'      -14.2540  -14.9600    6.2700 C.3     1  RU1         0.2291
     12  O2'      -14.1350  -13.5530    6.3130 O.3     1  RU1        -0.2158
     13  C1'      -15.4760  -15.3710    5.4470 C.3     1  RU1         0.2399
     14  N1       -16.8360  -15.3400    6.1170 N.am    1  RU1        -0.1766
     15  C2       -17.7910  -14.4290    5.6790 C.1     1  RU1         0.2845
     16  O2       -17.5990  -13.6230    4.7860 O.2     1  RU1        -0.1918
     17  N3       -19.0010  -14.4860    6.3360 N.2     1  RU1        -0.2452
     18  C4       -19.3560  -15.3460    7.3640 C.1     1  RU1         0.2182
     19  O4       -20.4790  -15.2770    7.8560 O.2     1  RU1        -0.2085
     20  C5       -18.3200  -16.2690    7.7630 C.2     1  RU1         0.1242
     21  C6       -17.1310  -16.2340    7.1380 C.2     1  RU1         0.0929
     22  P        -11.3520  -14.9610    3.6030 P.3     2  RU2         0.2141
     23  OP1      -10.7440  -16.2720    3.9160 O.2     2  RU2        -0.5172
     24  OP2      -10.6470  -13.7200    3.9910 O.3     2  RU2        -0.4373
     25  O5'      -11.6580  -14.8620    2.0340 O.3     2  RU2        -0.3114
     26  C5'      -11.6420  -15.9920    1.1580 C.3     2  RU2         0.1813
     27  C4'      -11.4770  -15.5800   -0.3030 C.3     2  RU2         0.1799
     28  O4'      -12.6710  -14.9120   -0.7820 O.3     2  RU2        -0.3320
     29  C3'      -10.3210  -14.6340   -0.6210 C.3     2  RU2         0.2158
     30  O3'       -9.7320  -15.0020   -1.8660 O.3     2  RU2        -0.2175
     31  C2'      -10.9650  -13.2420   -0.6740 C.3     2  RU2         0.2319
     32  O2'      -10.4200  -12.4390   -1.7070 O.3     2  RU2        -0.2157
     33  C1'      -12.4480  -13.5230   -0.9640 C.3     2  RU2         0.2401
     34  N1       -13.5140  -12.8020   -0.1430 N.am    2  RU2        -0.1766
     35  C2       -14.5060  -12.1110   -0.8230 C.1     2  RU2         0.2845
     36  O2       -14.5600  -12.0290   -2.0380 O.2     2  RU2        -0.1918
     37  N3       -15.4490  -11.4960   -0.0310 N.2     2  RU2        -0.2452
     38  C4       -15.5160  -11.5040    1.3530 C.1     2  RU2         0.2182
     39  O4       -16.4230  -10.9040    1.9240 O.2     2  RU2        -0.2085
     40  C5       -14.4610  -12.2480    2.0000 C.2     2  RU2         0.1242
     41  C6       -13.5290  -12.8550    1.2460 C.2     2  RU2         0.0929
@<TRIPOS>BOND
     1    36    35    2
     2    30    29    1
     3    32    31    1
     4    33    28    1
     5    33    31    1
     6    33    34    1
     7    35    34   am
     8    35    37    2
     9    28    27    1
    10    31    29    1
    11    29    27    1
    12    27    26    1
    13    34    41    1
    14    37    38    2
    15    26    25    1
    16    41    40    2
    17    38    39    2
    18    38    40    1
    19    25    22    1
    20    22    23    2
    21    22    24    1
    22    22    10    1
    23    10     9    1
    24    16    15    2
    25     8     7    1
    26     8    13    1
    27     7     9    1
    28     7     6    1
    29    13    14    1
    30    13    11    1
    31     9    11    1
    32    15    14   am
    33    15    17    2
    34     6     5    1
    35    14    21    1
    36    11    12    1
    37    17    18    2
    38     5     2    1
    39    21    20    2
    40    18    20    1
    41    18    19    2
    42     4     2    2
    43     2     1    1
    44     2     3    1
