@<TRIPOS>MOLECULE
2vrv_HEM_A_1.pdb
 43 50 0 0 0
SMALL
GASTEIGER

@<TRIPOS>ATOM
      1 FE          6.4380    3.2200   26.3450 Fe    1409  HEM1409     0.0000
      2  CHA        5.5650    0.2170   27.3730 C.2   1409  HEM1409     0.0000
      3  CHB        6.5620    2.1290   23.0860 C.2   1409  HEM1409     0.0000
      4  CHC        7.4050    6.3900   25.2650 C.2   1409  HEM1409     0.0000
      5  CHD        6.7900    4.4150   29.5970 C.2   1409  HEM1409     0.0000
      6  NA         6.1030    1.5010   25.4110 N.ar  1409  HEM1409     0.0000
      7  C1A        5.7930    0.3500   26.0370 C.ar  1409  HEM1409     0.0000
      8  C2A        5.6700   -0.6970   25.0330 C.ar  1409  HEM1409     0.0000
      9  C3A        5.9540   -0.1670   23.8570 C.ar  1409  HEM1409     0.0000
     10  C4A        6.2420    1.2160   24.0650 C.ar  1409  HEM1409     0.0000
     11  CMA        5.9880   -0.8770   22.5020 C.3   1409  HEM1409     0.0000
     12  CAA        5.2860   -2.1870   25.3290 C.3   1409  HEM1409     0.0000
     13  CBA        6.4170   -2.9690   26.0070 C.3   1409  HEM1409     0.0000
     14  CGA        5.9860   -4.4010   26.0590 C.2   1409  HEM1409     0.0000
     15  O1A        4.7990   -4.7450   25.7940 O.co2 1409  HEM1409     0.0000
     16  O2A        6.8630   -5.2180   26.3610 O.co2 1409  HEM1409     0.0000
     17  NB         6.8990    4.1140   24.5780 N.2   1409  HEM1409     0.0000
     18  C1B        6.8250    3.4650   23.3410 C.2   1409  HEM1409     0.0000
     19  C2B        7.0860    4.4350   22.3110 C.2   1409  HEM1409     0.0000
     20  C3B        7.3080    5.6270   22.8940 C.2   1409  HEM1409     0.0000
     21  C4B        7.1970    5.4210   24.3220 C.2   1409  HEM1409     0.0000
     22  CMB        7.1030    4.0570   20.8270 C.3   1409  HEM1409     0.0000
     23  CAB        7.6740    7.0020   22.2390 C.2   1409  HEM1409     0.0000
     24  CBB        7.2140    7.4030   21.0510 C.2   1409  HEM1409     0.0000
     25  NC         7.0420    5.0420   27.2980 N.ar  1409  HEM1409     0.0000
     26  C1C        7.3290    6.2180   26.6170 C.ar  1409  HEM1409     0.0000
     27  C2C        7.4950    7.2760   27.5700 C.ar  1409  HEM1409     0.0000
     28  C3C        7.3200    6.7420   28.7760 C.ar  1409  HEM1409     0.0000
     29  C4C        7.0380    5.3350   28.6210 C.ar  1409  HEM1409     0.0000
     30  CMC        7.8020    8.7280   27.1980 C.3   1409  HEM1409     0.0000
     31  CAC        7.4010    7.4940   30.1180 C.3   1409  HEM1409     0.0000
     32  CBC        6.2140    7.6480   30.7250 C.3   1409  HEM1409     0.0000
     33  ND         6.2080    2.4680   28.1850 N.2   1409  HEM1409     0.0000
     34  C1D        6.3980    3.0920   29.4100 C.2   1409  HEM1409     0.0000
     35  C2D        6.1730    2.1370   30.4480 C.2   1409  HEM1409     0.0000
     36  C3D        5.7870    0.8310   29.7490 C.2   1409  HEM1409     0.0000
     37  C4D        5.8400    1.1340   28.3480 C.2   1409  HEM1409     0.0000
     38  CMD        6.2690    2.3710   31.9670 C.3   1409  HEM1409     0.0000
     39  CAD        5.4060   -0.5310   30.3640 C.3   1409  HEM1409     0.0000
     40  CBD        3.9110   -0.4930   30.6420 C.3   1409  HEM1409     0.0000
     41  CGD        3.4110   -1.7780   31.2710 C.2   1409  HEM1409     0.0000
     42  O1D        4.1720   -2.7870   31.2300 O.co2 1409  HEM1409     0.0000
     43  O2D        2.2430   -1.8090   31.7910 O.co2 1409  HEM1409     0.0000
@<TRIPOS>BOND
     1    22    19    1
     2    24    23    2
     3    23    20    1
     4    19    20    2
     5    19    18    1
     6    11     9    1
     7    20    21    1
     8     3    18    1
     9     3    10    2
    10    18    17    2
    11     9    10   ar
    12     9     8   ar
    13    10     6   ar
    14    21    17    1
    15    21     4    2
    16    17     1    1
    17     8    12    1
    18     8     7   ar
    19     4    26    1
    20    12    13    1
    21     6     7   ar
    22     6     1    1
    23    15    14   ar
    24    13    14    1
    25     7     2    2
    26    14    16   ar
    27     1    25    1
    28     1    33    1
    29    26    25   ar
    30    26    27   ar
    31    30    27    1
    32    25    29   ar
    33     2    37    1
    34    27    28   ar
    35    33    37    2
    36    33    34    1
    37    37    36    1
    38    29    28   ar
    39    29     5    1
    40    28    31    1
    41    34     5    2
    42    34    35    1
    43    36    39    1
    44    36    35    2
    45    31    32    1
    46    39    40    1
    47    35    38    1
    48    40    41    1
    49    42    41   ar
    50    41    43   ar
