@<TRIPOS>MOLECULE
2vrv_CL6_A_1.pdb
 25 28 0 0 0
SMALL
GASTEIGER

@<TRIPOS>ATOM
      1 CLAY       12.9870   -0.7450   28.8700 Cl    1410  CL61410    -0.0825
      2  CAX       11.6450    0.1220   29.6770 C.ar  1410  CL61410     0.0560
      3  CAV       11.4100   -0.0600   31.0380 C.ar  1410  CL61410     0.0112
      4  CAT       10.3570    0.5990   31.6780 C.ar  1410  CL61410     0.0008
      5  CAS        9.5660    1.4540   30.9390 C.ar  1410  CL61410    -0.0002
      6  CAU        9.8120    1.6340   29.5740 C.ar  1410  CL61410    -0.0011
      7  CAW       10.8450    0.9600   28.9320 C.ar  1410  CL61410     0.0146
      8  CAR       11.1290    1.1280   27.4670 C.3   1410  CL61410     0.1275
      9  CAC       10.8490   -0.1830   26.7210 C.ar  1410  CL61410     0.0040
     10  CAE       10.5890   -0.1810   25.3330 C.ar  1410  CL61410    -0.0019
     11  CAF       10.3100   -1.3600   24.6230 C.ar  1410  CL61410    -0.0002
     12  CAD       10.2810   -2.5770   25.3010 C.ar  1410  CL61410    -0.0000
     13  CAB       10.5150   -2.6040   26.6820 C.ar  1410  CL61410    -0.0002
     14  CAA       10.7810   -1.4270   27.3870 C.ar  1410  CL61410    -0.0019
     15  NAO       10.1980    2.1050   26.8650 N.ar  1410  CL61410    -0.3008
     16  CAM        8.9080    1.8630   26.7780 C.ar  1410  CL61410     0.1792
     17  NAN        8.4270    2.9480   26.1880 N.ar  1410  CL61410    -0.2223
     18  CAQ        9.4460    3.8040   25.9230 C.ar  1410  CL61410     0.1193
     19  CAP       10.6160    3.2520   26.3560 C.ar  1410  CL61410     0.0987
     20  CAL       12.5290    1.7450   27.3870 C.ar  1410  CL61410     0.0040
     21  CAK       13.4900    1.3370   26.4390 C.ar  1410  CL61410    -0.0019
     22  CAI       14.7520    1.9490   26.4290 C.ar  1410  CL61410    -0.0002
     23  CAG       15.0400    2.9780   27.3490 C.ar  1410  CL61410    -0.0000
     24  CAH       14.1010    3.3890   28.2920 C.ar  1410  CL61410    -0.0002
     25  CAJ       12.8630    2.7720   28.2980 C.ar  1410  CL61410    -0.0019
@<TRIPOS>BOND
     1    11    12   ar
     2    11    10   ar
     3    12    13   ar
     4    10     9   ar
     5    18    17   ar
     6    18    19   ar
     7    17    16   ar
     8    19    15   ar
     9    22    21   ar
    10    22    23   ar
    11    21    20   ar
    12    13    14   ar
    13     9    14   ar
    14     9     8    1
    15    16    15   ar
    16    15     8    1
    17    23    24   ar
    18    20     8    1
    19    20    25   ar
    20     8     7    1
    21    24    25   ar
    22     1     2    1
    23     7     6   ar
    24     7     2   ar
    25     6     5   ar
    26     2     3   ar
    27     5     4   ar
    28     3     4   ar
