@<TRIPOS>MOLECULE
2vrx_447_A_1.pdb
 38 42 0 0 0
SMALL
GASTEIGER

@<TRIPOS>ATOM
      1  CAT       16.9480   -4.8250    2.4360 C.3   1356  4471356     0.1046
      2  CAQ       17.3820   -6.2530    2.0430 C.3   1356  4471356     0.1595
      3  OBA       16.5960   -7.2470    2.7910 O.3   1356  4471356    -0.3508
      4  CAR       15.1470   -7.1230    2.5830 C.3   1356  4471356     0.1595
      5  CAU       14.6970   -5.6620    2.7900 C.3   1356  4471356     0.1046
      6  NBL       15.8080   -4.8830    3.3800 N.3   1356  4471356    -0.2683
      7  CAS       15.3820   -3.5720    3.9270 C.3   1356  4471356     0.0761
      8  CAO       15.0790   -2.4420    2.9320 C.3   1356  4471356     0.0646
      9  CAP       14.4450   -1.2650    3.6960 C.3   1356  4471356     0.2070
     10  OBB       13.0060   -1.3450    3.5830 O.2   1356  4471356    -0.4723
     11  CBH       12.2380   -0.2830    3.9940 C.2   1356  4471356     0.1731
     12  CAM       12.7310    0.7920    4.7430 C.2   1356  4471356     0.0553
     13  CBG       10.8780   -0.3020    3.6260 C.2   1356  4471356     0.1691
     14  OAZ       10.3890   -1.3700    2.9090 O.2   1356  4471356    -0.4687
     15  CAA       10.9840   -1.6140    1.6320 C.3   1356  4471356     0.2526
     16  CAN       10.0240    0.7310    4.0110 C.2   1356  4471356     0.0318
     17  C5        10.5130    1.8090    4.7560 C.3   1356  4471356     0.1742
     18  C4        11.8710    1.8320    5.1180 C.2   1356  4471356     0.0769
     19  N3        12.3590    2.8570    5.8350 N.2   1356  4471356    -0.2220
     20  C2        11.5260    3.9110    6.2290 C.3   1356  4471356     0.3913
     21  N1        10.1700    3.8940    5.8630 N.2   1356  4471356    -0.0363
     22  C6         9.6760    2.8680    5.1470 C.2   1356  4471356     0.3483
     23  NAY        8.3690    2.7990    4.7810 N.pl3 1356  4471356    -0.0094
     24  CBE        7.4690    3.7150    5.2320 C.ar  1356  4471356     0.1832
     25  CAK        6.5350    4.2520    4.3440 C.ar  1356  4471356     0.0457
     26  CAI        5.5910    5.1880    4.7760 C.ar  1356  4471356     0.0202
     27  CAJ        7.4250    4.1240    6.5690 C.ar  1356  4471356     0.0457
     28  CAH        6.4830    5.0570    7.0060 C.ar  1356  4471356     0.0202
     29  CBD        5.5490    5.5900    6.1190 C.ar  1356  4471356     0.0739
     30  NAX        4.6720    6.5130    6.5840 N.am  1356  4471356    -0.1754
     31  CBC        3.4990    6.7670    5.9550 C.2   1356  4471356     0.2690
     32  OAB        3.1050    6.1950    4.9340 O.2   1356  4471356    -0.2680
     33  CBF        2.7220    7.7630    6.5530 C.ar  1356  4471356     0.0554
     34  CAF        1.4280    8.0110    6.0900 C.ar  1356  4471356     0.0046
     35  CAD        0.6540    9.0080    6.6780 C.ar  1356  4471356     0.0001
     36  CAC        1.1690    9.7650    7.7290 C.ar  1356  4471356     0.0000
     37  CAE        2.4560    9.5160    8.1970 C.ar  1356  4471356     0.0001
     38  CAG        3.2330    8.5240    7.6040 C.ar  1356  4471356     0.0046
@<TRIPOS>BOND
     1    15    14    1
     2     2     1    1
     3     2     3    1
     4     1     6    1
     5     4     5    1
     6     4     3    1
     7     5     6    1
     8    14    13    1
     9     8     9    1
    10     8     7    1
    11     6     7    1
    12    10     9    1
    13    10    11    1
    14    13    11    1
    15    13    16    2
    16    11    12    2
    17    16    17    1
    18    25    26   ar
    19    25    24   ar
    20    12    18    1
    21    17    18    1
    22    17    22    1
    23    26    29   ar
    24    23    22    1
    25    23    24    1
    26    32    31    2
    27    18    19    2
    28    22    21    2
    29    24    27   ar
    30    19    20    1
    31    21    20    1
    32    31    33    1
    33    31    30   am
    34    34    33   ar
    35    34    35   ar
    36    29    30    1
    37    29    28   ar
    38    33    38   ar
    39    27    28   ar
    40    35    36   ar
    41    38    37   ar
    42    36    37   ar
