@<TRIPOS>MOLECULE
2vry_HEM_A_1.pdb
 43 50 0 0 0
SMALL
GASTEIGER

@<TRIPOS>ATOM
      1 FE         17.7890   55.0590   35.3890 Fe    1150  HEM1150     0.0000
      2  CHA       19.5510   57.9530   36.0890 C.2   1150  HEM1150     0.0000
      3  CHB       15.0060   56.9340   34.5630 C.2   1150  HEM1150     0.0000
      4  CHC       15.9150   52.2370   35.0840 C.2   1150  HEM1150     0.0000
      5  CHD       20.5510   53.1650   36.2170 C.2   1150  HEM1150     0.0000
      6  NA        17.3560   57.0100   35.3350 N.ar  1150  HEM1150     0.0000
      7  C1A       18.2270   58.0760   35.6900 C.ar  1150  HEM1150     0.0000
      8  C2A       17.5040   59.3340   35.5730 C.ar  1150  HEM1150     0.0000
      9  C3A       16.2620   59.0560   35.1440 C.ar  1150  HEM1150     0.0000
     10  C4A       16.1480   57.6090   34.9870 C.ar  1150  HEM1150     0.0000
     11  CMA       15.1640   60.1270   34.8930 C.3   1150  HEM1150     0.0000
     12  CAA       18.0180   60.7790   35.8800 C.3   1150  HEM1150     0.0000
     13  CBA       18.4930   61.4390   34.5850 C.3   1150  HEM1150     0.0000
     14  CGA       19.6960   60.6880   34.0780 C.2   1150  HEM1150     0.0000
     15  O1A       20.7040   60.5680   34.8330 O.co2 1150  HEM1150     0.0000
     16  O2A       19.6720   60.1960   32.9290 O.co2 1150  HEM1150     0.0000
     17  NB        15.7710   54.6340   34.9110 N.2   1150  HEM1150     0.0000
     18  C1B       14.8390   55.5670   34.5630 C.2   1150  HEM1150     0.0000
     19  C2B       13.6220   54.8420   34.2130 C.2   1150  HEM1150     0.0000
     20  C3B       13.8500   53.5240   34.3690 C.2   1150  HEM1150     0.0000
     21  C4B       15.2380   53.3850   34.7910 C.2   1150  HEM1150     0.0000
     22  CMB       12.3360   55.5590   33.7950 C.3   1150  HEM1150     0.0000
     23  CAB       12.8480   52.3600   34.0980 C.2   1150  HEM1150     0.0000
     24  CBB       11.9070   52.0840   34.9950 C.2   1150  HEM1150     0.0000
     25  NC        18.1780   53.1240   35.6040 N.ar  1150  HEM1150     0.0000
     26  C1C       17.2290   52.1110   35.4560 C.ar  1150  HEM1150     0.0000
     27  C2C       17.8570   50.8460   35.7500 C.ar  1150  HEM1150     0.0000
     28  C3C       19.1390   51.0990   36.0680 C.ar  1150  HEM1150     0.0000
     29  C4C       19.3550   52.5250   35.9810 C.ar  1150  HEM1150     0.0000
     30  CMC       17.1310   49.4820   35.6880 C.3   1150  HEM1150     0.0000
     31  CAC       20.2280   50.0940   36.4580 C.2   1150  HEM1150     0.0000
     32  CBC       19.9040   49.0060   37.1730 C.2   1150  HEM1150     0.0000
     33  ND        19.7730   55.5130   36.0520 N.2   1150  HEM1150     0.0000
     34  C1D       20.7190   54.5320   36.2880 C.2   1150  HEM1150     0.0000
     35  C2D       21.9560   55.1750   36.6790 C.2   1150  HEM1150     0.0000
     36  C3D       21.6640   56.6770   36.6480 C.2   1150  HEM1150     0.0000
     37  C4D       20.2660   56.7890   36.2610 C.2   1150  HEM1150     0.0000
     38  CMD       23.2640   54.4410   37.0300 C.3   1150  HEM1150     0.0000
     39  CAD       22.6730   57.8150   37.0070 C.3   1150  HEM1150     0.0000
     40  CBD       22.8250   57.7550   38.5400 C.3   1150  HEM1150     0.0000
     41  CGD       22.8970   59.0520   39.3570 C.2   1150  HEM1150     0.0000
     42  O1D       22.9810   58.9570   40.6220 O.co2 1150  HEM1150     0.0000
     43  O2D       22.8360   60.1840   38.8260 O.co2 1150  HEM1150     0.0000
@<TRIPOS>BOND
     1    16    14   ar
     2    22    19    1
     3    14    13    1
     4    14    15   ar
     5    23    20    1
     6    23    24    2
     7    19    20    2
     8    19    18    1
     9    20    21    1
    10     3    18    1
    11     3    10    2
    12    18    17    2
    13    13    12    1
    14    21    17    1
    15    21     4    2
    16    11     9    1
    17    17     1    1
    18    10     9   ar
    19    10     6   ar
    20     4    26    1
    21     9     8   ar
    22     6     1    1
    23     6     7   ar
    24     1    25    1
    25     1    33    1
    26    26    25   ar
    27    26    27   ar
    28     8     7   ar
    29     8    12    1
    30    25    29   ar
    31    30    27    1
    32     7     2    2
    33    27    28   ar
    34    29    28   ar
    35    29     5    1
    36    33    37    2
    37    33    34    1
    38    28    31    1
    39     2    37    1
    40     5    34    2
    41    37    36    1
    42    34    35    1
    43    31    32    2
    44    36    35    2
    45    36    39    1
    46    35    38    1
    47    39    40    1
    48    40    41    1
    49    43    41   ar
    50    41    42   ar
