@<TRIPOS>MOLECULE
2vs1_SAH_A_1.pdb
 26 28 0 0 0
SMALL
GASTEIGER

@<TRIPOS>ATOM
      1  N         23.0350   -3.7470   26.5260 N.3   500  SAH500     -0.1208
      2  CA        24.0250   -2.9170   25.7250 C.3   500  SAH500      0.1952
      3  CB        24.3850   -3.5290   24.3830 C.3   500  SAH500      0.0422
      4  CG        25.2700   -4.7480   24.5160 C.3   500  SAH500      0.0597
      5  SD        25.9690   -5.0270   22.9090 S.3   500  SAH500     -0.1375
      6  C         23.3880   -1.5760   25.4870 C.2   500  SAH500      0.3819
      7  O         23.9150   -0.7220   24.7740 O.co2 500  SAH500     -0.2441
      8  OXT       22.2930   -1.2880   26.0130 O.co2 500  SAH500     -0.2441
      9  C5'       27.0880   -6.3810   23.2400 C.3   500  SAH500      0.0899
     10  C4'       28.1470   -5.9120   24.2560 C.3   500  SAH500      0.1630
     11  O4'       29.0590   -6.9920   24.3720 O.3   500  SAH500     -0.3153
     12  C3'       29.0160   -4.7410   23.7480 C.3   500  SAH500      0.2168
     13  O3'       28.9360   -3.5890   24.6410 O.3   500  SAH500     -0.2175
     14  C2'       30.4620   -5.3190   23.6340 C.3   500  SAH500      0.2569
     15  O2'       31.3630   -4.4400   24.2440 O.3   500  SAH500     -0.2130
     16  C1'       30.4070   -6.4450   24.5980 C.3   500  SAH500      0.3185
     17  N9        31.2630   -7.6040   24.3960 N.pl3 500  SAH500     -0.1439
     18  C8        31.7170   -8.0950   23.2560 C.3   500  SAH500      0.3377
     19  N7        32.3880   -9.2460   23.5230 N.2   500  SAH500     -0.2095
     20  C5        32.3340   -9.5040   24.8560 C.2   500  SAH500      0.2526
     21  C6        32.8280  -10.5460   25.7870 C.2   500  SAH500      0.4393
     22  N6        33.5480  -11.6650   25.3760 N.pl3 500  SAH500      0.2180
     23  N1        32.5870  -10.3240   27.0870 N.2   500  SAH500      0.0021
     24  C2        31.8660   -9.2930   27.5510 C.3   500  SAH500      0.5254
     25  N3        31.4040   -8.2930   26.7920 N.2   500  SAH500     -0.0055
     26  C4        31.6140   -8.3690   25.4400 C.2   500  SAH500      0.3518
@<TRIPOS>BOND
     1     5     9    1
     2     5     4    1
     3     9    10    1
     4    18    19    1
     5    18    17    1
     6    19    20    2
     7    14    12    1
     8    14    15    1
     9    14    16    1
    10    12    10    1
    11    12    13    1
    12    10    11    1
    13    11    16    1
    14     3     4    1
    15     3     2    1
    16    17    16    1
    17    17    26    1
    18     7     6   ar
    19    20    26    1
    20    20    21    1
    21    22    21    1
    22    26    25    2
    23     6     2    1
    24     6     8   ar
    25     2     1    1
    26    21    23    2
    27    25    24    1
    28    23    24    1
