@<TRIPOS>MOLECULE
2vs3_UDP_A_1.pdb
 25 26 0 0 0
SMALL
GASTEIGER

@<TRIPOS>ATOM
      1  N1         2.6230   16.7660   43.1290 N.am  1369  UDP1369    -0.1766
      2  C2         2.6230   17.7330   42.1170 C.1   1369  UDP1369     0.2845
      3  N3         2.2240   19.0280   42.3940 N.2   1369  UDP1369    -0.2452
      4  C4         1.8260   19.3780   43.6710 C.1   1369  UDP1369     0.2182
      5  C5         1.8210   18.4180   44.6830 C.2   1369  UDP1369     0.1242
      6  C6         2.2850   17.1370   44.4100 C.2   1369  UDP1369     0.0929
      7  O2         2.9740   17.4690   40.9640 O.2   1369  UDP1369    -0.1918
      8  O4         1.4790   20.5400   43.9020 O.2   1369  UDP1369    -0.2085
      9  C1'        3.0390   15.3610   42.8410 C.3   1369  UDP1369     0.2401
     10  C2'        4.5390   15.2640   42.6400 C.3   1369  UDP1369     0.2319
     11  O2'        4.7910   14.2300   41.7130 O.3   1369  UDP1369    -0.2157
     12  C3'        5.0310   14.8820   44.0150 C.3   1369  UDP1369     0.2158
     13  C4'        3.9270   13.9450   44.4830 C.3   1369  UDP1369     0.1799
     14  O4'        2.7390   14.4780   43.9120 O.3   1369  UDP1369    -0.3320
     15  O3'        6.2910   14.2660   43.9800 O.3   1369  UDP1369    -0.2175
     16  C5'        3.7950   13.8230   45.9970 C.3   1369  UDP1369     0.1813
     17  O5'        3.9040   15.1020   46.5890 O.3   1369  UDP1369    -0.3111
     18  PA         5.1890   15.4920   47.4690 P.3   1369  UDP1369     0.2231
     19  O1A        6.4200   14.9220   46.8730 O.2   1369  UDP1369    -0.5169
     20  O2A        5.2720   16.9640   47.6310 O.3   1369  UDP1369    -0.4370
     21  O3A        4.8930   14.7630   48.8690 O.3   1369  UDP1369    -0.2261
     22  PB         6.0840   14.4180   49.8890 P.3   1369  UDP1369     0.5373
     23  O1B        6.8730   13.2760   49.3700 O.2   1369  UDP1369    -0.2221
     24  O2B        5.5030   14.0640   51.2020 O.3   1369  UDP1369    -0.1143
     25  O3B        6.9720   15.5950   49.9940 O.3   1369  UDP1369    -0.1143
@<TRIPOS>BOND
     1     7     2    2
     2    11    10    1
     3     2     3    2
     4     2     1   am
     5     3     4    2
     6    10     9    1
     7    10    12    1
     8     9     1    1
     9     9    14    1
    10     1     6    1
    11     4     8    2
    12     4     5    1
    13    14    13    1
    14    15    12    1
    15    12    13    1
    16     6     5    2
    17    13    16    1
    18    16    17    1
    19    17    18    1
    20    19    18    2
    21    18    20    1
    22    18    21    1
    23    21    22    1
    24    23    22    2
    25    22    25    1
    26    22    24    1
