@<TRIPOS>MOLECULE
2vs3_NLC_A_1.pdb
 26 27 0 0 0
SMALL
GASTEIGER

@<TRIPOS>ATOM
      1  C1        12.1400   13.5970   59.4260 C.3   1370  NLC1370     0.2917
      2  O1        12.3960   14.3010   60.6430 O.3   1370  NLC1370    -0.1879
      3  C2        11.0970   12.5020   59.7050 C.3   1370  NLC1370     0.1870
      4  N         11.6980   11.4700   60.5600 N.am  1370  NLC1370    -0.1991
      5  C7        11.2290   11.1630   61.7700 C.2   1370  NLC1370     0.2420
      6  C8        11.8810   10.1680   62.4980 C.3   1370  NLC1370     0.0964
      7  O7        10.2470   11.7140   62.2730 O.2   1370  NLC1370    -0.2733
      8  C3        10.6040   11.8770   58.3900 C.3   1370  NLC1370     0.2063
      9  O3         9.5880   10.8960   58.6490 O.3   1370  NLC1370    -0.2184
     10  C4        10.0870   12.9600   57.4330 C.3   1370  NLC1370     0.1796
     11  O4         9.7230   12.3520   56.1900 O.3   1370  NLC1370    -0.3258
     12  C5        11.2430   13.9490   57.1940 C.3   1370  NLC1370     0.1803
     13  C6        10.8660   15.0690   56.2120 C.3   1370  NLC1370     0.2141
     14  O6        12.0390   15.8230   55.9040 O.3   1370  NLC1370    -0.2176
     15  O5        11.7020   14.5670   58.4300 O.3   1370  NLC1370    -0.3243
     16  C12        8.2010   12.4820   54.3600 C.3   1370  NLC1370     0.2406
     17  O12        8.7420   13.6980   53.8190 O.3   1370  NLC1370    -0.2149
     18  C13        6.7250   12.3060   53.9380 C.3   1370  NLC1370     0.2198
     19  O13        6.6620   12.1020   52.5320 O.3   1370  NLC1370    -0.2174
     20  C14        6.0710   11.1180   54.6600 C.3   1370  NLC1370     0.2144
     21  C15        6.2740   11.2490   56.1860 C.3   1370  NLC1370     0.1835
     22  C16        5.6420   10.1240   57.0100 C.3   1370  NLC1370     0.2142
     23  C10        8.3410   12.4600   55.8900 C.3   1370  NLC1370     0.2695
     24  O16        5.9740   10.2830   58.3980 O.3   1370  NLC1370    -0.2176
     25  O15        7.7010   11.2710   56.4400 O.3   1370  NLC1370    -0.3256
     26  O40        6.6390    9.8780   54.1790 O.3   1370  NLC1370    -0.2176
@<TRIPOS>BOND
     1    19    18    1
     2    17    16    1
     3    18    16    1
     4    18    20    1
     5    26    20    1
     6    16    23    1
     7    20    21    1
     8    23    11    1
     9    23    25    1
    10    14    13    1
    11    21    25    1
    12    21    22    1
    13    11    10    1
    14    13    12    1
    15    22    24    1
    16    12    10    1
    17    12    15    1
    18    10     8    1
    19     8     9    1
    20     8     3    1
    21    15     1    1
    22     1     3    1
    23     1     2    1
    24     3     4    1
    25     4     5   am
    26     5     7    2
    27     5     6    1
