@<TRIPOS>MOLECULE
2vs4_UDP_A_1.pdb
 25 26 0 0 0
SMALL
GASTEIGER

@<TRIPOS>ATOM
      1  N1         3.0220   13.3460   43.2760 N.am  1370  UDP1370    -0.1766
      2  C2         3.1490   14.3510   42.2530 C.1   1370  UDP1370     0.2845
      3  N3         2.7730   15.6340   42.6040 N.2   1370  UDP1370    -0.2452
      4  C4         2.3000   16.0120   43.8380 C.1   1370  UDP1370     0.2182
      5  C5         2.1880   14.9970   44.8480 C.2   1370  UDP1370     0.1242
      6  C6         2.5670   13.7120   44.4810 C.2   1370  UDP1370     0.0929
      7  O2         3.5230   14.1430   41.2060 O.2   1370  UDP1370    -0.1918
      8  O4         1.9790   17.2010   44.0720 O.2   1370  UDP1370    -0.2085
      9  C1'        3.4120   11.8800   42.9810 C.3   1370  UDP1370     0.2401
     10  C2'        4.9070   11.7370   42.6780 C.3   1370  UDP1370     0.2319
     11  O2'        5.0950   10.7290   41.7350 O.3   1370  UDP1370    -0.2157
     12  C3'        5.4380   11.3690   44.0060 C.3   1370  UDP1370     0.2158
     13  C4'        4.3730   10.5060   44.5620 C.3   1370  UDP1370     0.1799
     14  O4'        3.1910   11.0320   44.0420 O.3   1370  UDP1370    -0.3320
     15  O3'        6.7370   10.7750   43.9060 O.3   1370  UDP1370    -0.2175
     16  C5'        4.2330   10.4300   46.0850 C.3   1370  UDP1370     0.1813
     17  O5'        4.3220   11.7070   46.6880 O.3   1370  UDP1370    -0.3111
     18  PA         5.6020   12.0950   47.4930 P.3   1370  UDP1370     0.2231
     19  O1A        6.6850   11.5940   46.8850 O.2   1370  UDP1370    -0.5169
     20  O2A        5.7540   13.4820   47.5280 O.3   1370  UDP1370    -0.4370
     21  O3A        5.4260   11.4400   48.8860 O.3   1370  UDP1370    -0.2261
     22  PB         6.5890   11.1610   49.8790 P.3   1370  UDP1370     0.5373
     23  O1B        7.3800   10.1090   49.5880 O.2   1370  UDP1370    -0.2221
     24  O2B        6.0820   10.8710   51.0020 O.3   1370  UDP1370    -0.1143
     25  O3B        7.4030   12.2320   49.9210 O.3   1370  UDP1370    -0.1143
@<TRIPOS>BOND
     1     7     2    2
     2    11    10    1
     3     2     3    2
     4     2     1   am
     5     3     4    2
     6    10     9    1
     7    10    12    1
     8     9     1    1
     9     9    14    1
    10     1     6    1
    11     4     8    2
    12     4     5    1
    13    15    12    1
    14    12    13    1
    15    14    13    1
    16     6     5    2
    17    13    16    1
    18    16    17    1
    19    17    18    1
    20    19    18    2
    21    18    20    1
    22    18    21    1
    23    21    22    1
    24    23    22    2
    25    22    25    1
    26    22    24    1
