@<TRIPOS>MOLECULE
2vs4_NLC_A_1.pdb
 26 27 0 0 0
SMALL
GASTEIGER

@<TRIPOS>ATOM
      1  C1        12.3500   10.2570   59.2120 C.3   1371  NLC1371     0.2917
      2  O1        12.7350   10.9400   60.3700 O.3   1371  NLC1371    -0.1879
      3  C2        11.2980    9.2380   59.5180 C.3   1371  NLC1371     0.1870
      4  N         11.8140    8.3110   60.5150 N.am  1371  NLC1371    -0.1991
      5  C7        11.2880    8.0610   61.6620 C.2   1371  NLC1371     0.2420
      6  C8        11.9860    7.1390   62.4090 C.3   1371  NLC1371     0.0964
      7  O7        10.2920    8.5650   62.0550 O.2   1371  NLC1371    -0.2733
      8  C3        10.8650    8.4930   58.2460 C.3   1371  NLC1371     0.2063
      9  O3         9.9200    7.5730   58.5060 O.3   1371  NLC1371    -0.2184
     10  C4        10.4290    9.5160   57.2130 C.3   1371  NLC1371     0.1796
     11  O4        10.0300    8.9690   56.0010 O.3   1371  NLC1371    -0.3258
     12  C5        11.5000   10.5880   56.9390 C.3   1371  NLC1371     0.1803
     13  C6        11.0330   11.5890   55.9030 C.3   1371  NLC1371     0.2141
     14  O6        12.0100   12.5480   55.7140 O.3   1371  NLC1371    -0.2176
     15  O5        11.9170   11.1870   58.2070 O.3   1371  NLC1371    -0.3243
     16  C12        8.4180    8.9760   54.1830 C.3   1371  NLC1371     0.2406
     17  O12        8.9400   10.0970   53.4620 O.3   1371  NLC1371    -0.2149
     18  C13        6.9340    8.8590   53.9130 C.3   1371  NLC1371     0.2198
     19  O13        6.6480    8.8090   52.5600 O.3   1371  NLC1371    -0.2174
     20  C14        6.3400    7.6300   54.6730 C.3   1371  NLC1371     0.2144
     21  C15        6.6910    7.7980   56.2120 C.3   1371  NLC1371     0.1835
     22  C16        6.1840    6.5800   57.0000 C.3   1371  NLC1371     0.2142
     23  C10        8.6370    9.0190   55.7270 C.3   1371  NLC1371     0.2695
     24  O16        6.4810    6.7240   58.3470 O.3   1371  NLC1371    -0.2176
     25  O15        8.0420    7.9070   56.3630 O.3   1371  NLC1371    -0.3256
     26  O40        6.8810    6.4530   54.0680 O.3   1371  NLC1371    -0.2176
@<TRIPOS>BOND
     1    19    18    1
     2    17    16    1
     3    18    16    1
     4    18    20    1
     5    26    20    1
     6    16    23    1
     7    20    21    1
     8    14    13    1
     9    23    11    1
    10    23    25    1
    11    13    12    1
    12    11    10    1
    13    21    25    1
    14    21    22    1
    15    12    10    1
    16    12    15    1
    17    22    24    1
    18    10     8    1
    19    15     1    1
    20     8     9    1
    21     8     3    1
    22     1     3    1
    23     1     2    1
    24     3     4    1
    25     4     5   am
    26     5     7    2
    27     5     6    1
