@<TRIPOS>MOLECULE
2vs5_GDU_A_1.pdb
 36 38 0 0 0
SMALL
GASTEIGER

@<TRIPOS>ATOM
      1  N1         3.4530   25.8910   20.0250 N.am  1368  GDU1368    -0.1766
      2  C2         3.4720   26.9010   18.9830 C.1   1368  GDU1368     0.2845
      3  N3         3.3830   28.2790   19.2860 N.2   1368  GDU1368    -0.2452
      4  C4         3.2720   28.8600   20.5430 C.1   1368  GDU1368     0.2182
      5  C5         3.2650   27.9090   21.3920 C.2   1368  GDU1368     0.1242
      6  C6         3.3590   26.4460   21.0590 C.2   1368  GDU1368     0.0929
      7  O2         3.5630   26.5890   17.8220 O.2   1368  GDU1368    -0.1918
      8  O4         3.2030   30.0170   20.7320 O.2   1368  GDU1368    -0.2085
      9  C1D        3.5340   24.4720   19.7670 C.3   1368  GDU1368     0.2401
     10  C2D        4.9180   24.2130   19.1320 C.3   1368  GDU1368     0.2319
     11  O2D        4.8200   23.1810   18.1230 O.3   1368  GDU1368    -0.2157
     12  C3D        5.7440   23.7560   20.3310 C.3   1368  GDU1368     0.2158
     13  C4D        4.6860   22.9100   21.0860 C.3   1368  GDU1368     0.1799
     14  O4D        3.4840   23.6510   20.9150 O.3   1368  GDU1368    -0.3320
     15  O3D        6.8500   22.9270   19.9530 O.3   1368  GDU1368    -0.2175
     16  C5D        4.9570   22.7110   22.5770 C.3   1368  GDU1368     0.1813
     17  O5D        5.1940   23.9470   23.2470 O.3   1368  GDU1368    -0.3112
     18  PA         6.6040   24.5130   23.6960 P.3   1368  GDU1368     0.2189
     19  O1A        7.5980   24.0260   22.8480 O.2   1368  GDU1368    -0.5170
     20  O2A        6.5190   25.9350   23.6870 O.3   1368  GDU1368    -0.4371
     21  O3A        6.6990   24.0180   25.2040 O.3   1368  GDU1368    -0.2703
     22  PB         7.7060   23.0870   25.9170 P.3   1368  GDU1368     0.2208
     23  O1B        7.6330   23.3660   27.2920 O.3   1368  GDU1368    -0.4371
     24  O2B        8.9430   23.2890   25.3200 O.2   1368  GDU1368    -0.5170
     25  O3B        7.0490   21.7020   25.6590 O.3   1368  GDU1368    -0.2857
     26  C1'        6.7990   20.7170   26.6160 C.3   1368  GDU1368     0.2742
     27  C2'        6.5630   19.4510   25.7580 C.3   1368  GDU1368     0.2409
     28  C3'        5.3000   19.5810   24.8570 C.3   1368  GDU1368     0.2198
     29  C4'        4.1000   19.8690   25.7600 C.3   1368  GDU1368     0.2144
     30  C5'        4.3850   21.1310   26.6850 C.3   1368  GDU1368     0.1835
     31  C6'        3.2950   21.4970   27.6820 C.3   1368  GDU1368     0.2142
     32  O2'        7.7490   19.1760   25.0090 O.3   1368  GDU1368    -0.2149
     33  O3'        5.0330   18.4510   24.0330 O.3   1368  GDU1368    -0.2174
     34  O4'        3.8320   18.7170   26.5670 O.3   1368  GDU1368    -0.2176
     35  O5'        5.6250   21.0330   27.4100 O.3   1368  GDU1368    -0.3254
     36  O6'        3.7260   22.5820   28.4870 O.3   1368  GDU1368    -0.2176
@<TRIPOS>BOND
     1     7     2    2
     2    11    10    1
     3     2     3    2
     4     2     1   am
     5    10     9    1
     6    10    12    1
     7     3     4    2
     8     9     1    1
     9     9    14    1
    10    15    12    1
    11     1     6    1
    12    12    13    1
    13     4     8    2
    14     4     5    1
    15    14    13    1
    16     6     5    2
    17    13    16    1
    18    16    17    1
    19    19    18    2
    20    17    18    1
    21    20    18    1
    22    18    21    1
    23    33    28    1
    24    28    27    1
    25    28    29    1
    26    32    27    1
    27    21    22    1
    28    24    22    2
    29    25    22    1
    30    25    26    1
    31    27    26    1
    32    29    34    1
    33    29    30    1
    34    22    23    1
    35    26    35    1
    36    30    35    1
    37    30    31    1
    38    31    36    1
