@<TRIPOS>MOLECULE
2vsi_CDF_A_1.pdb
 25 26 0 0 0
SMALL
GASTEIGER

@<TRIPOS>ATOM
      1  O3B      -15.6040  -14.5020    4.2700 O.3   1234  CDF1234    -0.1143
      2  PB       -15.3550  -14.8680    2.8220 P.3   1234  CDF1234     0.5373
      3  O1B      -16.5900  -15.3530    2.0890 O.2   1234  CDF1234    -0.2221
      4  O2B      -14.1460  -15.7580    2.6140 O.3   1234  CDF1234    -0.1143
      5  O3A      -15.0260  -13.4520    2.0940 O.3   1234  CDF1234    -0.2261
      6  PA       -13.6680  -12.5930    2.3110 P.3   1234  CDF1234     0.2231
      7  O1A      -13.7010  -11.3910    1.3910 O.2   1234  CDF1234    -0.5169
      8  O2A      -13.5070  -12.3550    3.7930 O.3   1234  CDF1234    -0.4370
      9  O5'      -12.5360  -13.6230    1.7820 O.3   1234  CDF1234    -0.3111
     10  C5'      -11.1660  -13.2520    1.6250 C.3   1234  CDF1234     0.1813
     11  C4'      -10.5650  -13.7400    0.3100 C.3   1234  CDF1234     0.1799
     12  O4'      -11.5660  -13.9440   -0.6960 O.3   1234  CDF1234    -0.3320
     13  C3'       -9.6400  -12.6460   -0.2030 C.3   1234  CDF1234     0.2158
     14  O3'       -8.2950  -13.1190   -0.3080 O.3   1234  CDF1234    -0.2175
     15  C2'      -10.2220  -12.2160   -1.5360 C.3   1234  CDF1234     0.2319
     16  O2'      -10.1340  -10.7940   -1.6350 O.3   1234  CDF1234    -0.2157
     17  C1'      -11.6620  -12.7190   -1.4190 C.3   1234  CDF1234     0.2400
     18  N1       -12.5130  -12.7290   -2.6330 N.am  1234  CDF1234    -0.1778
     19  C2       -12.1060  -13.0970   -3.9460 C.1   1234  CDF1234     0.2756
     20  O2       -10.9550  -13.4880   -4.2090 O.2   1234  CDF1234    -0.1925
     21  N3       -12.9890  -13.0310   -4.9680 N.2   1234  CDF1234    -0.3024
     22  C4       -14.2590  -12.6130   -4.7670 C.2   1234  CDF1234     0.2346
     23  N4       -15.1170  -12.5580   -5.8050 N.pl3 1234  CDF1234    -0.0921
     24  C6       -13.7780  -12.3140   -2.4460 C.2   1234  CDF1234     0.0836
     25  C5       -14.6840  -12.2420   -3.4990 C.2   1234  CDF1234     0.0687
@<TRIPOS>BOND
     1    23    22    1
     2    21    22    2
     3    21    19    2
     4    22    25    1
     5    20    19    2
     6    19    18   am
     7    25    24    2
     8    18    24    1
     9    18    17    1
    10    16    15    1
    11    15    17    1
    12    15    13    1
    13    17    12    1
    14    12    11    1
    15    14    13    1
    16    13    11    1
    17    11    10    1
    18     7     6    2
    19    10     9    1
    20     9     6    1
    21     3     2    2
    22     5     6    1
    23     5     2    1
    24     6     8    1
    25     4     2    1
    26     2     1    1
