@<TRIPOS>MOLECULE
2vsl_III_B_1.pdb
 33 34 0 0 0
SMALL
GASTEIGER

@<TRIPOS>ATOM
      1  N          7.7810   20.2410   27.4610 N.3     1  ALA1       -0.2087
      2  CM         6.3860   20.1890   27.9010 C.3     1  ALA1        0.1080
      3  CA         7.9670   18.8040   27.3140 C.3     1  ALA1        0.1505
      4  CB         8.8310   18.5030   26.0910 C.3     1  ALA1        0.0287
      5  C          8.6280   18.2500   28.5610 C.2     1  ALA1        0.2576
      6  O          9.4150   18.9310   29.2220 O.2     1  ALA1       -0.2718
      7  N          8.3010   17.0080   28.8840 N.am    2  LYS2       -0.1967
      8  CA         8.8680   16.3620   30.0520 C.3     2  LYS2        0.1713
      9  C          9.8090   15.2630   29.5790 C.2     2  LYS2        0.2458
     10  O          9.5290   14.5620   28.6020 O.2     2  LYS2       -0.2730
     11  CB         7.7520   15.7630   30.9160 C.3     2  LYS2        0.0311
     12  CG         8.2160   15.2460   32.2640 C.3     2  LYS2        0.0038
     13  CD         7.0560   14.7010   33.0830 C.3     2  LYS2        0.0206
     14  CE         7.5440   14.2250   34.4460 C.3     2  LYS2        0.1093
     15  NZ         8.6000   13.1900   34.2970 N.3     2  LYS2       -0.1314
     16  N         10.9510   15.1140   30.2480 N.am    3  PRO3       -0.2716
     17  CA        11.9090   14.0760   29.8630 C.3     3  PRO3        0.1536
     18  C         11.4990   12.7350   30.4680 C.2     3  PRO3        0.2598
     19  O         10.7260   12.6990   31.4230 O.2     3  PRO3       -0.2715
     20  CB        13.2070   14.5810   30.4680 C.3     3  PRO3        0.0310
     21  CG        12.7250   15.2040   31.7490 C.3     3  PRO3        0.0237
     22  CD        11.5190   15.9950   31.2840 C.3     3  PRO3        0.0939
     23  N         12.0130   11.6430   29.9110 N.am    4  PHE4       -0.1974
     24  CA        11.7320   10.3100   30.4430 C.3     4  PHE4        0.1639
     25  C         12.9260    9.4270   30.1160 C.2     4  PHE4        0.2290
     26  O         13.6900    9.8540   29.2190 O.2     4  PHE4       -0.2864
     27  CB        10.4520    9.7220   29.8300 C.3     4  PHE4        0.0560
     28  CG        10.5960    9.3120   28.3960 C.ar    4  PHE4       -0.0200
     29  CD1       11.1900    8.1020   28.0600 C.ar    4  PHE4       -0.0042
     30  CD2       10.1530   10.1460   27.3750 C.ar    4  PHE4       -0.0042
     31  CE1       11.3410    7.7310   26.7260 C.ar    4  PHE4       -0.0003
     32  CE2       10.3000    9.7820   26.0400 C.ar    4  PHE4       -0.0003
     33  CZ        10.8930    8.5770   25.7140 C.ar    4  PHE4       -0.0000
@<TRIPOS>BOND
     1    33    32   ar
     2    33    31   ar
     3    32    30   ar
     4     4     3    1
     5    31    29   ar
     6     3     1    1
     7     3     5    1
     8    30    28   ar
     9     1     2    1
    10    29    28   ar
    11    28    27    1
    12     5     7   am
    13     5     6    2
    14    10     9    2
    15     7     8    1
    16    26    25    2
    17     9     8    1
    18     9    16   am
    19    27    24    1
    20    17    16    1
    21    17    20    1
    22    17    18    1
    23    23    24    1
    24    23    18   am
    25     8    11    1
    26    25    24    1
    27    16    22    1
    28    20    21    1
    29    18    19    2
    30    11    12    1
    31    22    21    1
    32    12    13    1
    33    13    14    1
    34    15    14    1
