@<TRIPOS>MOLECULE
2vsn_UDP_A_1.pdb
 25 26 0 0 0
SMALL
GASTEIGER

@<TRIPOS>ATOM
      1  N1       -13.1440   -9.7290   -2.2540 N.am  900  UDP900     -0.1766
      2  C2       -12.9020  -10.0220   -3.5580 C.1   900  UDP900      0.2845
      3  N3       -12.2640   -9.1180   -4.3700 N.2   900  UDP900     -0.2452
      4  C4       -11.8500   -7.9050   -3.8650 C.1   900  UDP900      0.2182
      5  C5       -12.0970   -7.6080   -2.5450 C.2   900  UDP900      0.1242
      6  C6       -12.7470   -8.5180   -1.7380 C.2   900  UDP900      0.0929
      7  O2       -13.2680  -11.0930   -4.0010 O.2   900  UDP900     -0.1918
      8  O4       -11.2750   -7.1000   -4.5840 O.2   900  UDP900     -0.2085
      9  C1'      -13.8540  -10.7070   -1.4350 C.3   900  UDP900      0.2401
     10  C2'      -13.2010  -11.1830   -0.1740 C.3   900  UDP900      0.2319
     11  O2'      -12.4790  -12.3560   -0.4660 O.3   900  UDP900     -0.2157
     12  C3'      -14.4160  -11.6250    0.5600 C.3   900  UDP900      0.2158
     13  C4'      -15.4300  -10.5750    0.2050 C.3   900  UDP900      0.1799
     14  O4'      -14.9400   -9.9370   -0.9490 O.3   900  UDP900     -0.3320
     15  O3'      -14.8170  -12.8170   -0.0590 O.3   900  UDP900     -0.2175
     16  C5'      -15.3190   -9.5820    1.3100 C.3   900  UDP900      0.1813
     17  O5'      -16.4480   -9.6320    2.1160 O.3   900  UDP900     -0.3111
     18  PA       -16.5010   -8.9620    3.4740 P.3   900  UDP900      0.2231
     19  O1A      -17.9760   -8.6160    3.6060 O.2   900  UDP900     -0.5169
     20  O2A      -15.6620   -7.8020    3.6070 O.3   900  UDP900     -0.4370
     21  O3A      -16.2790  -10.1660    4.4310 O.3   900  UDP900     -0.2261
     22  PB       -15.4370  -10.3420    5.7380 P.3   900  UDP900      0.5373
     23  O1B      -16.1920   -9.6230    6.8510 O.3   900  UDP900     -0.1143
     24  O2B      -14.0950   -9.6350    5.6120 O.2   900  UDP900     -0.2221
     25  O3B      -15.3210  -11.7450    6.0160 O.3   900  UDP900     -0.1143
@<TRIPOS>BOND
     1     8     4    2
     2     3     4    2
     3     3     2    2
     4     7     2    2
     5     4     5    1
     6     2     1   am
     7     5     6    2
     8     1     6    1
     9     1     9    1
    10     9    14    1
    11     9    10    1
    12    14    13    1
    13    11    10    1
    14    10    12    1
    15    15    12    1
    16    13    12    1
    17    13    16    1
    18    16    17    1
    19    17    18    1
    20    18    19    2
    21    18    20    1
    22    18    21    1
    23    21    22    1
    24    24    22    2
    25    22    25    1
    26    22    23    1
