@<TRIPOS>MOLECULE
2vso_AMP_A_1.pdb
 23 25 0 0 0
SMALL
GASTEIGER

@<TRIPOS>ATOM
      1  P         11.5430   -1.5040  -13.1520 P.3   1394  AMP1394     0.5327
      2  O1P       12.3510   -0.7050  -14.1250 O.2   1394  AMP1394    -0.2224
      3  O2P       12.3530   -2.4470  -12.2960 O.3   1394  AMP1394    -0.1145
      4  O3P       10.5400   -0.6400  -12.4470 O.3   1394  AMP1394    -0.1145
      5  O5'       10.7160   -2.5820  -14.0200 O.3   1394  AMP1394    -0.2675
      6  C5'        9.4030   -2.3650  -14.5250 C.3   1394  AMP1394     0.1860
      7  C4'        8.9310   -3.6100  -15.2860 C.3   1394  AMP1394     0.1823
      8  O4'        9.9980   -4.2750  -15.9620 O.3   1394  AMP1394    -0.3135
      9  C3'        8.3250   -4.6540  -14.3680 C.3   1394  AMP1394     0.2184
     10  O3'        6.9460   -4.7460  -14.7040 O.3   1394  AMP1394    -0.2174
     11  C2'        9.0190   -5.9640  -14.6830 C.3   1394  AMP1394     0.2570
     12  O2'        8.0650   -7.0080  -14.8580 O.3   1394  AMP1394    -0.2130
     13  C1'        9.7620   -5.6910  -15.9720 C.3   1394  AMP1394     0.3186
     14  N9        11.0550   -6.4190  -16.0470 N.pl3 1394  AMP1394    -0.1439
     15  C8        12.1590   -6.1700  -15.3070 C.3   1394  AMP1394     0.3377
     16  N7        13.1860   -7.0090  -15.6240 N.2   1394  AMP1394    -0.2095
     17  C5        12.7530   -7.8110  -16.6080 C.2   1394  AMP1394     0.2526
     18  C6        13.3110   -8.9210  -17.4040 C.2   1394  AMP1394     0.4393
     19  N6        14.5800   -9.3720  -17.2380 N.pl3 1394  AMP1394     0.2180
     20  N1        12.5050   -9.4980  -18.3130 N.2   1394  AMP1394     0.0021
     21  C2        11.2450   -9.0910  -18.5060 C.3   1394  AMP1394     0.5254
     22  N3        10.6800   -8.0960  -17.8230 N.2   1394  AMP1394    -0.0055
     23  C4        11.3550   -7.4250  -16.8730 C.2   1394  AMP1394     0.3518
@<TRIPOS>BOND
     1    21    20    1
     2    21    22    1
     3    20    18    2
     4    22    23    2
     5    18    19    1
     6    18    17    1
     7    23    17    1
     8    23    14    1
     9    17    16    2
    10    14    13    1
    11    14    15    1
    12    13     8    1
    13    13    11    1
    14     8     7    1
    15    16    15    1
    16     7     6    1
    17     7     9    1
    18    12    11    1
    19    10     9    1
    20    11     9    1
    21     6     5    1
    22     2     1    2
    23     5     1    1
    24     1     4    1
    25     1     3    1
