@<TRIPOS>MOLECULE
2vsr_9HO_A_1.pdb
 21 20 0 0 0
SMALL
GASTEIGER

@<TRIPOS>ATOM
      1  O2        17.7700   18.2860   20.0270 O.co2 1477  9HO1477    -0.2457
      2  C1        18.9930   18.4550   19.8310 C.2   1477  9HO1477     0.3649
      3  O1        19.8720   18.0440   20.6200 O.co2 1477  9HO1477    -0.2457
      4  C2        19.4290   19.1880   18.5860 C.3   1477  9HO1477     0.1141
      5  C3        18.9630   18.4200   17.3550 C.3   1477  9HO1477     0.0118
      6  C4        19.7060   17.0960   17.2230 C.3   1477  9HO1477     0.0006
      7  C5        19.3960   16.4270   15.8890 C.3   1477  9HO1477     0.0000
      8  C6        17.8930   16.2760   15.6900 C.3   1477  9HO1477     0.0001
      9  C7        17.5170   16.4460   14.2230 C.3   1477  9HO1477     0.0030
     10  C8        16.1010   15.9470   13.9610 C.3   1477  9HO1477     0.0375
     11  C9        15.3880   16.8340   12.9470 C.3   1477  9HO1477     0.1740
     12  C10       15.9320   16.5570   11.5660 C.2   1477  9HO1477     0.0061
     13  C11       17.1350   17.0090   11.2230 C.2   1477  9HO1477    -0.0024
     14  C12       17.6610   16.7410    9.8870 C.2   1477  9HO1477    -0.0048
     15  C13       18.7000   17.4350    9.4300 C.2   1477  9HO1477    -0.0261
     16  C14       19.3340   18.5000   10.2920 C.3   1477  9HO1477     0.0260
     17  C15       20.8510   18.3750   10.2200 C.3   1477  9HO1477     0.0047
     18  C16       21.5290   19.4420   11.0710 C.3   1477  9HO1477     0.0003
     19  C17       23.0270   19.1860   11.1780 C.3   1477  9HO1477     0.0000
     20  C18       23.7180   20.3110   11.9170 C.3   1477  9HO1477     0.0000
     21  O3        13.9840   16.5550   12.9720 O.3   1477  9HO1477    -0.2183
@<TRIPOS>BOND
     1    15    14    2
     2    15    16    1
     3    14    13    1
     4    17    16    1
     5    17    18    1
     6    18    19    1
     7    19    20    1
     8    13    12    2
     9    12    11    1
    10    11    21    1
    11    11    10    1
    12    10     9    1
    13     9     8    1
    14     8     7    1
    15     7     6    1
    16     6     5    1
    17     5     4    1
    18     4     2    1
    19     2     1   ar
    20     2     3   ar
