@<TRIPOS>MOLECULE
2vss_V55_D_1.pdb
 11 11 0 0 0
SMALL
GASTEIGER

@<TRIPOS>ATOM
      1  CAI       15.7500  -36.2440  -15.8290 C.ar  1250  V551250     0.0454
      2  CAG       14.4930  -35.6480  -15.7410 C.ar  1250  V551250     0.0435
      3  CAK       13.4360  -36.2570  -16.4620 C.ar  1250  V551250     0.1775
      4  CAJ       13.6440  -37.3900  -17.2670 C.ar  1250  V551250     0.2293
      5  CAF       14.9040  -37.9830  -17.3730 C.ar  1250  V551250     0.0453
      6  OAB       18.0030  -36.2120  -15.1680 O.2   1250  V551250    -0.2831
      7  CAE       15.9490  -37.4060  -16.6350 C.ar  1250  V551250     0.0068
      8  CAD       16.9260  -35.6490  -15.0730 C.2   1250  V551250     0.2343
      9  CAA       12.0240  -34.5440  -15.6080 C.3   1250  V551250     0.2526
     10  OAH       12.1570  -35.7170  -16.4210 O.3   1250  V551250    -0.4682
     11  OAC       12.5830  -37.9070  -17.9380 O.3   1250  V551250    -0.2833
@<TRIPOS>BOND
     1    11     4    1
     2     5     4   ar
     3     5     7   ar
     4     4     3   ar
     5     7     1   ar
     6     3    10    1
     7     3     2   ar
     8    10     9    1
     9     1     2   ar
    10     1     8    1
    11     6     8    2
