@<TRIPOS>MOLECULE
2vst_243_A_1.pdb
 21 20 0 0 0
SMALL
GASTEIGER

@<TRIPOS>ATOM
      1  OAS       14.1680   23.2450    7.8370 O.co2 1477  2431477    -0.2457
      2  CAA       14.3000   22.1170    8.3570 C.2   1477  2431477     0.3649
      3  OAT       13.3580   21.3020    8.4640 O.co2 1477  2431477    -0.2457
      4  CAB       15.6590   21.7190    8.8810 C.3   1477  2431477     0.1141
      5  CAC       16.7330   22.5500    8.1890 C.3   1477  2431477     0.0118
      6  CAD       18.1270   22.0920    8.6010 C.3   1477  2431477     0.0006
      7  CAE       18.2050   20.5720    8.6700 C.3   1477  2431477     0.0000
      8  CAF       19.5330   20.1190    9.2640 C.3   1477  2431477     0.0003
      9  CAG       19.7200   18.6150    9.1010 C.3   1477  2431477     0.0047
     10  CAH       18.9840   17.8510   10.1950 C.3   1477  2431477     0.0260
     11  CAI       18.6190   16.4750    9.6910 C.2   1477  2431477    -0.0261
     12  CAJ       17.3620   16.0480    9.7750 C.2   1477  2431477    -0.0048
     13  CAK       16.3360   16.9090   10.3550 C.2   1477  2431477    -0.0024
     14  CAL       15.0570   16.7250   10.0390 C.2   1477  2431477     0.0061
     15  CAM       13.9950   17.6150   10.6390 C.3   1477  2431477     0.1740
     16  OAU       13.4920   18.5010    9.6330 O.3   1477  2431477    -0.2183
     17  CAN       12.8570   16.7570   11.1760 C.3   1477  2431477     0.0375
     18  CAO       13.2510   16.0840   12.4860 C.3   1477  2431477     0.0030
     19  CAP       12.2010   15.0670   12.9150 C.3   1477  2431477     0.0001
     20  CAQ       12.4420   14.6040   14.3470 C.3   1477  2431477     0.0000
     21  CAR       12.0030   13.1680   14.5330 C.3   1477  2431477     0.0000
@<TRIPOS>BOND
     1     1     2   ar
     2     5     6    1
     3     5     4    1
     4     2     3   ar
     5     2     4    1
     6     6     7    1
     7     7     8    1
     8     9     8    1
     9     9    10    1
    10    16    15    1
    11    11    12    2
    12    11    10    1
    13    12    13    1
    14    14    13    2
    15    14    15    1
    16    15    17    1
    17    17    18    1
    18    18    19    1
    19    19    20    1
    20    20    21    1
