@<TRIPOS>MOLECULE
2vsu_V55_D_1.pdb
 11 11 0 0 0
SMALL
GASTEIGER

@<TRIPOS>ATOM
      1  CAI       15.5150  -36.0640  -15.8250 C.ar  1251  V551251     0.0454
      2  CAG       14.2450  -35.4890  -15.7380 C.ar  1251  V551251     0.0435
      3  CAK       13.1990  -36.0840  -16.4870 C.ar  1251  V551251     0.1775
      4  CAJ       13.4230  -37.2080  -17.2760 C.ar  1251  V551251     0.2293
      5  CAF       14.6840  -37.7860  -17.3620 C.ar  1251  V551251     0.0453
      6  OAB       17.7790  -35.9890  -15.0520 O.2   1251  V551251    -0.2831
      7  CAE       15.7260  -37.2090  -16.6220 C.ar  1251  V551251     0.0068
      8  CAD       16.6690  -35.4610  -15.0320 C.2   1251  V551251     0.2343
      9  CAA       11.6970  -34.3690  -15.8360 C.3   1251  V551251     0.2526
     10  OAH       11.9040  -35.6100  -16.4920 O.3   1251  V551251    -0.4682
     11  OAC       12.3610  -37.7230  -17.9460 O.3   1251  V551251    -0.2833
@<TRIPOS>BOND
     1    11     4    1
     2     5     4   ar
     3     5     7   ar
     4     4     3   ar
     5     7     1   ar
     6    10     3    1
     7    10     9    1
     8     3     2   ar
     9     1     2   ar
    10     1     8    1
    11     6     8    2
