@<TRIPOS>MOLECULE
2vsx_AMP_A_1.pdb
 23 25 0 0 0
SMALL
GASTEIGER

@<TRIPOS>ATOM
      1  P         31.3200  -17.3450   -0.4840 P.3   1178  AMP1178     0.5327
      2  O1P       31.9330  -18.6770   -0.1330 O.3   1178  AMP1178    -0.1145
      3  O2P       32.3160  -16.2430   -0.7480 O.3   1178  AMP1178    -0.1145
      4  O3P       30.1880  -17.4300   -1.4820 O.2   1178  AMP1178    -0.2224
      5  O5'       30.6020  -16.8580    0.8720 O.3   1178  AMP1178    -0.2675
      6  C5'       29.2970  -17.3210    1.2100 C.3   1178  AMP1178     0.1860
      7  C4'       28.7530  -16.5050    2.3770 C.3   1178  AMP1178     0.1823
      8  O4'       29.7590  -16.3150    3.3710 O.3   1178  AMP1178    -0.3135
      9  C3'       28.2960  -15.1190    1.9490 C.3   1178  AMP1178     0.2184
     10  O3'       26.8680  -15.0420    2.0220 O.3   1178  AMP1178    -0.2174
     11  C2'       28.9110  -14.1520    2.9400 C.3   1178  AMP1178     0.2570
     12  O2'       27.8920  -13.3680    3.5680 O.3   1178  AMP1178    -0.2130
     13  C1'       29.5980  -15.0300    3.9710 C.3   1178  AMP1178     0.3186
     14  N9        30.9110  -14.4590    4.3560 N.pl3 1178  AMP1178    -0.1439
     15  C8        31.9960  -14.3680    3.5670 C.3   1178  AMP1178     0.3377
     16  N7        33.0330  -13.7950    4.2290 N.2   1178  AMP1178    -0.2095
     17  C5        32.6110  -13.5100    5.4750 C.2   1178  AMP1178     0.2526
     18  C6        33.1990  -12.8970    6.6910 C.2   1178  AMP1178     0.4393
     19  N6        34.4820  -12.4650    6.7070 N.pl3 1178  AMP1178     0.2180
     20  N1        32.4110  -12.7820    7.7830 N.2   1178  AMP1178     0.0021
     21  C2        31.1350  -13.2110    7.7810 C.3   1178  AMP1178     0.5254
     22  N3        30.5380  -13.7740    6.7170 N.2   1178  AMP1178    -0.0055
     23  C4        31.2100  -13.9470    5.5530 C.2   1178  AMP1178     0.3518
@<TRIPOS>BOND
     1     4     1    2
     2     3     1    1
     3     1     2    1
     4     1     5    1
     5     5     6    1
     6     6     7    1
     7     9    10    1
     8     9     7    1
     9     9    11    1
    10     7     8    1
    11    11    12    1
    12    11    13    1
    13     8    13    1
    14    15    16    1
    15    15    14    1
    16    13    14    1
    17    16    17    2
    18    14    23    1
    19    17    23    1
    20    17    18    1
    21    23    22    2
    22    18    19    1
    23    18    20    2
    24    22    21    1
    25    21    20    1
