@<TRIPOS>MOLECULE
2vt0_CBU_A_1.pdb
 11 11 0 0 0
SMALL
GASTEIGER

@<TRIPOS>ATOM
      1  C1       -26.7040  -17.4810  -43.2190 C.3   1499  CBU1499     0.2149
      2  C2       -25.8930  -16.4140  -42.4390 C.3   1499  CBU1499     0.2173
      3  C3       -24.5780  -16.8970  -42.0370 C.3   1499  CBU1499     0.2149
      4  C4       -24.7080  -18.1330  -41.1090 C.3   1499  CBU1499     0.1874
      5  C5       -25.4940  -19.2550  -41.8180 C.3   1499  CBU1499     0.0712
      6  C6       -26.9130  -18.6780  -42.2730 C.3   1499  CBU1499     0.1874
      7  O1       -27.9290  -16.8780  -43.6170 O.3   1499  CBU1499    -0.2176
      8  O2       -25.6580  -15.1840  -43.2360 O.3   1499  CBU1499    -0.2175
      9  O3       -23.8800  -15.7420  -41.4260 O.3   1499  CBU1499    -0.2176
     10  O4       -25.4200  -17.7140  -39.9770 O.3   1499  CBU1499    -0.2202
     11  O6       -27.6230  -19.6880  -42.8820 O.3   1499  CBU1499    -0.2202
@<TRIPOS>BOND
     1     7     1    1
     2     8     2    1
     3     1     2    1
     4     1     6    1
     5    11     6    1
     6     2     3    1
     7     6     5    1
     8     3     9    1
     9     3     4    1
    10     5     4    1
    11     4    10    1
