@<TRIPOS>MOLECULE
2vt2_NAD_A_1.pdb
 27 29 0 0 0
SMALL
GASTEIGER

@<TRIPOS>ATOM
      1  PA        19.0560   11.5640  -32.1990 P.3   1210  NAD1210     0.2231
      2  O1A       19.2540   11.5390  -30.7090 O.3   1210  NAD1210    -0.4370
      3  O2A       20.2550   11.6980  -33.0990 O.2   1210  NAD1210    -0.5169
      4  O5B       18.0840   12.8230  -32.5170 O.3   1210  NAD1210    -0.3111
      5  C5B       16.7140   12.8050  -32.0930 C.3   1210  NAD1210     0.1813
      6  C4B       15.8250   13.1800  -33.2770 C.3   1210  NAD1210     0.1821
      7  O4B       16.2160   14.4720  -33.7470 O.3   1210  NAD1210    -0.3135
      8  C3B       15.9330   12.2130  -34.4670 C.3   1210  NAD1210     0.2184
      9  O3B       14.6310   11.9350  -34.9840 O.3   1210  NAD1210    -0.2174
     10  C2B       16.7090   12.9800  -35.5080 C.3   1210  NAD1210     0.2570
     11  O2B       16.2780   12.6550  -36.8290 O.3   1210  NAD1210    -0.2130
     12  C1B       16.3070   14.4050  -35.1720 C.3   1210  NAD1210     0.3186
     13  N9A       17.2520   15.4250  -35.6320 N.pl3 1210  NAD1210    -0.1439
     14  C8A       18.5890   15.2980  -35.6640 C.3   1210  NAD1210     0.3377
     15  N7A       19.1190   16.4340  -36.1280 N.2   1210  NAD1210    -0.2095
     16  C5A       18.1250   17.2950  -36.4010 C.2   1210  NAD1210     0.2526
     17  C6A       18.0290   18.6660  -36.9120 C.2   1210  NAD1210     0.4393
     18  N6A       19.1760   19.3400  -37.2310 N.pl3 1210  NAD1210     0.2180
     19  N1A       16.7880   19.2050  -37.0540 N.2   1210  NAD1210     0.0021
     20  C2A       15.6670   18.5330  -36.7340 C.3   1210  NAD1210     0.5254
     21  N3A       15.6950   17.2680  -36.2660 N.2   1210  NAD1210    -0.0055
     22  C4A       16.8780   16.6170  -36.0810 C.2   1210  NAD1210     0.3518
     23  O3        18.1750   10.2810  -32.7020 O.3   1210  NAD1210    -0.2261
     24  PN        17.4590    9.1150  -31.8210 P.3   1210  NAD1210     0.5373
     25  O1N       16.6250    9.7540  -30.7350 O.3   1210  NAD1210    -0.1143
     26  O2N       16.5850    8.3970  -32.8390 O.2   1210  NAD1210    -0.2221
     27  O5D       18.5920    8.2350  -31.3180 O.3   1210  NAD1210    -0.1143
@<TRIPOS>BOND
     1    18    17    1
     2    19    17    2
     3    19    20    1
     4    17    16    1
     5    11    10    1
     6    20    21    1
     7    16    15    2
     8    16    22    1
     9    21    22    2
    10    15    14    1
    11    22    13    1
    12    14    13    1
    13    13    12    1
    14    10    12    1
    15    10     8    1
    16    12     7    1
    17     9     8    1
    18     8     6    1
    19     7     6    1
    20     6     5    1
    21     3     1    2
    22    26    24    2
    23    23     1    1
    24    23    24    1
    25     4     1    1
    26     4     5    1
    27     1     2    1
    28    24    27    1
    29    24    25    1
