@<TRIPOS>MOLECULE
2vt3_ATP_A_1.pdb
 31 33 0 0 0
SMALL
GASTEIGER

@<TRIPOS>ATOM
      1  PG        16.9100    7.4790  -34.1450 P.3   302  ATP302      0.5373
      2  O1G       15.4530    7.2910  -34.5290 O.3   302  ATP302     -0.1143
      3  O2G       17.7200    8.3600  -35.0790 O.2   302  ATP302     -0.2221
      4  O3G       17.5560    6.1910  -33.7250 O.3   302  ATP302     -0.1143
      5  PB        17.7470    9.0430  -31.7640 P.3   302  ATP302      0.2277
      6  O1B       16.8600    9.6000  -30.6750 O.3   302  ATP302     -0.4368
      7  O2B       18.8010    8.0740  -31.2800 O.2   302  ATP302     -0.5168
      8  O3B       16.7040    8.2930  -32.7560 O.3   302  ATP302     -0.2258
      9  PA        19.3350   11.4060  -32.2720 P.3   302  ATP302      0.2189
     10  O1A       19.4560   11.4330  -30.7710 O.3   302  ATP302     -0.4371
     11  O2A       20.6030   11.4560  -33.0560 O.2   302  ATP302     -0.5170
     12  O3A       18.3690   10.1860  -32.7220 O.3   302  ATP302     -0.2700
     13  O5'       18.4860   12.7040  -32.6870 O.3   302  ATP302     -0.3112
     14  C5'       17.1930   12.8630  -32.1230 C.3   302  ATP302      0.1813
     15  C4'       16.2380   13.1700  -33.2640 C.3   302  ATP302      0.1821
     16  O4'       16.5880   14.4700  -33.6960 O.3   302  ATP302     -0.3135
     17  C3'       16.2820   12.2670  -34.5140 C.3   302  ATP302      0.2184
     18  O3'       14.9550   12.0050  -35.0170 O.3   302  ATP302     -0.2174
     19  C2'       17.0160   13.0880  -35.5380 C.3   302  ATP302      0.2570
     20  O2'       16.6580   12.8160  -36.8860 O.3   302  ATP302     -0.2130
     21  C1'       16.6080   14.4980  -35.1300 C.3   302  ATP302      0.3186
     22  N9        17.5270   15.5320  -35.5880 N.pl3 302  ATP302     -0.1439
     23  C8        18.8650   15.4650  -35.6030 C.3   302  ATP302      0.3377
     24  N7        19.3650   16.6220  -36.0580 N.2   302  ATP302     -0.2095
     25  C5        18.3430   17.4460  -36.3350 C.2   302  ATP302      0.2526
     26  C6        18.1680   18.8080  -36.8660 C.2   302  ATP302      0.4393
     27  N6        19.2300   19.5700  -37.1930 N.pl3 302  ATP302      0.2180
     28  N1        16.9220   19.2930  -36.9830 N.2   302  ATP302      0.0021
     29  C2        15.8450   18.5590  -36.6700 C.3   302  ATP302      0.5254
     30  N3        15.9360   17.3100  -36.2150 N.2   302  ATP302     -0.0055
     31  C4        17.1280   16.7150  -36.0350 C.2   302  ATP302      0.3518
@<TRIPOS>BOND
     1    27    26    1
     2    28    26    2
     3    28    29    1
     4    20    19    1
     5    26    25    1
     6    29    30    1
     7    25    24    2
     8    25    31    1
     9    30    31    2
    10    24    23    1
    11    31    22    1
    12    23    22    1
    13    22    21    1
    14    19    21    1
    15    19    17    1
    16    21    16    1
    17     3     1    2
    18    18    17    1
    19     2     1    1
    20    17    15    1
    21     1     4    1
    22     1     8    1
    23    16    15    1
    24    15    14    1
    25    11     9    2
    26     8     5    1
    27    12     9    1
    28    12     5    1
    29    13     9    1
    30    13    14    1
    31     9    10    1
    32     5     7    2
    33     5     6    1
