@<TRIPOS>MOLECULE
2vt4_P32_A_1.pdb
 21 22 0 0 0
SMALL
GASTEIGER

@<TRIPOS>ATOM
      1  O2        10.1600   22.6880   25.8830 O.3   400  P32400     -0.2176
      2  C10        9.4260   21.9870   24.9160 C.3   400  P32400      0.2126
      3  N3         5.4040   17.8160   19.6020 N.1   400  P32400     -0.1882
      4  C11        8.6230   22.9220   23.9820 C.3   400  P32400      0.1253
      5  N2         7.8850   23.9000   24.7780 N.3   400  P32400     -0.2180
      6  C12        6.9070   24.6600   23.9740 C.3   400  P32400      0.0596
      7  C15        5.6690   23.7730   23.6560 C.3   400  P32400      0.0174
      8  C13        7.5600   25.1830   22.6680 C.3   400  P32400      0.0174
      9  C9        10.4310   21.2650   24.0300 C.3   400  P32400      0.2395
     10  O1         9.7850   20.0610   23.6660 O.3   400  P32400     -0.4726
     11  C4        10.2800   19.2850   22.6800 C.ar  400  P32400      0.1412
     12  C5        11.6340   19.0060   22.6280 C.ar  400  P32400      0.0371
     13  C6        12.1110   18.1590   21.6350 C.ar  400  P32400      0.0057
     14  C7        11.2470   17.5870   20.6990 C.ar  400  P32400      0.0323
     15  C8         9.8900   17.8770   20.7610 C.ar  400  P32400      0.1353
     16  C3         9.4130   18.7300   21.7530 C.ar  400  P32400      0.0668
     17  N1         8.8420   17.5010   20.0360 N.2   400  P32400     -0.3915
     18  C1         7.7750   18.0760   20.5620 C.2   400  P32400      0.1990
     19  C2         8.1000   18.8480   21.6060 C.2   400  P32400      0.0483
     20  C16        6.4250   17.9080   20.0960 C.1   400  P32400      0.1329
     21  C14        6.4730   25.8790   24.8160 C.3   400  P32400      0.0174
@<TRIPOS>BOND
     1     3    20    3
     2    17    18    2
     3    17    15    2
     4    20    18    1
     5    18    19    1
     6    14    15   ar
     7    14    13   ar
     8    15    16   ar
     9    19    16    2
    10    13    12   ar
    11    16    11   ar
    12    12    11   ar
    13     8     6    1
    14    11    10    1
    15     7     6    1
    16    10     9    1
    17     6     5    1
    18     6    21    1
    19     4     5    1
    20     4     2    1
    21     9     2    1
    22     2     1    1
