@<TRIPOS>MOLECULE
2vt5_ROK_A_1.pdb
 17 17 0 0 0
SMALL
GASTEIGER

@<TRIPOS>ATOM
      1  O7        39.3190   12.7670  -20.4340 O.2   1337  ROK1337    -0.1482
      2  S2        38.9190   12.9980  -21.7920 S.O2  1337  ROK1337     0.0966
      3  O6        39.5840   14.1690  -22.2860 O.2   1337  ROK1337    -0.1482
      4  N5        39.2940   11.8290  -22.6710 N.am  1337  ROK1337    -0.0401
      5  C10       39.0760   10.5430  -22.4020 C.2   1337  ROK1337     0.3604
      6  O13       38.5240   10.1440  -21.2540 O.2   1337  ROK1337    -0.2474
      7  N12       39.4520    9.6720  -23.3420 N.am  1337  ROK1337    -0.1849
      8  C15       39.2790    8.2400  -23.1900 C.3   1337  ROK1337     0.1294
      9  C16       40.6750    7.7110  -23.3950 C.3   1337  ROK1337     0.0921
     10  S17       41.2110    7.2270  -21.7450 S.3   1337  ROK1337    -0.0802
     11  C1        37.3360   13.1790  -21.9000 C.ar  1337  ROK1337     0.1273
     12  C4        36.8070   13.8750  -22.9810 C.ar  1337  ROK1337     0.0216
     13  C9        35.4290   14.0480  -23.1080 C.ar  1337  ROK1337     0.0194
     14  C11       34.5710   13.5170  -22.1510 C.ar  1337  ROK1337     0.0892
     15  N14       33.2360   13.7030  -22.2930 N.pl3 1337  ROK1337    -0.1281
     16  C8        35.0860   12.8160  -21.0610 C.ar  1337  ROK1337     0.0194
     17  C3        36.4700   12.6490  -20.9440 C.ar  1337  ROK1337     0.0216
@<TRIPOS>BOND
     1     9     8    1
     2     9    10    1
     3     7     8    1
     4     7     5   am
     5    13    12   ar
     6    13    14   ar
     7    12    11   ar
     8     4     5   am
     9     4     2    1
    10     5     6    2
    11    15    14    1
    12     3     2    2
    13    14    16   ar
    14    11     2    1
    15    11    17   ar
    16     2     1    2
    17    16    17   ar
