@<TRIPOS>MOLECULE
2vtb_MHF_A_1.pdb
 33 36 0 0 0
SMALL
GASTEIGER

@<TRIPOS>ATOM
      1  N1       -32.3710   26.7960  -64.3310 N.2   999  MHF999     -0.2726
      2  C2       -33.4610   26.4820  -63.6150 C.1   999  MHF999      0.2603
      3  NA2      -33.8230   25.1820  -63.5670 N.pl3 999  MHF999     -0.0221
      4  N3       -34.2030   27.4020  -62.9470 N.2   999  MHF999     -0.2515
      5  C4       -33.8900   28.7210  -62.9640 C.1   999  MHF999      0.2219
      6  O4       -34.5840   29.5750  -62.3550 O.2   999  MHF999     -0.2109
      7  C4A      -32.7170   29.1260  -63.7570 C.3   999  MHF999      0.2774
      8  N5       -32.2220   30.4310  -63.8650 N.3   999  MHF999     -0.2275
      9  C6       -31.5740   30.6620  -65.1590 C.3   999  MHF999      0.1058
     10  C7       -30.3650   29.7400  -65.2190 C.3   999  MHF999      0.1547
     11  N8       -30.8500   28.3660  -65.1570 N.2   999  MHF999     -0.2096
     12  C8A      -31.9530   28.0540  -64.4410 C.1   999  MHF999      0.1050
     13  C9       -31.3020   32.1600  -65.1630 C.3   999  MHF999      0.1101
     14  N10      -32.0630   32.6260  -63.9860 N.pl3 999  MHF999     -0.2923
     15  C11      -33.0640   31.6030  -63.6570 C.3   999  MHF999      0.1706
     16  C12      -33.0210   36.6950  -63.3480 C.ar  999  MHF999      0.0551
     17  C13      -33.9420   35.6950  -63.0390 C.ar  999  MHF999      0.0058
     18  C14      -33.6460   34.3570  -63.2640 C.ar  999  MHF999      0.0147
     19  C15      -32.4140   33.9900  -63.8200 C.ar  999  MHF999      0.0488
     20  C16      -31.4700   34.9830  -64.1000 C.ar  999  MHF999      0.0147
     21  C17      -31.7720   36.3290  -63.8790 C.ar  999  MHF999      0.0058
     22  C        -33.3300   38.1510  -63.0890 C.2   999  MHF999      0.2652
     23  O        -32.3890   38.9300  -63.0740 O.2   999  MHF999     -0.2684
     24  N        -34.5640   38.5820  -62.8070 N.am  999  MHF999     -0.1918
     25  CA       -34.8170   39.9520  -62.3740 C.3   999  MHF999      0.1986
     26  CB       -36.3000   40.3140  -62.5180 C.3   999  MHF999      0.0451
     27  CG       -36.8540   40.1280  -63.9300 C.3   999  MHF999      0.1164
     28  CD       -36.0260   40.8480  -64.9670 C.2   999  MHF999      0.3649
     29  OE1      -35.3950   40.1510  -65.7990 O.co2 999  MHF999     -0.2457
     30  OE2      -35.9940   42.1000  -64.9540 O.co2 999  MHF999     -0.2457
     31  CT       -34.4260   40.2000  -60.9370 C.2   999  MHF999      0.3842
     32  O1       -34.3870   41.3930  -60.5530 O.co2 999  MHF999     -0.2437
     33  O2       -34.1760   39.2380  -60.1590 O.co2 999  MHF999     -0.2437
@<TRIPOS>BOND
     1    29    28   ar
     2    10     9    1
     3    10    11    1
     4    13     9    1
     5    13    14    1
     6     9     8    1
     7    11    12    2
     8    28    30   ar
     9    28    27    1
    10    12     1    2
    11    12     7    1
    12     1     2    2
    13    20    21   ar
    14    20    19   ar
    15    14    19    1
    16    14    15    1
    17    27    26    1
    18    21    16   ar
    19     8     7    1
    20     8    15    1
    21    19    18   ar
    22     7     5    1
    23     2     3    1
    24     2     4    2
    25    16    22    1
    26    16    17   ar
    27    18    17   ar
    28    22    23    2
    29    22    24   am
    30     5     4    2
    31     5     6    2
    32    24    25    1
    33    26    25    1
    34    25    31    1
    35    31    32   ar
    36    31    33   ar
