@<TRIPOS>MOLECULE
2vtd_LKM_A_1.pdb
 34 36 0 0 0
SMALL
GASTEIGER

@<TRIPOS>ATOM
      1  N31       -1.5900  -11.2160  -21.1870 N.1   1441  LKM1441    -0.1908
      2  C30       -1.4950  -12.3550  -21.2760 C.1   1441  LKM1441     0.1005
      3  C27       -1.4160  -13.6220  -21.4690 C.ar  1441  LKM1441     0.0707
      4  C28       -1.2150  -14.5500  -20.4550 C.ar  1441  LKM1441     0.0102
      5  C29       -1.1500  -15.9090  -20.7670 C.ar  1441  LKM1441     0.0022
      6  C26       -1.5550  -14.0700  -22.7700 C.ar  1441  LKM1441     0.0397
      7  C25       -1.4890  -15.4200  -23.0720 C.ar  1441  LKM1441     0.1403
      8  C24       -1.2900  -16.3250  -22.0780 C.ar  1441  LKM1441     0.0487
      9  C23       -1.2130  -17.7630  -22.5010 C.3   1441  LKM1441     0.2342
     10  O22       -0.8630  -18.5110  -21.3670 O.3   1441  LKM1441    -0.4706
     11  C20        0.3100  -19.1810  -21.1530 C.ar  1441  LKM1441     0.1391
     12  C19        1.3150  -19.4640  -22.0710 C.ar  1441  LKM1441     0.0369
     13  C18        2.4470  -20.1690  -21.6450 C.ar  1441  LKM1441     0.0032
     14  C21        0.4300  -19.6100  -19.8720 C.ar  1441  LKM1441     0.0369
     15  C15        1.5190  -20.3020  -19.4600 C.ar  1441  LKM1441     0.0031
     16  C16        2.5460  -20.5900  -20.3250 C.ar  1441  LKM1441     0.0015
     17  C17        3.6260  -21.3030  -19.8340 C.ar  1441  LKM1441     0.0200
     18  C14        1.5310  -20.6730  -18.1430 C.ar  1441  LKM1441     0.0015
     19  C13        2.5950  -21.3770  -17.6690 C.ar  1441  LKM1441     0.0200
     20  C12        3.6390  -21.6820  -18.5060 C.ar  1441  LKM1441     0.1236
     21  S11        4.7910  -22.5280  -17.8700 S.O2  1441  LKM1441     0.0773
     22  O33        5.9870  -22.3960  -18.6830 O.2   1441  LKM1441    -0.1516
     23  O32        5.0190  -22.1950  -16.4800 O.2   1441  LKM1441    -0.1516
     24  N          4.2670  -23.9470  -17.8430 N.3   1441  LKM1441    -0.0677
     25  CA         4.0370  -24.7010  -19.0730 C.3   1441  LKM1441     0.2007
     26  C          5.2890  -25.3680  -19.5690 C.2   1441  LKM1441     0.3822
     27  O          6.0630  -25.8580  -18.7480 O.co2 1441  LKM1441    -0.2440
     28  OXT        5.4820  -25.4020  -20.7900 O.co2 1441  LKM1441    -0.2440
     29  CB         2.9370  -25.7340  -18.7930 C.3   1441  LKM1441     0.0427
     30  CG         2.5170  -26.4180  -20.0780 C.3   1441  LKM1441     0.1161
     31  CD         1.3070  -27.3160  -19.9840 C.2   1441  LKM1441     0.3649
     32  OE1        0.5260  -27.2330  -19.0360 O.co2 1441  LKM1441    -0.2457
     33  OE2        1.1580  -28.1280  -20.9020 O.co2 1441  LKM1441    -0.2457
     34  F2        -1.6170  -15.8710  -24.3240 F     1441  LKM1441    -0.2044
@<TRIPOS>BOND
     1    34     7    1
     2     7     6   ar
     3     7     8   ar
     4     6     3   ar
     5     9     8    1
     6     9    10    1
     7     8     5   ar
     8    12    13   ar
     9    12    11   ar
    10    13    16   ar
    11     3     2    1
    12     3     4   ar
    13    10    11    1
    14     2     1    3
    15    11    14   ar
    16    33    31   ar
    17    28    26   ar
    18     5     4   ar
    19    16    17   ar
    20    16    15   ar
    21    30    31    1
    22    30    29    1
    23    31    32   ar
    24    14    15   ar
    25    17    20   ar
    26    26    25    1
    27    26    27   ar
    28    15    18   ar
    29    25    29    1
    30    25    24    1
    31    22    21    2
    32    20    21    1
    33    20    19   ar
    34    18    19   ar
    35    21    24    1
    36    21    23    2
