@<TRIPOS>MOLECULE
2vte_IK4_A_1.pdb
 33 35 0 0 0
SMALL
GASTEIGER

@<TRIPOS>ATOM
      1  N31      -11.3970   -1.6930   21.5350 N.1   1440  IK41440    -0.1908
      2  C30      -12.5220   -1.5440   21.5940 C.1   1440  IK41440     0.1004
      3  C27      -13.7770   -1.4300   21.7460 C.ar  1440  IK41440     0.0684
      4  C28      -14.2780   -1.2990   23.0500 C.ar  1440  IK41440     0.0101
      5  C29      -15.6530   -1.1550   23.2590 C.ar  1440  IK41440    -0.0000
      6  C26      -14.6200   -1.4380   20.6420 C.ar  1440  IK41440     0.0101
      7  C25      -15.9990   -1.3070   20.8660 C.ar  1440  IK41440    -0.0000
      8  C24      -16.5200   -1.1550   22.1650 C.ar  1440  IK41440     0.0212
      9  C23      -18.0040   -0.9880   22.4060 C.3   1440  IK41440     0.2320
     10  C19      -18.3290   -0.6290   18.9150 C.ar  1440  IK41440     0.0369
     11  C20      -19.0120   -0.4290   20.1540 C.ar  1440  IK41440     0.1391
     12  C21      -19.9810    0.5860   20.3050 C.ar  1440  IK41440     0.0370
     13  C18      -18.5780    0.2140   17.8180 C.ar  1440  IK41440     0.0031
     14  C16      -19.5460    1.2460   17.9680 C.ar  1440  IK41440     0.0003
     15  C15      -20.2500    1.4360   19.2100 C.ar  1440  IK41440     0.0043
     16  C14      -21.1900    2.4590   19.3640 C.ar  1440  IK41440     0.0201
     17  C17      -19.7970    2.0820   16.8720 C.ar  1440  IK41440     0.0014
     18  C12      -20.7420    3.1010   17.0380 C.ar  1440  IK41440     0.0200
     19  C13      -21.4440    3.2890   18.2670 C.ar  1440  IK41440     0.1236
     20  S11      -22.5340    4.4690   18.3270 S.O2  1440  IK41440     0.0773
     21  O33      -22.3690    5.3400   17.1820 O.2   1440  IK41440    -0.1516
     22  O32      -22.4130    5.3210   19.4760 O.2   1440  IK41440    -0.1516
     23  N        -24.0440    3.8210   18.3060 N.3   1440  IK41440    -0.0677
     24  CA       -24.7800    3.7800   19.5940 C.3   1440  IK41440     0.2007
     25  C        -25.4260    5.1040   20.0100 C.2   1440  IK41440     0.3822
     26  O        -25.5800    5.3820   21.2040 O.co2 1440  IK41440    -0.2440
     27  OXT      -25.8250    5.9550   19.1920 O.co2 1440  IK41440    -0.2440
     28  CB       -25.7530    2.5960   19.5580 C.3   1440  IK41440     0.0427
     29  CG       -26.9310    2.6900   20.5170 C.3   1440  IK41440     0.1161
     30  CD       -27.6770    1.3730   20.5610 C.2   1440  IK41440     0.3649
     31  OE1      -28.4880    1.2340   21.5150 O.co2 1440  IK41440    -0.2457
     32  OE2      -27.5310    0.4950   19.6520 O.co2 1440  IK41440    -0.2457
     33  O22      -18.7580   -1.2920   21.2150 O.3   1440  IK41440    -0.4706
@<TRIPOS>BOND
     1    17    18   ar
     2    17    14   ar
     3    18    19   ar
     4    21    20    2
     5    13    14   ar
     6    13    10   ar
     7    14    15   ar
     8    19    20    1
     9    19    16   ar
    10    23    20    1
    11    23    24    1
    12    20    22    2
    13    10    11   ar
    14    27    25   ar
    15    15    16   ar
    16    15    12   ar
    17    28    24    1
    18    28    29    1
    19    24    25    1
    20    32    30   ar
    21    25    26   ar
    22    11    12   ar
    23    11    33    1
    24    29    30    1
    25    30    31   ar
    26     6     7   ar
    27     6     3   ar
    28     7     8   ar
    29    33     9    1
    30     1     2    3
    31     2     3    1
    32     3     4   ar
    33     8     9    1
    34     8     5   ar
    35     4     5   ar
