@<TRIPOS>MOLECULE
2vth_LZ2_A_1.pdb
 15 16 0 0 0
SMALL
GASTEIGER

@<TRIPOS>ATOM
      1  N1        26.5070    7.6940   60.1760 N.3   1300  LZ21300     0.0392
      2  S2        26.3680    8.5030   61.5540 S.O2  1300  LZ21300     0.0935
      3  O3        27.0940    9.7370   61.4060 O.2   1300  LZ21300    -0.1503
      4  O4        24.9730    8.5450   61.8910 O.2   1300  LZ21300    -0.1503
      5  C5        27.1840    7.5760   62.8150 C.ar  1300  LZ21300     0.1251
      6  C6        28.1950    8.2060   63.5320 C.ar  1300  LZ21300     0.0200
      7  C7        28.8790    7.5250   64.5120 C.ar  1300  LZ21300     0.0015
      8  C8        28.5630    6.2070   64.7960 C.ar  1300  LZ21300     0.0033
      9  C9        27.5490    5.5410   64.0970 C.ar  1300  LZ21300     0.0402
     10  C10       27.2160    4.1990   64.3620 C.ar  1300  LZ21300     0.1957
     11  O11       27.9020    3.5380   65.3270 O.3   1300  LZ21300    -0.2866
     12  C12       26.2060    3.5710   63.6510 C.ar  1300  LZ21300     0.0420
     13  C13       25.5240    4.2550   62.6630 C.ar  1300  LZ21300     0.0033
     14  C14       25.8430    5.5690   62.3760 C.ar  1300  LZ21300     0.0015
     15  C15       26.8510    6.2390   63.0810 C.ar  1300  LZ21300     0.0218
@<TRIPOS>BOND
     1     1     2    1
     2     3     2    2
     3     2     4    2
     4     2     5    1
     5    14    13   ar
     6    14    15   ar
     7    13    12   ar
     8     5    15   ar
     9     5     6   ar
    10    15     9   ar
    11     6     7   ar
    12    12    10   ar
    13     9    10   ar
    14     9     8   ar
    15    10    11    1
    16     7     8   ar
