@<TRIPOS>MOLECULE
2vti_LZ3_A_1.pdb
 22 24 0 0 0
SMALL
GASTEIGER

@<TRIPOS>ATOM
      1  N1        29.3650    6.3440   64.8890 N.am  1299  LZ31299    -0.1744
      2  C2        28.1760    6.4260   64.3010 C.2   1299  LZ31299     0.2850
      3  C3        27.4700    5.1580   64.1070 C.2   1299  LZ31299     0.1449
      4  C4        25.5550    5.6480   62.4670 C.2   1299  LZ31299    -0.0143
      5  C5        24.5010    5.0540   61.7950 C.2   1299  LZ31299    -0.0038
      6  C6        24.2700    3.6940   61.9270 C.2   1299  LZ31299     0.0010
      7  C7        25.0950    2.9240   62.7250 C.2   1299  LZ31299     0.0172
      8  C9        26.3690    4.8860   63.3020 C.3   1299  LZ31299     0.1104
      9  O11       27.7090    7.4980   63.8860 O.2   1299  LZ31299    -0.2666
     10  N12       27.9260    4.0410   64.6890 N.2   1299  LZ31299    -0.1473
     11  N17       27.1080    3.0460   64.2680 N.2   1299  LZ31299    -0.1518
     12  C20       30.4330    8.1040   63.6190 C.ar  1299  LZ31299     0.0180
     13  C21       31.3590    9.1170   63.5230 C.ar  1299  LZ31299     0.0213
     14  C22       32.1550    9.4290   64.6110 C.ar  1299  LZ31299     0.1251
     15  C23       32.0300    8.7200   65.7930 C.ar  1299  LZ31299     0.0213
     16  C24       31.1030    7.6970   65.8850 C.ar  1299  LZ31299     0.0180
     17  S27       33.3630   10.6960   64.4650 S.O2  1299  LZ31299     0.0935
     18  O28       34.3260   10.2290   63.5230 O.2   1299  LZ31299    -0.1503
     19  O29       33.8050   11.0330   65.7970 O.2   1299  LZ31299    -0.1503
     20  N30       32.6660   12.0040   63.8450 N.3   1299  LZ31299     0.0392
     21  C8        30.3090    7.3760   64.8020 C.ar  1299  LZ31299     0.0738
     22  C16       26.1450    3.5130   63.4150 C.2   1299  LZ31299     0.0900
@<TRIPOS>BOND
     1     5     6    1
     2     5     4    2
     3     6     7    2
     4     4     8    1
     5     7    22    1
     6     8    22    1
     7     8     3    1
     8    22    11    2
     9    18    17    2
    10    13    12   ar
    11    13    14   ar
    12    12    21   ar
    13    20    17    1
    14     9     2    2
    15     3     2    1
    16     3    10    2
    17    11    10    1
    18     2     1   am
    19    17    14    1
    20    17    19    2
    21    14    15   ar
    22    21     1    1
    23    21    16   ar
    24    15    16   ar
