@<TRIPOS>MOLECULE
2vtj_LZ4_A_1.pdb
 18 19 0 0 0
SMALL
GASTEIGER

@<TRIPOS>ATOM
      1  N1        33.7280   10.7150   65.9980 N.3   1300  LZ41300     0.0392
      2  S2        33.3900   10.4230   64.4600 S.O2  1300  LZ41300     0.0935
      3  O3        33.1620   11.6880   63.8110 O.2   1300  LZ41300    -0.1503
      4  O4        34.4200    9.5500   63.9490 O.2   1300  LZ41300    -0.1503
      5  C5        31.8740    9.5190   64.4050 C.ar  1300  LZ41300     0.1251
      6  C6        30.6730   10.1960   64.2540 C.ar  1300  LZ41300     0.0213
      7  C7        29.4930    9.4860   64.2020 C.ar  1300  LZ41300     0.0180
      8  C8        29.4990    8.0950   64.3100 C.ar  1300  LZ41300     0.0732
      9  N9        28.2950    7.3750   64.2670 N.pl3 1300  LZ41300    -0.1823
     10  C10       28.0360    6.0050   64.3840 C.2   1300  LZ41300     0.2229
     11  C11       28.7650    5.1590   65.2090 C.2   1300  LZ41300     0.1431
     12  N12       28.4960    3.8550   65.3060 N.2   1300  LZ41300    -0.2562
     13  C13       27.4790    3.3990   64.5710 C.3   1300  LZ41300     0.1962
     14  C14       26.7590    4.2540   63.7640 C.2   1300  LZ41300     0.1922
     15 CL1        25.4450    3.6360   62.8150 Cl    1300  LZ41300    -0.0505
     16  N16       27.0110    5.5580   63.6410 N.2   1300  LZ41300    -0.3745
     17  C17       30.7110    7.4290   64.4730 C.ar  1300  LZ41300     0.0180
     18  C18       31.8910    8.1390   64.5220 C.ar  1300  LZ41300     0.0213
@<TRIPOS>BOND
     1    15    14    1
     2    16    14    2
     3    16    10    2
     4    14    13    1
     5     3     2    2
     6     4     2    2
     7     7     6   ar
     8     7     8   ar
     9     6     5   ar
    10     9     8    1
    11     9    10    1
    12     8    17   ar
    13    10    11    1
    14     5     2    1
    15     5    18   ar
    16     2     1    1
    17    17    18   ar
    18    13    12    1
    19    11    12    2
