@<TRIPOS>MOLECULE
2vtk_ADP_A_1.pdb
 27 29 0 0 0
SMALL
GASTEIGER

@<TRIPOS>ATOM
      1  PB        39.1010   24.8070   35.2340 P.3   400  ADP400      0.5373
      2  O1B       37.8230   24.8720   35.9930 O.3   400  ADP400     -0.1143
      3  O2B       40.2220   24.5280   36.1330 O.3   400  ADP400     -0.1143
      4  O3B       39.0170   23.7520   34.1920 O.2   400  ADP400     -0.2221
      5  PA        39.8590   27.4380   34.7130 P.3   400  ADP400      0.2231
      6  O1A       39.9800   27.7970   36.1470 O.3   400  ADP400     -0.4370
      7  O2A       41.0850   27.7470   33.9510 O.2   400  ADP400     -0.5169
      8  O3A       39.3200   26.0670   34.4760 O.3   400  ADP400     -0.2261
      9  O5'       38.7530   28.4520   34.1170 O.3   400  ADP400     -0.3111
     10  C5'       38.2260   28.3300   32.7930 C.3   400  ADP400      0.1813
     11  C4'       38.2810   29.6690   32.0290 C.3   400  ADP400      0.1821
     12  O4'       37.3320   30.6390   32.5800 O.3   400  ADP400     -0.3135
     13  C3'       39.6410   30.3290   32.1040 C.3   400  ADP400      0.2184
     14  O3'       39.8830   30.9460   30.8370 O.3   400  ADP400     -0.2174
     15  C2'       39.5230   31.3990   33.1290 C.3   400  ADP400      0.2570
     16  O2'       40.3100   32.5280   32.7560 O.3   400  ADP400     -0.2130
     17  C1'       38.0460   31.7700   33.1880 C.3   400  ADP400      0.3186
     18  N9        37.5950   32.0290   34.5740 N.pl3 400  ADP400     -0.1439
     19  C8        38.0460   31.4550   35.7550 C.3   400  ADP400      0.3377
     20  N7        37.4130   31.9060   36.8100 N.2   400  ADP400     -0.2095
     21  C5        36.4770   32.8200   36.3750 C.2   400  ADP400      0.2526
     22  C6        35.5070   33.6090   37.0240 C.2   400  ADP400      0.4393
     23  N6        35.3510   33.6120   38.3490 N.pl3 400  ADP400      0.2180
     24  N1        34.7720   34.4380   36.2620 N.2   400  ADP400      0.0021
     25  C2        34.9590   34.4430   34.9430 C.3   400  ADP400      0.5254
     26  N3        35.8270   33.7460   34.2020 N.2   400  ADP400     -0.0055
     27  C4        36.5860   32.9130   34.9630 C.2   400  ADP400      0.3518
@<TRIPOS>BOND
     1    14    13    1
     2    11    13    1
     3    11    12    1
     4    11    10    1
     5    13    15    1
     6    12    17    1
     7    16    15    1
     8    10     9    1
     9    15    17    1
    10    17    18    1
    11     7     5    2
    12     9     5    1
    13     4     1    2
    14    26    25    1
    15    26    27    2
    16     8     5    1
    17     8     1    1
    18    18    27    1
    19    18    19    1
    20     5     6    1
    21    25    24    1
    22    27    21    1
    23     1     2    1
    24     1     3    1
    25    19    20    1
    26    24    22    2
    27    21    20    2
    28    21    22    1
    29    22    23    1
