@<TRIPOS>MOLECULE
2vtk_THM_A_1.pdb
 17 18 0 0 0
SMALL
GASTEIGER

@<TRIPOS>ATOM
      1  O5'       41.3510   19.4920   32.6200 O.3   500  THM500     -0.2176
      2  C5'       41.1960   18.0880   32.4440 C.3   500  THM500      0.2141
      3  C4'       40.9550   17.8720   30.9990 C.3   500  THM500      0.1802
      4  O4'       41.0200   16.4790   30.7390 O.3   500  THM500     -0.3338
      5  C3'       39.6170   18.3130   30.5260 C.3   500  THM500      0.1858
      6  O3'       39.6860   18.5550   29.1190 O.3   500  THM500     -0.2203
      7  C2'       38.7590   17.1480   30.9080 C.3   500  THM500      0.0874
      8  C1'       39.6750   15.9870   30.5410 C.3   500  THM500      0.2090
      9  N1        39.5960   14.8350   31.4470 N.am  500  THM500     -0.1794
     10  C2        39.2430   13.6370   30.9220 C.1   500  THM500      0.2844
     11  O2        38.9410   13.5230   29.7370 O.2   500  THM500     -0.1918
     12  N3        39.2270   12.5490   31.7520 N.2   500  THM500     -0.2455
     13  C4        39.5600   12.6360   33.0880 C.1   500  THM500      0.2134
     14  O4        39.5210   11.6210   33.7880 O.2   500  THM500     -0.2088
     15  C5        39.9320   13.8820   33.6020 C.2   500  THM500      0.0891
     16  C5M       40.3010   13.9950   35.0330 C.3   500  THM500      0.0462
     17  C6        39.9480   14.9830   32.7520 C.2   500  THM500      0.0877
@<TRIPOS>BOND
     1     6     5    1
     2    11    10    2
     3     5     7    1
     4     5     3    1
     5     8     4    1
     6     8     7    1
     7     8     9    1
     8     4     3    1
     9    10     9   am
    10    10    12    2
    11     3     2    1
    12     9    17    1
    13    12    13    2
    14     2     1    1
    15    17    15    2
    16    13    15    1
    17    13    14    2
    18    15    16    1
