@<TRIPOS>MOLECULE
2vtl_LZ5_A_1.pdb
 14 15 0 0 0
SMALL
GASTEIGER

@<TRIPOS>ATOM
      1  O1        27.9710    7.4380   64.2760 O.2   1299  LZ51299    -0.2666
      2  C2        28.4240    6.4680   64.8110 C.2   1299  LZ51299     0.2847
      3  N3        29.5830    6.4870   65.4960 N.am  1299  LZ51299    -0.1744
      4  C4        30.5080    7.5370   65.5400 C.ar  1299  LZ51299     0.0737
      5  C5        30.7720    8.2960   64.3990 C.ar  1299  LZ51299     0.0166
      6  C6        31.6830    9.3330   64.4490 C.ar  1299  LZ51299     0.0013
      7  C7        32.3420    9.6160   65.6300 C.ar  1299  LZ51299     0.0001
      8  C8        32.0880    8.8690   66.7630 C.ar  1299  LZ51299     0.0013
      9  C9        31.1830    7.8310   66.7210 C.ar  1299  LZ51299     0.0166
     10  C10       27.7530    5.1670   64.7050 C.2   1299  LZ51299     0.1416
     11  C11       26.6060    4.8700   63.9800 C.3   1299  LZ51299     0.1013
     12  C12       26.3960    3.5520   64.1780 C.2   1299  LZ51299     0.1022
     13  N13       27.3880    3.1130   64.9720 N.2   1299  LZ51299    -0.1509
     14  N15       28.2460    4.1110   65.2970 N.2   1299  LZ51299    -0.1476
@<TRIPOS>BOND
     1    11    12    1
     2    11    10    1
     3    12    13    2
     4     1     2    2
     5     5     6   ar
     6     5     4   ar
     7     6     7   ar
     8    10     2    1
     9    10    14    2
    10     2     3   am
    11    13    14    1
    12     3     4    1
    13     4     9   ar
    14     7     8   ar
    15     9     8   ar
