@<TRIPOS>MOLECULE
2vtm_LZM_A_1.pdb
 11 12 0 0 0
SMALL
GASTEIGER

@<TRIPOS>ATOM
      1  N1        24.3040    4.3290   62.8490 N.1   1299  LZM1299    -0.1949
      2  C2        25.2450    4.3530   63.4930 C.1   1299  LZM1299     0.0910
      3  C3        26.4160    4.3810   64.2970 C.3   1299  LZM1299     0.2428
      4  C4        26.9870    3.3140   64.9370 C.2   1299  LZM1299     0.1439
      5  N5        28.0740    3.6690   65.6150 N.2   1299  LZM1299    -0.0845
      6  N6        28.1910    5.0030   65.4010 N.pl3 1299  LZM1299    -0.0550
      7  C7        29.1430    5.8210   65.8590 C.2   1299  LZM1299     0.2042
      8  C8        29.0980    7.1530   65.5250 C.2   1299  LZM1299     0.0772
      9  C9        28.0760    7.6100   64.7190 C.3   1299  LZM1299     0.2930
     10  C11       27.1950    5.5020   64.5920 C.2   1299  LZM1299     0.3428
     11  N10       27.1240    6.8010   64.2400 N.2   1299  LZM1299    -0.0605
@<TRIPOS>BOND
     1     1     2    3
     2     2     3    1
     3    11    10    2
     4    11     9    1
     5     3    10    1
     6     3     4    1
     7    10     6    1
     8     9     8    1
     9     4     5    2
    10     6     5    1
    11     6     7    1
    12     8     7    2
