@<TRIPOS>MOLECULE
2vtn_LZ7_A_1.pdb
 19 20 0 0 0
SMALL
GASTEIGER

@<TRIPOS>ATOM
      1  C1        24.2750    6.0400   61.0510 C.3   1299  LZ71299     0.0968
      2  C2        24.8560    4.9370   61.8700 C.2   1299  LZ71299     0.2462
      3  O3        24.3790    3.8160   61.8750 O.2   1299  LZ71299    -0.2730
      4  N4        25.9500    5.2560   62.5890 N.am  1299  LZ71299    -0.1758
      5  C5        26.6360    4.4170   63.4520 C.2   1299  LZ71299     0.1181
      6  C6        26.3900    3.1130   63.7670 C.2   1299  LZ71299     0.1404
      7  N7        27.3230    2.7500   64.6350 N.2   1299  LZ71299    -0.1448
      8  N9        28.1660    3.7680   64.9080 N.2   1299  LZ71299    -0.1418
      9  C10       27.7600    4.7770   64.1830 C.2   1299  LZ71299     0.1747
     10  C11       28.4830    6.0710   64.2200 C.2   1299  LZ71299     0.2898
     11  O12       28.0460    7.0580   63.6490 O.2   1299  LZ71299    -0.2662
     12  N13       29.6540    6.0800   64.8810 N.am  1299  LZ71299    -0.1741
     13  C14       30.5230    7.1520   65.0130 C.ar  1299  LZ71299     0.0739
     14  C15       31.1450    7.4050   66.2340 C.ar  1299  LZ71299     0.0189
     15  C16       32.0030    8.4790   66.3690 C.ar  1299  LZ71299     0.0310
     16  C17       32.2420    9.2910   65.2830 C.ar  1299  LZ71299     0.1402
     17  F18       33.0790   10.3340   65.4190 F     1299  LZ71299    -0.2042
     18  C19       31.6430    9.0590   64.0580 C.ar  1299  LZ71299     0.0310
     19  C20       30.7810    7.9880   63.9230 C.ar  1299  LZ71299     0.0189
@<TRIPOS>BOND
     1     1     2    1
     2     2     3    2
     3     2     4    1
     4     4     5    2
     5     5     6    1
     6     5     9    1
     7    11    10    2
     8     6     7    2
     9    19    18   ar
    10    19    13   ar
    11    18    16   ar
    12     9    10    1
    13     9     8    2
    14    10    12   am
    15     7     8    1
    16    12    13    1
    17    13    14   ar
    18    16    17    1
    19    16    15   ar
    20    14    15   ar
