@<TRIPOS>MOLECULE
2vto_LZ8_A_1.pdb
 24 26 0 0 0
SMALL
GASTEIGER

@<TRIPOS>ATOM
      1  F1        33.5770   10.5780   66.5070 F     1299  LZ81299    -0.2042
      2  C2        32.7220    9.5520   66.3340 C.ar  1299  LZ81299     0.1402
      3  C3        32.2580    9.2660   65.0640 C.ar  1299  LZ81299     0.0310
      4  C4        31.3900    8.2020   64.8890 C.ar  1299  LZ81299     0.0189
      5  C5        31.0030    7.4230   65.9860 C.ar  1299  LZ81299     0.0739
      6  N6        30.1130    6.3450   65.8150 N.am  1299  LZ81299    -0.1741
      7  C7        28.9890    6.4120   65.0920 C.2   1299  LZ81299     0.2898
      8  O8        28.6320    7.4480   64.5320 O.2   1299  LZ81299    -0.2662
      9  C9        28.1920    5.1680   64.9940 C.2   1299  LZ81299     0.1747
     10  N10       28.5150    4.1060   65.7230 N.2   1299  LZ81299    -0.1418
     11  N11       27.6060    3.1490   65.4010 N.2   1299  LZ81299    -0.1448
     12  C12       26.7240    3.5790   64.5040 C.2   1299  LZ81299     0.1404
     13  C13       27.0630    4.8880   64.2070 C.2   1299  LZ81299     0.1184
     14  N14       26.4680    5.7830   63.3360 N.am  1299  LZ81299    -0.1721
     15  C15       25.3430    5.5830   62.6120 C.2   1299  LZ81299     0.2691
     16  O16       24.6900    4.5400   62.6630 O.2   1299  LZ81299    -0.2680
     17  C17       24.9210    6.7240   61.7420 C.ar  1299  LZ81299     0.0554
     18  C18       23.5840    7.0940   61.6650 C.ar  1299  LZ81299     0.0046
     19  C20       23.1990    8.1590   60.8710 C.ar  1299  LZ81299     0.0001
     20  C21       24.1430    8.8610   60.1470 C.ar  1299  LZ81299     0.0000
     21  C22       25.4750    8.5040   60.2190 C.ar  1299  LZ81299     0.0001
     22  C23       25.8650    7.4410   61.0130 C.ar  1299  LZ81299     0.0046
     23  C25       31.4860    7.7390   67.2580 C.ar  1299  LZ81299     0.0189
     24  C26       32.3440    8.8070   67.4320 C.ar  1299  LZ81299     0.0310
@<TRIPOS>BOND
     1    20    21   ar
     2    20    19   ar
     3    21    22   ar
     4    19    18   ar
     5    22    17   ar
     6    18    17   ar
     7    17    15    1
     8    15    16    2
     9    15    14    1
    10    14    13    2
    11    13    12    1
    12    13     9    1
    13    12    11    2
    14     8     7    2
    15     4     3   ar
    16     4     5   ar
    17     9     7    1
    18     9    10    2
    19     3     2   ar
    20     7     6   am
    21    11    10    1
    22     6     5    1
    23     5    23   ar
    24     2     1    1
    25     2    24   ar
    26    23    24   ar
