@<TRIPOS>MOLECULE
2vtp_LZ9_A_1.pdb
 26 28 0 0 0
SMALL
GASTEIGER

@<TRIPOS>ATOM
      1  F1        33.2340   10.5830   65.7540 F     1299  LZ91299    -0.2042
      2  C2        32.4260    9.5130   65.6500 C.ar  1299  LZ91299     0.1402
      3  C3        32.0540    8.8440   66.8020 C.ar  1299  LZ91299     0.0310
      4  C4        31.2350    7.7410   66.7010 C.ar  1299  LZ91299     0.0189
      5  C5        30.7800    7.3100   65.4460 C.ar  1299  LZ91299     0.0739
      6  N6        29.9150    6.1840   65.3460 N.am  1299  LZ91299    -0.1741
      7  C7        28.6570    6.2390   64.8540 C.2   1299  LZ91299     0.2898
      8  O8        28.1460    7.2840   64.4760 O.2   1299  LZ91299    -0.2662
      9  C9        27.9360    4.9630   64.7090 C.2   1299  LZ91299     0.1747
     10  N10       28.2450    3.8760   65.3680 N.2   1299  LZ91299    -0.1418
     11  N11       27.3670    2.9370   64.9340 N.2   1299  LZ91299    -0.1448
     12  C12       26.5290    3.4120   64.0370 C.2   1299  LZ91299     0.1404
     13  C13       26.8610    4.7170   63.8500 C.2   1299  LZ91299     0.1184
     14  N14       26.3230    5.6650   62.9980 N.am  1299  LZ91299    -0.1719
     15  C15       25.3590    5.4440   62.0910 C.2   1299  LZ91299     0.2735
     16  O16       24.8160    4.3350   61.9680 O.2   1299  LZ91299    -0.2679
     17  C17       24.9340    6.6420   61.2760 C.ar  1299  LZ91299     0.1101
     18  C18       23.6620    7.2140   61.4280 C.ar  1299  LZ91299     0.1467
     19  F19       22.8030    6.6410   62.2940 F     1299  LZ91299    -0.2039
     20  C20       23.2730    8.3500   60.7090 C.ar  1299  LZ91299     0.0299
     21  C21       24.1670    8.9450   59.8200 C.ar  1299  LZ91299     0.0046
     22  C22       25.4390    8.4030   59.6460 C.ar  1299  LZ91299     0.0299
     23  C23       25.8140    7.2760   60.3750 C.ar  1299  LZ91299     0.1467
     24  F24       27.0490    6.7750   60.2190 F     1299  LZ91299    -0.2039
     25  C25       31.1590    8.0160   64.2930 C.ar  1299  LZ91299     0.0189
     26  C26       31.9900    9.1160   64.3970 C.ar  1299  LZ91299     0.0310
@<TRIPOS>BOND
     1    22    21   ar
     2    22    23   ar
     3    21    20   ar
     4    24    23    1
     5    23    17   ar
     6    20    18   ar
     7    17    18   ar
     8    17    15    1
     9    18    19    1
    10    16    15    2
    11    15    14    1
    12    14    13    2
    13    13    12    1
    14    13     9    1
    15    12    11    2
    16    25    26   ar
    17    25     5   ar
    18    26     2   ar
    19     8     7    2
    20     9     7    1
    21     9    10    2
    22     7     6   am
    23    11    10    1
    24     6     5    1
    25     5     4   ar
    26     2     1    1
    27     2     3   ar
    28     4     3   ar
