@<TRIPOS>MOLECULE
2vtq_LZA_A_1.pdb
 25 27 0 0 0
SMALL
GASTEIGER

@<TRIPOS>ATOM
      1  C26       31.8560    9.4090   67.1270 C.3   1299  LZA1299     0.0905
      2  C25       31.1010    8.0860   67.0230 C.3   1299  LZA1299     0.0405
      3  C5        30.5150    7.9240   65.6190 C.3   1299  LZA1299     0.0985
      4  N6        29.7660    6.6740   65.4970 N.am  1299  LZA1299    -0.2020
      5  C7        28.5880    6.6340   64.8530 C.2   1299  LZA1299     0.2856
      6  O8        28.0860    7.6380   64.3640 O.2   1299  LZA1299    -0.2666
      7  C9        27.9030    5.3150   64.7520 C.2   1299  LZA1299     0.1744
      8  N10       28.2710    4.2270   65.4540 N.2   1299  LZA1299    -0.1418
      9  N11       27.4230    3.2450   65.0730 N.2   1299  LZA1299    -0.1448
     10  C12       26.5320    3.6940   64.1610 C.2   1299  LZA1299     0.1404
     11  C13       26.8130    5.0110   63.9350 C.2   1299  LZA1299     0.1184
     12  N14       26.2120    5.9150   63.0750 N.am  1299  LZA1299    -0.1719
     13  C15       25.2660    5.6240   62.1680 C.2   1299  LZA1299     0.2735
     14  O16       24.7640    4.4810   62.0410 O.2   1299  LZA1299    -0.2679
     15  C17       24.8600    6.7660   61.2850 C.ar  1299  LZA1299     0.1101
     16  C18       25.7840    7.3770   60.4320 C.ar  1299  LZA1299     0.1467
     17  F19       27.0470    6.9110   60.4250 F     1299  LZA1299    -0.2039
     18  C20       25.4330    8.4480   59.6180 C.ar  1299  LZA1299     0.0299
     19  C21       24.1320    8.9190   59.6350 C.ar  1299  LZA1299     0.0046
     20  C22       23.1910    8.3250   60.4710 C.ar  1299  LZA1299     0.0299
     21  C23       23.5690    7.2630   61.2930 C.ar  1299  LZA1299     0.1467
     22  F24       22.6580    6.6780   62.0950 F     1299  LZA1299    -0.2039
     23  C4        31.6260    8.0240   64.5650 C.3   1299  LZA1299     0.0405
     24  N24       32.9580    9.4510   66.1220 N.3   1299  LZA1299    -0.2179
     25  C3        32.4380    9.3220   64.7310 C.3   1299  LZA1299     0.0905
@<TRIPOS>BOND
     1    18    19   ar
     2    18    16   ar
     3    19    20   ar
     4    17    16    1
     5    16    15   ar
     6    20    21   ar
     7    15    21   ar
     8    15    13    1
     9    21    22    1
    10    14    13    2
    11    13    12    1
    12    12    11    2
    13    11    10    1
    14    11     7    1
    15    10     9    2
    16     6     5    2
    17    23    25    1
    18    23     3    1
    19    25    24    1
    20     7     5    1
    21     7     8    2
    22     5     4   am
    23     9     8    1
    24     4     3    1
    25     3     2    1
    26    24     1    1
    27     2     1    1
