@<TRIPOS>MOLECULE
2vtr_LZB_A_1.pdb
 16 17 0 0 0
SMALL
GASTEIGER

@<TRIPOS>ATOM
      1  C1        31.5080    8.0800   66.5280 C.3   1299  LZB1299     0.0552
      2  C2        30.6410    8.1280   65.2800 C.3   1299  LZB1299     0.2051
      3  C3        31.4750    8.2890   64.0120 C.3   1299  LZB1299     0.0552
      4  N4        29.8220    6.9220   65.1870 N.pl3 1299  LZB1299    -0.0385
      5  C5        28.7000    6.8590   64.3420 C.2   1299  LZB1299     0.3427
      6  C6        28.2330    7.9800   63.6610 C.2   1299  LZB1299     0.1334
      7  C7        27.1300    7.8160   62.8280 C.2   1299  LZB1299     0.1997
      8 CL8        26.4960    9.1700   61.9610 Cl    1299  LZB1299    -0.0476
      9  N9        26.4940    6.6610   62.6220 N.2   1299  LZB1299    -0.3542
     10  C10       26.9350    5.5870   63.2940 C.2   1299  LZB1299     0.2963
     11  C11       26.4980    4.2820   63.3230 C.3   1299  LZB1299     0.2294
     12  C12       25.3960    3.7750   62.5820 C.1   1299  LZB1299     0.0896
     13  N13       24.5150    3.3680   61.9800 N.1   1299  LZB1299    -0.1949
     14  C14       27.3630    3.5990   64.1650 C.2   1299  LZB1299     0.1427
     15  N15       28.3160    4.4390   64.6770 N.2   1299  LZB1299    -0.0826
     16  N16       28.0150    5.6630   64.1490 N.pl3 1299  LZB1299    -0.0313
@<TRIPOS>BOND
     1     8     7    1
     2    13    12    3
     3    12    11    1
     4     9     7    2
     5     9    10    2
     6     7     6    1
     7    10    11    1
     8    10    16    1
     9    11    14    1
    10     6     5    2
    11     3     2    1
    12    16     5    1
    13    16    15    1
    14    14    15    2
    15     5     4    1
    16     4     2    1
    17     2     1    1
