@<TRIPOS>MOLECULE
2vts_LZC_A_1.pdb
 23 25 0 0 0
SMALL
GASTEIGER

@<TRIPOS>ATOM
      1  C1        31.7240    8.0410   67.5110 C.3   1299  LZC1299     0.0552
      2  C2        31.0100    8.0970   66.1600 C.3   1299  LZC1299     0.2051
      3  C3        31.9890    8.0380   64.9870 C.3   1299  LZC1299     0.0552
      4  N4        30.0560    7.0050   66.0510 N.pl3 1299  LZC1299    -0.0385
      5  C5        28.9560    7.0590   65.2070 C.2   1299  LZC1299     0.3432
      6  C6        28.5190    8.2040   64.5560 C.2   1299  LZC1299     0.1386
      7  C7        27.4090    8.1090   63.7260 C.2   1299  LZC1299     0.2101
      8  N8        26.9100    9.1870   63.0360 N.pl3 1299  LZC1299    -0.2112
      9  C9        25.9330    9.0630   61.9680 C.3   1299  LZC1299     0.0951
     10  C10       25.4090   10.4490   61.5900 C.3   1299  LZC1299     0.0231
     11  C11       24.4520   10.3920   60.4190 C.3   1299  LZC1299     0.0208
     12  C12       25.1660    9.8090   59.2200 C.3   1299  LZC1299     0.0919
     13  N13       24.2510    9.8180   58.0280 N.3   1299  LZC1299    -0.1329
     14  C14       25.6620    8.3890   59.5120 C.3   1299  LZC1299     0.0208
     15  C15       26.5550    8.3460   60.7540 C.3   1299  LZC1299     0.0231
     16  N16       26.7240    6.9590   63.5520 N.2   1299  LZC1299    -0.3491
     17  C17       27.1590    5.8640   64.1770 C.2   1299  LZC1299     0.2967
     18  C18       26.7310    4.5640   64.1720 C.3   1299  LZC1299     0.2294
     19  C19       25.6120    4.0780   63.4540 C.1   1299  LZC1299     0.0896
     20  N20       24.7040    3.6870   62.8630 N.1   1299  LZC1299    -0.1949
     21  C21       27.5810    3.8630   65.0320 C.2   1299  LZC1299     0.1427
     22  N22       28.5050    4.6760   65.5630 N.2   1299  LZC1299    -0.0826
     23  N23       28.2410    5.9040   65.0120 N.pl3 1299  LZC1299    -0.0313
@<TRIPOS>BOND
     1    13    12    1
     2    12    14    1
     3    12    11    1
     4    14    15    1
     5    11    10    1
     6    15     9    1
     7    10     9    1
     8     9     8    1
     9    20    19    3
    10     8     7    1
    11    19    18    1
    12    16     7    2
    13    16    17    2
    14     7     6    1
    15    18    17    1
    16    18    21    1
    17    17    23    1
    18     6     5    2
    19     3     2    1
    20    23     5    1
    21    23    22    1
    22    21    22    2
    23     5     4    1
    24     4     2    1
    25     2     1    1
