@<TRIPOS>MOLECULE
2vtt_LZD_A_1.pdb
 25 27 0 0 0
SMALL
GASTEIGER

@<TRIPOS>ATOM
      1  C2        33.0000    9.6610   65.0650 C.3   1299  LZD1299     0.0888
      2  C3        32.3270    9.3720   66.4030 C.3   1299  LZD1299     0.0206
      3  C4        31.5880    8.0390   66.3690 C.3   1299  LZD1299     0.0246
      4  C5        30.5880    8.0140   65.2130 C.3   1299  LZD1299     0.1130
      5  N6        29.8800    6.7330   65.1390 N.am  1299  LZD1299    -0.2006
      6  C7        28.6430    6.6570   64.5980 C.2   1299  LZD1299     0.2856
      7  O8        28.0660    7.6350   64.1300 O.2   1299  LZD1299    -0.2666
      8  C9        28.0110    5.3230   64.5600 C.2   1299  LZD1299     0.1744
      9  N10       28.4670    4.2590   65.2770 N.2   1299  LZD1299    -0.1418
     10  N11       27.6340    3.2320   64.9620 N.2   1299  LZD1299    -0.1448
     11  C12       26.6710    3.6180   64.0940 C.2   1299  LZD1299     0.1404
     12  C13       26.8990    4.9620   63.8100 C.2   1299  LZD1299     0.1184
     13  N14       26.2300    5.8350   62.9630 N.am  1299  LZD1299    -0.1719
     14  C15       25.2840    5.4990   62.0660 C.2   1299  LZD1299     0.2735
     15  O16       24.8090    4.3630   61.9810 O.2   1299  LZD1299    -0.2679
     16  C17       24.8310    6.5970   61.1580 C.ar  1299  LZD1299     0.1101
     17  C18       25.7210    7.2340   60.2860 C.ar  1299  LZD1299     0.1467
     18  F19       27.0130    6.8460   60.2850 F     1299  LZD1299    -0.2039
     19  C20       25.2990    8.2580   59.4360 C.ar  1299  LZD1299     0.0299
     20  C21       23.9690    8.6470   59.4430 C.ar  1299  LZD1299     0.0046
     21  C22       23.0710    8.0220   60.2980 C.ar  1299  LZD1299     0.0299
     22  C23       23.5140    7.0030   61.1410 C.ar  1299  LZD1299     0.1467
     23  F24       22.6500    6.3980   61.9770 F     1299  LZD1299    -0.2039
     24  C25       31.2950    8.3350   63.8840 C.3   1299  LZD1299     0.1103
     25  N26       31.9970    9.6480   63.9620 N.3   1299  LZD1299    -0.2162
@<TRIPOS>BOND
     1    19    20   ar
     2    19    17   ar
     3    20    21   ar
     4    18    17    1
     5    17    16   ar
     6    21    22   ar
     7    22    16   ar
     8    22    23    1
     9    16    14    1
    10    15    14    2
    11    14    13    1
    12    13    12    2
    13    12    11    1
    14    12     8    1
    15    24    25    1
    16    24     4    1
    17    25     1    1
    18    11    10    2
    19     7     6    2
    20     8     6    1
    21     8     9    2
    22     6     5   am
    23    10     9    1
    24     1     2    1
    25     5     4    1
    26     4     3    1
    27     3     2    1
