@<TRIPOS>MOLECULE
2vtz_COA_A_1.pdb
 48 50 0 0 0
SMALL
GASTEIGER

@<TRIPOS>ATOM
      1  N1A       35.9530  -28.2290   20.7090 N.2   1393  COA1393     0.0021
      2  C2A       36.0110  -28.4870   22.0660 C.3   1393  COA1393     0.5254
      3  N3A       35.4440  -27.5980   22.9510 N.2   1393  COA1393    -0.0055
      4  C4A       34.8350  -26.4780   22.4910 C.2   1393  COA1393     0.3518
      5  C5A       34.7700  -26.2020   21.1360 C.2   1393  COA1393     0.2526
      6  C6A       35.3360  -27.0890   20.2320 C.2   1393  COA1393     0.4393
      7  N6A       35.1920  -26.8910   18.9220 N.pl3 1393  COA1393     0.2180
      8  N7A       34.1200  -25.0330   20.9850 N.2   1393  COA1393    -0.2095
      9  C8A       33.7590  -24.5660   22.1990 C.3   1393  COA1393     0.3377
     10  N9A       34.2060  -25.4530   23.1340 N.pl3 1393  COA1393    -0.1439
     11  C1B       34.0260  -25.3740   24.5830 C.3   1393  COA1393     0.3185
     12  C2B       34.5190  -24.0440   25.1250 C.3   1393  COA1393     0.2543
     13  O2B       35.8700  -24.1080   25.5230 O.3   1393  COA1393    -0.2131
     14  C3B       33.5680  -23.8220   26.2770 C.3   1393  COA1393     0.1928
     15  O3B       34.0580  -24.4490   27.4380 O.3   1393  COA1393    -0.2673
     16  P3B       34.9840  -23.6200   28.4560 P.3   1393  COA1393     0.5327
     17  O7A       35.3250  -24.5030   29.6390 O.3   1393  COA1393    -0.1145
     18  O8A       34.2540  -22.3680   28.8980 O.3   1393  COA1393    -0.1145
     19  O9A       36.2420  -23.2180   27.7150 O.2   1393  COA1393    -0.2224
     20  C4B       32.2740  -24.5010   25.8470 C.3   1393  COA1393     0.1795
     21  O4B       32.6570  -25.4960   24.9150 O.3   1393  COA1393    -0.3136
     22  C5B       31.2630  -23.5740   25.1720 C.3   1393  COA1393     0.1812
     23  O5B       31.1400  -22.3160   25.8080 O.3   1393  COA1393    -0.3112
     24  P1A       31.7750  -20.9780   25.1650 P.3   1393  COA1393     0.2189
     25  O1A       32.2080  -20.0740   26.2980 O.3   1393  COA1393    -0.4371
     26  O2A       32.9480  -21.3210   24.2770 O.2   1393  COA1393    -0.5170
     27  O3A       30.6000  -20.2860   24.2940 O.3   1393  COA1393    -0.2703
     28  P2A       29.2540  -19.6980   24.9810 P.3   1393  COA1393     0.2188
     29  O4A       28.6130  -20.7200   25.9020 O.3   1393  COA1393    -0.4371
     30  O5A       29.5620  -18.4290   25.7480 O.2   1393  COA1393    -0.5170
     31  O6A       28.2860  -19.4400   23.7140 O.3   1393  COA1393    -0.3138
     32  CBP       26.9000  -20.1030   21.8150 C.3   1393  COA1393     0.0645
     33  CCP       27.9670  -20.5080   22.8440 C.3   1393  COA1393     0.1519
     34  CDP       25.6250  -19.7390   22.5900 C.3   1393  COA1393     0.0056
     35  CEP       26.6470  -21.3180   20.9180 C.3   1393  COA1393     0.0056
     36  CAP       27.3780  -18.9130   20.9580 C.3   1393  COA1393     0.2312
     37  OAP       28.6720  -19.1650   20.4530 O.3   1393  COA1393    -0.2131
     38  C9P       26.4170  -18.5550   19.8430 C.2   1393  COA1393     0.2719
     39  O9P       25.1660  -18.0080   20.1950 O.2   1393  COA1393    -0.2706
     40  N8P       26.7850  -18.7210   18.5590 N.am  1393  COA1393    -0.2028
     41  C7P       25.8200  -18.7280   17.4530 C.3   1393  COA1393     0.1248
     42  C6P       25.7580  -17.3790   16.7000 C.3   1393  COA1393     0.1102
     43  C5P       24.5690  -17.2150   15.7520 C.2   1393  COA1393     0.2432
     44  O5P       23.4590  -17.6540   16.0840 O.2   1393  COA1393    -0.2733
     45  N4P       24.7740  -16.5790   14.5840 N.am  1393  COA1393    -0.2044
     46  C3P       23.7240  -15.9760   13.7310 C.3   1393  COA1393     0.1276
     47  C2P       23.2300  -16.8440   12.5500 C.3   1393  COA1393     0.0920
     48  S1P       23.4780  -16.2160   10.8340 S.3   1393  COA1393    -0.0802
@<TRIPOS>BOND
     1    48    47    1
     2    47    46    1
     3    46    45    1
     4    45    43   am
     5    43    44    2
     6    43    42    1
     7    42    41    1
     8    41    40    1
     9    40    38   am
    10     7     6    1
    11    38    39    2
    12    38    36    1
    13     6     1    2
    14     6     5    1
    15    37    36    1
    16     1     2    1
    17    35    32    1
    18    36    32    1
    19     8     5    2
    20     8     9    1
    21     5     4    1
    22    32    34    1
    23    32    33    1
    24     2     3    1
    25     9    10    1
    26     4     3    2
    27     4    10    1
    28    33    31    1
    29    10    11    1
    30    31    28    1
    31    26    24    2
    32    27    28    1
    33    27    24    1
    34    11    21    1
    35    11    12    1
    36    21    20    1
    37    28    30    2
    38    28    29    1
    39    12    13    1
    40    12    14    1
    41    24    23    1
    42    24    25    1
    43    22    23    1
    44    22    20    1
    45    20    14    1
    46    14    15    1
    47    15    16    1
    48    19    16    2
    49    16    18    1
    50    16    17    1
