@<TRIPOS>MOLECULE
2vu0_COA_A_1.pdb
 48 50 0 0 0
SMALL
GASTEIGER

@<TRIPOS>ATOM
      1  N1A       36.0360  -28.2300   20.4390 N.2   1393  COA1393     0.0021
      2  C2A       35.9520  -28.5180   21.7960 C.3   1393  COA1393     0.5254
      3  N3A       35.4230  -27.6000   22.6740 N.2   1393  COA1393    -0.0055
      4  C4A       34.9640  -26.4170   22.2080 C.2   1393  COA1393     0.3518
      5  C5A       35.0150  -26.0930   20.8640 C.2   1393  COA1393     0.2526
      6  C6A       35.5620  -27.0150   19.9640 C.2   1393  COA1393     0.4393
      7  N6A       35.7240  -26.6970   18.6830 N.pl3 1393  COA1393     0.2180
      8  N7A       34.4860  -24.8550   20.7300 N.2   1393  COA1393    -0.2095
      9  C8A       34.1020  -24.4060   21.9500 C.3   1393  COA1393     0.3377
     10  N9A       34.4100  -25.3700   22.8640 N.pl3 1393  COA1393    -0.1439
     11  C1B       34.2570  -25.3560   24.3260 C.3   1393  COA1393     0.3185
     12  C2B       34.8110  -24.1040   25.0010 C.3   1393  COA1393     0.2543
     13  O2B       36.1220  -24.2700   25.5070 O.3   1393  COA1393    -0.2131
     14  C3B       33.8200  -23.9450   26.1270 C.3   1393  COA1393     0.1928
     15  O3B       34.2280  -24.7400   27.2220 O.3   1393  COA1393    -0.2673
     16  P3B       34.6810  -24.0650   28.6170 P.3   1393  COA1393     0.5327
     17  O7A       35.0830  -25.1350   29.6170 O.3   1393  COA1393    -0.1145
     18  O8A       33.5240  -23.2360   29.1530 O.3   1393  COA1393    -0.1145
     19  O9A       35.8600  -23.1600   28.3100 O.2   1393  COA1393    -0.2224
     20  C4B       32.5130  -24.4950   25.5780 C.3   1393  COA1393     0.1795
     21  O4B       32.8740  -25.4580   24.6260 O.3   1393  COA1393    -0.3136
     22  C5B       31.6720  -23.4660   24.8470 C.3   1393  COA1393     0.1812
     23  O5B       31.3040  -22.4180   25.7120 O.3   1393  COA1393    -0.3112
     24  P1A       31.6770  -20.8890   25.3590 P.3   1393  COA1393     0.2189
     25  O1A       31.8940  -20.1800   26.6820 O.3   1393  COA1393    -0.4371
     26  O2A       32.9320  -20.8060   24.5200 O.2   1393  COA1393    -0.5170
     27  O3A       30.4120  -20.3010   24.5240 O.3   1393  COA1393    -0.2703
     28  P2A       28.9980  -19.9320   25.2430 P.3   1393  COA1393     0.2188
     29  O4A       28.6730  -21.0010   26.2610 O.3   1393  COA1393    -0.4371
     30  O5A       29.1190  -18.5780   25.9070 O.2   1393  COA1393    -0.5170
     31  O6A       27.8350  -19.9180   24.1090 O.3   1393  COA1393    -0.3138
     32  CBP       26.7480  -20.4000   21.9850 C.3   1393  COA1393     0.0645
     33  CCP       27.6460  -20.9270   23.1170 C.3   1393  COA1393     0.1519
     34  CDP       25.3450  -20.1450   22.5540 C.3   1393  COA1393     0.0056
     35  CEP       26.6730  -21.4190   20.8430 C.3   1393  COA1393     0.0056
     36  CAP       27.3180  -19.0790   21.4460 C.3   1393  COA1393     0.2312
     37  OAP       28.6770  -19.2240   21.0570 O.3   1393  COA1393    -0.2131
     38  C9P       26.5150  -18.5670   20.2980 C.2   1393  COA1393     0.2719
     39  O9P       25.3180  -17.8450   20.5570 O.2   1393  COA1393    -0.2706
     40  N8P       27.0110  -18.8150   19.0740 N.am  1393  COA1393    -0.2028
     41  C7P       26.1660  -18.9370   17.9090 C.3   1393  COA1393     0.1248
     42  C6P       26.3010  -17.6770   17.0840 C.3   1393  COA1393     0.1102
     43  C5P       25.1420  -17.3710   16.1530 C.2   1393  COA1393     0.2432
     44  O5P       23.9810  -17.8450   16.3360 O.2   1393  COA1393    -0.2733
     45  N4P       25.4710  -16.5120   15.1680 N.am  1393  COA1393    -0.2044
     46  C3P       24.4950  -16.0540   14.2070 C.3   1393  COA1393     0.1276
     47  C2P       24.1440  -17.2120   13.3010 C.3   1393  COA1393     0.0920
     48  S1P       22.5350  -16.9490   12.5510 S.3   1393  COA1393    -0.0802
@<TRIPOS>BOND
     1    48    47    1
     2    47    46    1
     3    46    45    1
     4    45    43   am
     5    43    44    2
     6    43    42    1
     7    42    41    1
     8    41    40    1
     9     7     6    1
    10    40    38   am
    11     6     1    2
    12     6     5    1
    13    38    39    2
    14    38    36    1
    15     1     2    1
    16     8     5    2
    17     8     9    1
    18    35    32    1
    19     5     4    1
    20    37    36    1
    21    36    32    1
    22     2     3    1
    23     9    10    1
    24    32    34    1
    25    32    33    1
    26     4     3    2
    27     4    10    1
    28    10    11    1
    29    33    31    1
    30    31    28    1
    31    11    21    1
    32    11    12    1
    33    26    24    2
    34    27    28    1
    35    27    24    1
    36    21    20    1
    37    22    20    1
    38    22    23    1
    39    12    13    1
    40    12    14    1
    41    28    30    2
    42    28    29    1
    43    24    23    1
    44    24    25    1
    45    20    14    1
    46    14    15    1
    47    15    16    1
    48    19    16    2
    49    16    18    1
    50    16    17    1
