@<TRIPOS>MOLECULE
2vu1_OPI_A_1.pdb
 24 23 0 0 0
SMALL
GASTEIGER

@<TRIPOS>ATOM
      1  OP1       26.2010  -18.1160   12.8700 O.3   1393  OPI1393    -0.2184
      2  CP2       26.1350  -18.7450   14.1360 C.3   1393  OPI1393     0.2054
      3  CP3       26.0410  -17.7270   15.2570 C.3   1393  OPI1393     0.1506
      4  NP4       26.2730  -18.4540   16.4880 N.am  1393  OPI1393    -0.2026
      5  CP5       25.3590  -18.5330   17.4350 C.2   1393  OPI1393     0.2433
      6  OP5       24.2360  -18.0400   17.3470 O.2   1393  OPI1393    -0.2733
      7  CP6       25.7620  -19.3410   18.6270 C.3   1393  OPI1393     0.1102
      8  CP7       26.2260  -18.4890   19.8080 C.3   1393  OPI1393     0.1248
      9  NP8       26.3670  -19.4190   20.9170 N.am  1393  OPI1393    -0.2028
     10  CP9       27.4600  -19.5860   21.6660 C.2   1393  OPI1393     0.2720
     11  OP9       28.4890  -18.9390   21.5220 O.2   1393  OPI1393    -0.2706
     12  CPA       27.3480  -20.6440   22.7390 C.3   1393  OPI1393     0.2323
     13  OPA       26.5290  -21.7180   22.2420 O.3   1393  OPI1393    -0.2131
     14  CPB       26.7750  -20.1410   24.0800 C.3   1393  OPI1393     0.0772
     15  CPD       25.9240  -21.2610   24.6670 C.3   1393  OPI1393     0.0068
     16  CPE       27.9510  -19.8620   25.0080 C.3   1393  OPI1393     0.0068
     17  CPC       25.9750  -18.8370   23.9500 C.3   1393  OPI1393     0.2112
     18  OA6       24.6980  -18.8200   24.6190 O.3   1393  OPI1393    -0.4484
     19  CT1       23.6250  -19.0060   23.6920 C.2   1393  OPI1393     0.3159
     20  OT1       23.1090  -20.1160   23.6730 O.2   1393  OPI1393    -0.2501
     21  CT2       23.1060  -17.9080   22.7400 C.3   1393  OPI1393     0.0896
     22  CT3       22.8420  -18.5560   21.3880 C.3   1393  OPI1393     0.0111
     23  CT4       21.8050  -17.3430   23.3030 C.3   1393  OPI1393     0.0111
     24  CT5       24.0740  -16.7410   22.5670 C.3   1393  OPI1393     0.0111
@<TRIPOS>BOND
     1     1     2    1
     2     2     3    1
     3     3     4    1
     4     4     5   am
     5     6     5    2
     6     5     7    1
     7     7     8    1
     8     8     9    1
     9     9    10   am
    10    22    21    1
    11    11    10    2
    12    10    12    1
    13    13    12    1
    14    24    21    1
    15    12    14    1
    16    21    23    1
    17    21    19    1
    18    20    19    2
    19    19    18    1
    20    17    14    1
    21    17    18    1
    22    14    15    1
    23    14    16    1
