@<TRIPOS>MOLECULE
2vu2_PN5_A_1.pdb
 24 23 0 0 0
SMALL
GASTEIGER

@<TRIPOS>ATOM
      1  CP2       24.3820  -16.5470   12.8020 C.3   1393  PN51393     0.0920
      2  CP3       24.5130  -15.9690   14.2080 C.3   1393  PN51393     0.1276
      3  NP4       25.4050  -16.8670   14.9390 N.am  1393  PN51393    -0.2044
      4  CP5       25.0720  -17.6740   15.9370 C.2   1393  PN51393     0.2432
      5  OP5       23.9290  -17.7550   16.3690 O.2   1393  PN51393    -0.2733
      6  CP6       26.1990  -18.5110   16.5070 C.3   1393  PN51393     0.1102
      7  CP7       26.7600  -17.8840   17.7750 C.3   1393  PN51393     0.1248
      8  NP8       26.2780  -18.6620   18.9060 N.am  1393  PN51393    -0.2028
      9  CP9       26.9450  -19.0080   20.0070 C.2   1393  PN51393     0.2720
     10  OP9       28.1190  -18.7200   20.2020 O.2   1393  PN51393    -0.2706
     11  CPA       26.1430  -19.8150   20.9960 C.3   1393  PN51393     0.2323
     12  OPA       24.8080  -19.2930   21.0210 O.3   1393  PN51393    -0.2131
     13  CPB       26.6890  -19.7840   22.4250 C.3   1393  PN51393     0.0772
     14  CPE       25.7040  -20.4690   23.3690 C.3   1393  PN51393     0.0068
     15  CPD       26.8760  -18.3380   22.8590 C.3   1393  PN51393     0.0068
     16  CPC       28.0080  -20.5620   22.4950 C.3   1393  PN51393     0.2112
     17  OA6       29.1010  -19.6920   22.7940 O.3   1393  PN51393    -0.4484
     18  CT1       29.4640  -19.3860   24.1710 C.2   1393  PN51393     0.3159
     19  OT1       28.6880  -19.6800   25.0740 O.2   1393  PN51393    -0.2501
     20  CT2       30.7720  -18.7020   24.4620 C.3   1393  PN51393     0.0896
     21  CT5       30.5640  -17.7140   25.6060 C.3   1393  PN51393     0.0111
     22  CT3       31.2140  -17.9620   23.2030 C.3   1393  PN51393     0.0111
     23  CT4       31.7890  -19.7670   24.8620 C.3   1393  PN51393     0.0111
     24  SP1       22.8400  -17.4790   12.6370 S.3   1393  PN51393    -0.0802
@<TRIPOS>BOND
     1    24     1    1
     2     1     2    1
     3     2     3    1
     4     3     4   am
     5     4     5    2
     6     4     6    1
     7     6     7    1
     8     7     8    1
     9     8     9   am
    10     9    10    2
    11     9    11    1
    12    11    12    1
    13    11    13    1
    14    13    16    1
    15    13    15    1
    16    13    14    1
    17    16    17    1
    18    17    18    1
    19    22    20    1
    20    18    20    1
    21    18    19    2
    22    20    23    1
    23    20    21    1
