@<TRIPOS>MOLECULE
2vu3_LZE_A_1.pdb
 25 27 0 0 0
SMALL
GASTEIGER

@<TRIPOS>ATOM
      1  C26       32.2190    9.3900   64.4900 C.3   1299  LZE1299     0.0905
      2  C25       31.4440    8.0720   64.4030 C.3   1299  LZE1299     0.0405
      3  C5        30.4040    7.9980   65.5230 C.3   1299  LZE1299     0.0985
      4  N6        29.6370    6.7570   65.4530 N.am  1299  LZE1299    -0.2020
      5  C7        28.4620    6.6600   64.7770 C.2   1299  LZE1299     0.2856
      6  O8        27.8910    7.6330   64.2550 O.2   1299  LZE1299    -0.2666
      7  C9        27.8750    5.3180   64.6820 C.2   1299  LZE1299     0.1744
      8  N10       28.3050    4.2370   65.4030 N.2   1299  LZE1299    -0.1418
      9  N11       27.5140    3.2110   64.9970 N.2   1299  LZE1299    -0.1448
     10  C12       26.6020    3.6280   64.0730 C.2   1299  LZE1299     0.1404
     11  C13       26.8230    4.9710   63.8550 C.2   1299  LZE1299     0.1184
     12  N14       26.1960    5.8710   62.9950 N.am  1299  LZE1299    -0.1720
     13  C15       25.3440    5.5340   62.0070 C.2   1299  LZE1299     0.2707
     14  O16       24.9480    4.3810   61.8360 O.2   1299  LZE1299    -0.2679
     15  C17       24.8480    6.6660   61.1660 C.ar  1299  LZE1299     0.0765
     16  C18       23.5390    7.0760   61.2500 C.ar  1299  LZE1299     0.0629
     17  C20       23.0680    8.1540   60.4980 C.ar  1299  LZE1299     0.0116
     18  C21       23.9300    8.8270   59.6510 C.ar  1299  LZE1299     0.0017
     19  C22       25.2560    8.4410   59.5750 C.ar  1299  LZE1299     0.0116
     20  C23       25.7030    7.3650   60.3310 C.ar  1299  LZE1299     0.0629
     21  C4        31.0860    8.1570   66.8880 C.3   1299  LZE1299     0.0405
     22  N24       32.8520    9.5430   65.8300 N.3   1299  LZE1299    -0.2179
     23  C3        31.8590    9.4730   66.9420 C.3   1299  LZE1299     0.0905
     24 CL1        27.3470    6.8660   60.1910 Cl    1299  LZE1299    -0.0821
     25 CL7        22.4610    6.2370   62.2990 Cl    1299  LZE1299    -0.0821
@<TRIPOS>BOND
     1    19    18   ar
     2    19    20   ar
     3    18    17   ar
     4    24    20    1
     5    20    15   ar
     6    17    16   ar
     7    15    16   ar
     8    15    13    1
     9    16    25    1
    10    14    13    2
    11    13    12    1
    12    12    11    2
    13    11    10    1
    14    11     7    1
    15    10     9    2
    16     6     5    2
    17     2     1    1
    18     2     3    1
    19     1    22    1
    20     7     5    1
    21     7     8    2
    22     5     4   am
    23     9     8    1
    24     4     3    1
    25     3    21    1
    26    22    23    1
    27    21    23    1
