@<TRIPOS>MOLECULE
2vu7_SRT_A_1.pdb
 10 9 0 0 0
SMALL
GASTEIGER

@<TRIPOS>ATOM
      1  O1        -4.0500    9.4750   35.3090 O.co2 1209  SRT1209    -0.2427
      2  O11       -6.0980   10.0500   34.8510 O.co2 1209  SRT1209    -0.2427
      3  C1        -4.8880    9.9660   34.5240 C.2   1209  SRT1209     0.3979
      4  C2        -4.3930   10.4740   33.1920 C.3   1209  SRT1209     0.2950
      5  O2        -5.5360   10.7090   32.3780 O.3   1209  SRT1209    -0.2075
      6  C3        -3.6270   11.8130   33.3760 C.3   1209  SRT1209     0.2950
      7  O3        -4.4590   12.7090   34.1270 O.3   1209  SRT1209    -0.2075
      8  C4        -2.2910   11.6180   34.0550 C.2   1209  SRT1209     0.3979
      9  O4        -1.4440   10.8730   33.4780 O.co2 1209  SRT1209    -0.2427
     10  O41       -2.0690   12.2050   35.1550 O.co2 1209  SRT1209    -0.2427
@<TRIPOS>BOND
     1     5     4    1
     2     4     6    1
     3     4     3    1
     4     6     8    1
     5     6     7    1
     6     9     8   ar
     7     8    10   ar
     8     3     2   ar
     9     3     1   ar
