@<TRIPOS>MOLECULE
2vu9_GAL_A_1.pdb
 11 11 0 0 0
SMALL
GASTEIGER

@<TRIPOS>ATOM
      1  C1         1.9780    1.7800   13.8030 C.3   2301  GAL2301     0.1777
      2  C2         1.8290    3.1110   14.5180 C.3   2301  GAL2301     0.2141
      3  C3         2.9020    4.1050   14.1000 C.3   2301  GAL2301     0.2173
      4  C4         4.2560    3.3850   14.1640 C.3   2301  GAL2301     0.2142
      5  C5         4.2020    1.9800   13.5000 C.3   2301  GAL2301     0.1810
      6  C6         5.5150    1.2350   13.6640 C.3   2301  GAL2301     0.2141
      7  O2         0.5490    3.6980   14.2560 O.3   2301  GAL2301    -0.2176
      8  O3         2.9120    5.2440   14.9970 O.3   2301  GAL2301    -0.2175
      9  O4         4.6210    3.2390   15.5270 O.3   2301  GAL2301    -0.2176
     10  O5         3.2500    1.2080   14.1890 O.3   2301  GAL2301    -0.3481
     11  O6         5.4210   -0.0740   13.0910 O.3   2301  GAL2301    -0.2176
@<TRIPOS>BOND
     1    11     6    1
     2     5     6    1
     3     5     4    1
     4     5    10    1
     5     1    10    1
     6     1     2    1
     7     3     4    1
     8     3     2    1
     9     3     8    1
    10     4     9    1
    11     7     2    1
