@<TRIPOS>MOLECULE
2vu9_SIA_A_1.pdb
 20 20 0 0 0
SMALL
GASTEIGER

@<TRIPOS>ATOM
      1  C1        -2.6160   -1.5400    9.3860 C.2   2302  SIA2302     0.3914
      2  C2        -3.4940   -0.4310   10.0000 C.3   2302  SIA2302     0.2203
      3  C3        -2.8480    0.9420    9.7890 C.3   2302  SIA2302     0.0760
      4  C4        -2.7830    1.2620    8.3040 C.3   2302  SIA2302     0.1773
      5  C5        -4.1840    1.1620    7.6790 C.3   2302  SIA2302     0.1552
      6  C6        -4.8440   -0.1980    7.9910 C.3   2302  SIA2302     0.1710
      7  C7        -6.3250   -0.2070    7.5220 C.3   2302  SIA2302     0.2134
      8  C8        -6.8890   -1.6380    7.5770 C.3   2302  SIA2302     0.2173
      9  C9        -7.6300   -1.9000    8.9060 C.3   2302  SIA2302     0.2175
     10  C10       -4.6860    2.4060    5.6380 C.2   2302  SIA2302     0.2420
     11  C11       -4.5370    2.4430    4.1100 C.3   2302  SIA2302     0.0964
     12  N5        -4.1250    1.3480    6.2260 N.am  2302  SIA2302    -0.2020
     13  O1A       -3.2250   -2.5030    8.8610 O.co2 2302  SIA2302    -0.2430
     14  O1B       -1.3570   -1.4250    9.4710 O.co2 2302  SIA2302    -0.2430
     15  O4        -2.2630    2.5960    8.1560 O.3   2302  SIA2302    -0.2211
     16  O6        -4.8270   -0.4280    9.4120 O.3   2302  SIA2302    -0.3429
     17  O7        -7.0820    0.6870    8.3450 O.3   2302  SIA2302    -0.2176
     18  O8        -7.7400   -1.8730    6.4180 O.3   2302  SIA2302    -0.2175
     19  O9        -7.7010   -3.3070    9.1940 O.3   2302  SIA2302    -0.2175
     20  O10       -5.2660    3.2980    6.2580 O.2   2302  SIA2302    -0.2733
@<TRIPOS>BOND
     1    11    10    1
     2    10    12   am
     3    10    20    2
     4    12     5    1
     5    18     8    1
     6     7     8    1
     7     7     6    1
     8     7    17    1
     9     8     9    1
    10     5     6    1
    11     5     4    1
    12     6    16    1
    13    15     4    1
    14     4     3    1
    15    13     1   ar
    16     9    19    1
    17     1    14   ar
    18     1     2    1
    19    16     2    1
    20     3     2    1
