@<TRIPOS>MOLECULE
2vuc_YX0_B_1.pdb
 20 21 0 0 0
SMALL
GASTEIGER

@<TRIPOS>ATOM
      1  C1        38.6600    4.5730   -3.4290 C.3   901  YX0901      0.2698
      2  C2        37.3390    4.3260   -2.7300 C.3   901  YX0901      0.2406
      3  C3        36.5340    3.3230   -3.5270 C.3   901  YX0901      0.2197
      4  C4        37.3020    2.0430   -3.7670 C.3   901  YX0901      0.2118
      5  C5        38.6620    2.3780   -4.4020 C.3   901  YX0901      0.1508
      6  C6        39.5370    1.1310   -4.5390 C.3   901  YX0901      0.0350
      7  O1        38.3890    5.1810   -4.6970 O.3   901  YX0901     -0.3202
      8  O2        36.5500    5.5290   -2.5760 O.3   901  YX0901     -0.2149
      9  O3        35.3380    3.0300   -2.7710 O.3   901  YX0901     -0.2174
     10  O4        37.4830    1.4560   -2.4520 O.3   901  YX0901     -0.2177
     11  O5        39.3680    3.3350   -3.6210 O.3   901  YX0901     -0.3284
     12  O5'       42.8580    8.5260   -1.8180 O.2   901  YX0901     -0.2896
     13  C5'       41.8330    9.0930   -2.2010 C.2   901  YX0901      0.1942
     14  C6'       41.4520   10.4780   -1.7650 C.3   901  YX0901      0.0790
     15  C4'       40.8970    8.4450   -3.1730 C.ar  901  YX0901      0.1573
     16  C3'       40.9510    7.1230   -3.6420 C.ar  901  YX0901      0.0635
     17  C2'       39.9020    7.0070   -4.5340 C.ar  901  YX0901      0.1844
     18  C1'       39.4850    5.7700   -5.2890 C.3   901  YX0901      0.2115
     19  O         39.2130    8.1480   -4.6210 O.2   901  YX0901     -0.3551
     20  N         39.8490    9.0970   -3.7540 N.ar  901  YX0901     -0.0743
@<TRIPOS>BOND
     1    18     7    1
     2    18    17    1
     3     7     1    1
     4    19    17   ar
     5    19    20   ar
     6     6     5    1
     7    17    16   ar
     8     5     4    1
     9     5    11    1
    10     4     3    1
    11     4    10    1
    12    20    15   ar
    13    16    15   ar
    14    11     1    1
    15     3     9    1
    16     3     2    1
    17     1     2    1
    18    15    13    1
    19     2     8    1
    20    13    12    2
    21    13    14    1
