@<TRIPOS>MOLECULE
2vuc_FUC_A_1.pdb
 11 11 0 0 0
SMALL
GASTEIGER

@<TRIPOS>ATOM
      1  C1        30.8210  -13.9140   32.4140 C.3   901  FUC901      0.3023
      2  C2        29.9380  -12.9790   31.5870 C.3   901  FUC901      0.2434
      3  C3        29.7420  -11.6590   32.2970 C.3   901  FUC901      0.2198
      4  C4        31.0490  -11.0210   32.6390 C.3   901  FUC901      0.2118
      5  C5        31.9350  -12.0010   33.4170 C.3   901  FUC901      0.1509
      6  C6        33.3370  -11.4350   33.6460 C.3   901  FUC901      0.0350
      7  O1        30.1160  -14.1670   33.6500 O.3   901  FUC901     -0.1869
      8  O2        28.6600  -13.5660   31.2840 O.3   901  FUC901     -0.2148
      9  O3        28.9970  -10.8160   31.3780 O.3   901  FUC901     -0.2174
     10  O4        31.6530  -10.6380   31.3870 O.3   901  FUC901     -0.2177
     11  O5        32.0420  -13.2500   32.7070 O.3   901  FUC901     -0.3264
@<TRIPOS>BOND
     1     8     2    1
     2     9     3    1
     3    10     4    1
     4     2     3    1
     5     2     1    1
     6     3     4    1
     7     1    11    1
     8     1     7    1
     9     4     5    1
    10    11     5    1
    11     5     6    1
