@<TRIPOS>MOLECULE
2vud_FUC_A_1.pdb
 11 11 0 0 0
SMALL
GASTEIGER

@<TRIPOS>ATOM
      1  C1        31.4050  -13.9970   32.9230 C.3   1118  FUC1118     0.3023
      2  C2        30.4650  -13.1010   32.0730 C.3   1118  FUC1118     0.2434
      3  C3        30.3390  -11.6950   32.6830 C.3   1118  FUC1118     0.2198
      4  C4        31.6930  -11.1130   33.0570 C.3   1118  FUC1118     0.2118
      5  C5        32.5870  -12.0960   33.8640 C.3   1118  FUC1118     0.1509
      6  C6        33.9870  -11.4900   34.0700 C.3   1118  FUC1118     0.0350
      7  O1        30.8250  -14.3030   34.1720 O.3   1118  FUC1118    -0.1869
      8  O2        29.1640  -13.6680   31.9750 O.3   1118  FUC1118    -0.2148
      9  O3        29.6530  -10.8380   31.7440 O.3   1118  FUC1118    -0.2174
     10  O4        32.3420  -10.7160   31.8750 O.3   1118  FUC1118    -0.2177
     11  O5        32.6480  -13.3510   33.1630 O.3   1118  FUC1118    -0.3264
@<TRIPOS>BOND
     1     9     3    1
     2    10     4    1
     3     8     2    1
     4     2     3    1
     5     2     1    1
     6     3     4    1
     7     1    11    1
     8     1     7    1
     9     4     5    1
    10    11     5    1
    11     5     6    1
