@<TRIPOS>MOLECULE
2vud_LZ0_B_1.pdb
 20 21 0 0 0
SMALL
GASTEIGER

@<TRIPOS>ATOM
      1  C1        39.1340    4.5420   -3.4770 C.3   1115  LZ01115     0.2697
      2  C2        37.6970    4.3900   -2.9180 C.3   1115  LZ01115     0.2406
      3  C3        36.8810    3.3200   -3.6480 C.3   1115  LZ01115     0.2197
      4  C4        37.7030    2.0390   -3.7810 C.3   1115  LZ01115     0.2118
      5  C5        39.0820    2.3330   -4.4110 C.3   1115  LZ01115     0.1508
      6  C6        39.9330    1.0790   -4.5360 C.3   1115  LZ01115     0.0350
      7  O1        39.0820    5.2310   -4.7390 O.3   1115  LZ01115    -0.3220
      8  O2        36.9710    5.6250   -2.9680 O.3   1115  LZ01115    -0.2149
      9  O3        35.7010    3.0510   -2.8710 O.3   1115  LZ01115    -0.2174
     10  O4        37.8760    1.4480   -2.4840 O.3   1115  LZ01115    -0.2177
     11  O5        39.7920    3.2830   -3.6240 O.3   1115  LZ01115    -0.3284
     12  O1'       39.7950    8.7060   -6.3380 O.2   1115  LZ01115    -0.2861
     13  C5'       39.3900    9.3530   -5.3730 C.2   1115  LZ01115     0.2339
     14  C4'       39.2450    8.6390   -4.0510 C.3   1115  LZ01115     0.2005
     15  N1'       40.4920    7.9310   -3.7980 N.ar  1115  LZ01115    -0.2252
     16  C1'       40.9520    6.7520   -4.2030 C.ar  1115  LZ01115     0.1084
     17  C3'       40.3490    5.6540   -5.0510 C.3   1115  LZ01115     0.1915
     18  C2'       42.2360    6.5710   -3.6660 C.ar  1115  LZ01115     0.1406
     19  N3'       42.5480    7.6830   -2.9220 N.ar  1115  LZ01115    -0.1274
     20  N2'       41.4560    8.5870   -3.0040 N.ar  1115  LZ01115    -0.0636
@<TRIPOS>BOND
     1    12    13    2
     2    13    14    1
     3    17     7    1
     4    17    16    1
     5     7     1    1
     6     6     5    1
     7     5     4    1
     8     5    11    1
     9    16    15   ar
    10    16    18   ar
    11    14    15    1
    12    15    20   ar
    13     4     3    1
    14     4    10    1
    15    18    19   ar
    16     3     2    1
    17     3     9    1
    18    11     1    1
    19     1     2    1
    20    20    19   ar
    21     8     2    1
