@<TRIPOS>MOLECULE
2vue_BLA_A_1.pdb
 43 46 0 0 0
SMALL
GASTEIGER

@<TRIPOS>ATOM
      1  CHA        0.7030   14.6880    9.7440 C.3   2001  BLA2001     0.1170
      2  NA        -0.4020   16.1730   11.3870 N.2   2001  BLA2001    -0.4104
      3  C1A        0.0830   14.9250   11.0420 C.2   2001  BLA2001     0.1114
      4  C2A       -0.1370   13.9590   12.1620 C.2   2001  BLA2001     0.0024
      5  C3A       -0.7590   14.6860   13.1410 C.2   2001  BLA2001     0.0021
      6  C4A       -0.9220   16.0770   12.6500 C.2   2001  BLA2001     0.1114
      7  CMA       -1.2100   14.1650   14.5010 C.3   2001  BLA2001     0.0331
      8  CAA        0.2390   12.4620   12.2260 C.3   2001  BLA2001     0.0402
      9  CBA        1.5750   12.1660   12.9910 C.3   2001  BLA2001     0.1188
     10  CGA        2.8660   12.7510   12.3980 C.2   2001  BLA2001     0.3652
     11  O1A        3.6310   13.5510   12.9810 O.co2 2001  BLA2001    -0.2456
     12  O2A        3.1830   12.3440   11.1180 O.co2 2001  BLA2001    -0.2456
     13  CHB       -1.5140   17.2080   13.3030 C.3   2001  BLA2001     0.1181
     14  NB        -2.8940   17.9020   15.1660 N.2   2001  BLA2001    -0.3375
     15  C1B       -1.6630   17.5600   14.6720 C.2   2001  BLA2001     0.1254
     16  C2B       -0.6120   17.6250   15.7500 C.2   2001  BLA2001     0.0128
     17  C3B       -1.2870   18.0260   16.9100 C.2   2001  BLA2001     0.0706
     18  C4B       -2.6800   18.1810   16.4930 C.1   2001  BLA2001     0.2000
     19  CMB        0.8740   17.3190   15.6020 C.3   2001  BLA2001     0.0339
     20  OB        -3.6060   18.5280   17.2340 O.2   2001  BLA2001    -0.2096
     21  CAB       -0.8890   18.2700   18.2300 C.3   2001  BLA2001     0.0390
     22  CBB       -0.5000   19.5000   18.7680 C.3   2001  BLA2001     0.0058
     23  NC         2.3190    9.6930   10.1270 N.2   2001  BLA2001    -0.3375
     24  C1C        2.8910    8.5880   10.7270 C.1   2001  BLA2001     0.2000
     25  C2C        2.6260    7.3850    9.9980 C.2   2001  BLA2001     0.0710
     26  C3C        1.8850    7.7550    8.9320 C.2   2001  BLA2001     0.0125
     27  C4C        1.6810    9.2590    9.0130 C.2   2001  BLA2001     0.1254
     28  CMC        3.1670    6.0280   10.4880 C.3   2001  BLA2001     0.0445
     29  OC         3.5570    8.6160   11.7720 O.2   2001  BLA2001    -0.2096
     30  CAC        1.3990    6.8660    7.9230 C.3   2001  BLA2001     0.0291
     31  CBC       -0.0410    6.6380    7.8210 C.3   2001  BLA2001     0.0051
     32  CHD        0.9680   10.0690    8.1140 C.3   2001  BLA2001     0.1181
     33  ND         1.0370   12.2880    9.2070 N.2   2001  BLA2001    -0.4104
     34  C1D        0.6500   11.4290    8.1980 C.2   2001  BLA2001     0.1114
     35  C2D       -0.1540   12.1350    7.2090 C.2   2001  BLA2001     0.0021
     36  C3D       -0.2430   13.4580    7.6410 C.2   2001  BLA2001     0.0024
     37  C4D        0.5060   13.5290    8.8960 C.2   2001  BLA2001     0.1114
     38  CMD       -0.7890   11.5450    5.9250 C.3   2001  BLA2001     0.0331
     39  CAD       -0.9910   14.6250    6.9390 C.3   2001  BLA2001     0.0402
     40  CBD       -0.5420   14.8230    5.4290 C.3   2001  BLA2001     0.1188
     41  CGD        0.9650   14.6300    5.1940 C.2   2001  BLA2001     0.3652
     42  O1D        1.7900   15.5070    5.4780 O.co2 2001  BLA2001    -0.2456
     43  O2D        1.4860   13.4720    4.6630 O.co2 2001  BLA2001    -0.2456
@<TRIPOS>BOND
     1    43    41   ar
     2    41    40    1
     3    41    42   ar
     4    40    39    1
     5    38    35    1
     6    39    36    1
     7    35    36    2
     8    35    34    1
     9    36    37    1
    10    31    30    1
    11    30    26    1
    12    32    34    1
    13    32    27    1
    14    34    33    2
    15    37    33    2
    16    37     1    1
    17    26    27    1
    18    26    25    2
    19    27    23    2
    20     1     3    1
    21    25    28    1
    22    25    24    1
    23    23    24    2
    24    24    29    2
    25     3     2    2
    26     3     4    1
    27    12    10   ar
    28     2     6    2
    29     4     8    1
    30     4     5    2
    31     8     9    1
    32    10    11   ar
    33    10     9    1
    34     6     5    1
    35     6    13    1
    36     5     7    1
    37    13    15    1
    38    15    14    2
    39    15    16    1
    40    14    18    2
    41    19    16    1
    42    16    17    2
    43    18    17    1
    44    18    20    2
    45    17    21    1
    46    21    22    1
