@<TRIPOS>MOLECULE
2vuf_FUA_A_1.pdb
 37 40 0 0 0
SMALL
GASTEIGER

@<TRIPOS>ATOM
      1  C1        -2.2580   13.8250   15.4040 C.3   2001  FUA2001     0.0027
      2  C2        -3.0580   13.9980   16.7420 C.3   2001  FUA2001     0.0329
      3  C3        -2.4800   15.0700   17.6460 C.3   2001  FUA2001     0.1519
      4  C4        -2.0950   16.4690   16.9000 C.3   2001  FUA2001     0.0304
      5  C5        -1.2780   16.1030   15.6760 C.3   2001  FUA2001     0.0025
      6  C6        -0.6300   17.3880   15.0540 C.3   2001  FUA2001     0.0001
      7  C7        -0.1920   17.2520   13.5410 C.3   2001  FUA2001     0.0001
      8  C8         0.2600   15.7970   13.1260 C.3   2001  FUA2001     0.0028
      9  C9        -1.0580   14.9120   13.2940 C.3   2001  FUA2001     0.0305
     10  C10       -1.9010   15.1180   14.6650 C.3   2001  FUA2001     0.0025
     11  C11       -0.8670   13.4250   12.6920 C.3   2001  FUA2001     0.1523
     12  C12       -0.4030   13.4520   11.2230 C.3   2001  FUA2001     0.0370
     13  C13        0.8380   14.3750   10.9690 C.3   2001  FUA2001     0.0242
     14  C14        0.6290   15.8210   11.5250 C.3   2001  FUA2001     0.0075
     15  C15        1.9480   16.4530   11.1940 C.3   2001  FUA2001     0.0483
     16  C16        2.4220   15.8390    9.8750 C.3   2001  FUA2001     0.1871
     17  C17        1.5240   14.5730    9.6410 C.2   2001  FUA2001    -0.0028
     18  C18       -1.5430   17.4110   17.8860 C.3   2001  FUA2001     0.0026
     19  C19       -3.2560   15.6960   14.0850 C.3   2001  FUA2001     0.0001
     20  C20        1.4500   15.3590   13.9060 C.3   2001  FUA2001     0.0001
     21  C21       -0.4710   16.5400   10.6460 C.3   2001  FUA2001     0.0004
     22  C22        1.5000   13.9390    8.4340 C.2   2001  FUA2001     0.0533
     23  C23        0.6600   12.6650    8.0950 C.3   2001  FUA2001     0.0372
     24  C24        1.4690   11.4770    7.5330 C.3   2001  FUA2001     0.0303
     25  C25        1.3040   10.1090    8.0390 C.2   2001  FUA2001    -0.0342
     26  C26        0.8160    9.0790    7.5420 C.2   2001  FUA2001    -0.0478
     27  C27        0.6870    7.6390    8.1550 C.3   2001  FUA2001     0.0260
     28  C28        0.1480    8.9290    6.0940 C.3   2001  FUA2001     0.0260
     29  C29        2.3490   14.3740    7.2820 C.2   2001  FUA2001     0.3834
     30  C31        3.1990   17.7610    8.5150 C.2   2001  FUA2001     0.3177
     31  C32        2.8640   18.6540    7.4830 C.3   2001  FUA2001     0.1212
     32  O1         0.0720   12.6980   13.4300 O.3   2001  FUA2001    -0.2231
     33  O2         2.2300   16.8420    8.8130 O.3   2001  FUA2001    -0.4480
     34  O3         4.2010   17.8100    9.0560 O.2   2001  FUA2001    -0.2501
     35  O4         1.8440   14.6750    6.1870 O.co2 2001  FUA2001    -0.2409
     36  O5         3.6250   14.4650    7.4160 O.co2 2001  FUA2001    -0.2409
     37  O6        -1.2790   14.5440   18.2730 O.3   2001  FUA2001    -0.2232
@<TRIPOS>BOND
     1    28    26    1
     2    35    29   ar
     3    29    36   ar
     4    29    22    1
     5    31    30    1
     6    24    25    1
     7    24    23    1
     8    26    25    2
     9    26    27    1
    10    23    22    1
    11    22    17    2
    12    30    33    1
    13    30    34    2
    14    33    16    1
    15    17    16    1
    16    17    13    1
    17    16    15    1
    18    21    14    1
    19    13    12    1
    20    13    14    1
    21    15    14    1
    22    12    11    1
    23    14     8    1
    24    11     9    1
    25    11    32    1
    26     8     9    1
    27     8     7    1
    28     8    20    1
    29     9    10    1
    30     7     6    1
    31    19    10    1
    32    10     1    1
    33    10     5    1
    34     6     5    1
    35     1     2    1
    36     5     4    1
    37     2     3    1
    38     4     3    1
    39     4    18    1
    40     3    37    1
