@<TRIPOS>MOLECULE
2vug_ANP_A_1.pdb
 31 33 0 0 0
SMALL
GASTEIGER

@<TRIPOS>ATOM
      1  PG        19.9630   55.6300   59.3530 P.3   401  ANP401      0.4884
      2  O1G       19.9750   54.1440   59.0830 O.3   401  ANP401     -0.1240
      3  O2G       19.0730   56.4090   58.4060 O.2   401  ANP401     -0.2331
      4  O3G       19.8280   56.0030   60.8120 O.3   401  ANP401     -0.1240
      5  PB        22.2770   55.9470   57.4800 P.3   401  ANP401      0.4669
      6  O1B       23.5340   56.7900   57.3860 O.3   401  ANP401     -0.1253
      7  O2B       22.3300   54.4500   57.1940 O.2   401  ANP401     -0.2351
      8  N3B       21.6020   56.1420   59.0680 N.3   401  ANP401     -0.0163
      9  PA        21.4410   56.4660   54.8510 P.3   401  ANP401      0.2220
     10  O1A       21.0580   55.0690   54.4400 O.2   401  ANP401     -0.5170
     11  O2A       22.8000   57.0040   54.4990 O.3   401  ANP401     -0.4370
     12  O3A       21.2300   56.5970   56.4420 O.3   401  ANP401     -0.2360
     13  O5'       20.3370   57.5170   54.3500 O.3   401  ANP401     -0.3111
     14  C5'       19.7460   58.4890   55.2170 C.3   401  ANP401      0.1813
     15  C4'       20.7310   59.6370   55.3130 C.3   401  ANP401      0.1821
     16  O4'       20.8700   60.2650   54.0420 O.3   401  ANP401     -0.3135
     17  C3'       20.3420   60.7140   56.3080 C.3   401  ANP401      0.2184
     18  O3'       20.9390   60.4100   57.5740 O.3   401  ANP401     -0.2174
     19  C2'       20.9290   61.9740   55.7060 C.3   401  ANP401      0.2570
     20  O2'       22.2360   62.2150   56.2450 O.3   401  ANP401     -0.2130
     21  C1'       21.1100   61.6560   54.2310 C.3   401  ANP401      0.3186
     22  N9        20.2130   62.3530   53.2790 N.pl3 401  ANP401     -0.1439
     23  C8        20.5990   62.6340   52.0220 C.3   401  ANP401      0.3377
     24  N7        19.6200   63.2380   51.3090 N.2   401  ANP401     -0.2095
     25  C5        18.5610   63.3520   52.1290 C.2   401  ANP401      0.2526
     26  C6        17.1940   63.9100   51.9940 C.2   401  ANP401      0.4393
     27  N6        16.7970   64.4610   50.8210 N.pl3 401  ANP401      0.2180
     28  N1        16.3700   63.8460   53.0580 N.2   401  ANP401      0.0021
     29  C2        16.7970   63.2840   54.2100 C.3   401  ANP401      0.5254
     30  N3        18.0300   62.7590   54.4150 N.2   401  ANP401     -0.0055
     31  C4        18.9490   62.7600   53.4240 C.2   401  ANP401      0.3518
@<TRIPOS>BOND
     1    27    26    1
     2    24    23    1
     3    24    25    2
     4    26    25    1
     5    26    28    2
     6    23    22    1
     7    25    31    1
     8    28    29    1
     9    22    31    1
    10    22    21    1
    11    31    30    2
    12    16    21    1
    13    16    15    1
    14    29    30    1
    15    21    19    1
    16    13     9    1
    17    13    14    1
    18    10     9    2
    19    11     9    1
    20     9    12    1
    21    14    15    1
    22    15    17    1
    23    19    20    1
    24    19    17    1
    25    17    18    1
    26    12     5    1
    27     7     5    2
    28     6     5    1
    29     5     8    1
    30     3     1    2
    31     8     1    1
    32     2     1    1
    33     1     4    1
