@<TRIPOS>MOLECULE
2vuk_P83_B_1.pdb
 18 20 0 0 0
SMALL
GASTEIGER

@<TRIPOS>ATOM
      1  C1       125.2080  105.1940  -40.9940 C.ar  1291  P831291     0.0169
      2  C2       125.0670  106.6170  -40.9240 C.ar  1291  P831291    -0.0014
      3  C3       124.7230  107.3860  -42.0870 C.ar  1291  P831291    -0.0047
      4  C4       124.5170  106.7290  -43.3250 C.ar  1291  P831291    -0.0014
      5  C4A      124.6530  105.2950  -43.4270 C.ar  1291  P831291     0.0169
      6  C4B      124.5150  104.3730  -44.5110 C.ar  1291  P831291     0.0172
      7  C5       124.1840  104.5310  -45.9020 C.ar  1291  P831291     0.0015
      8  C6       124.1290  103.3890  -46.7440 C.ar  1291  P831291     0.0001
      9  C7       124.4010  102.0950  -46.2260 C.ar  1291  P831291     0.0015
     10  C8       124.7320  101.9150  -44.8550 C.ar  1291  P831291     0.0172
     11  C8A      124.7830  103.0700  -44.0110 C.ar  1291  P831291     0.0599
     12  N9       125.0730  103.2080  -42.6510 N.ar  1291  P831291    -0.3272
     13  C9A      125.0000  104.5460  -42.2620 C.ar  1291  P831291     0.0599
     14  C91      125.4180  102.0860  -41.7660 C.3   1291  P831291     0.1061
     15  C92      126.9350  101.9290  -41.6430 C.3   1291  P831291     0.0265
     16  C31      124.6090  108.8950  -41.9140 C.3   1291  P831291     0.1150
     17  N32      123.2310  109.3010  -41.6100 N.3   1291  P831291    -0.2118
     18  C33      123.1400  110.7510  -41.3370 C.3   1291  P831291     0.1079
@<TRIPOS>BOND
     1     8     9   ar
     2     8     7   ar
     3     9    10   ar
     4     7     6   ar
     5    10    11   ar
     6     6    11   ar
     7     6     5   ar
     8    11    12   ar
     9     5     4   ar
    10     5    13   ar
    11     4     3   ar
    12    12    13   ar
    13    12    14    1
    14    13     1   ar
    15     3    16    1
    16     3     2   ar
    17    16    17    1
    18    14    15    1
    19    17    18    1
    20     1     2   ar
