@<TRIPOS>MOLECULE
2vuo_MAN_A_1.pdb
 11 11 0 0 0
SMALL
GASTEIGER

@<TRIPOS>ATOM
      1  C1       -25.7970    7.4220   38.0440 C.3   1448  MAN1448     0.1777
      2  C2       -26.2400    8.7460   38.6500 C.3   1448  MAN1448     0.2141
      3  C3       -27.5080    8.5290   39.4580 C.3   1448  MAN1448     0.2173
      4  C4       -28.5510    7.8370   38.5840 C.3   1448  MAN1448     0.2142
      5  C5       -27.9590    6.6190   37.8830 C.3   1448  MAN1448     0.1810
      6  C6       -28.9730    5.9830   36.9380 C.3   1448  MAN1448     0.2141
      7  O2       -26.5620    9.7340   37.6860 O.3   1448  MAN1448    -0.2176
      8  O3       -28.0040    9.7880   39.8470 O.3   1448  MAN1448    -0.2175
      9  O4       -29.6540    7.4380   39.3650 O.3   1448  MAN1448    -0.2176
     10  O5       -26.8070    7.0030   37.1620 O.3   1448  MAN1448    -0.3481
     11  O6       -28.4660    4.7520   36.4720 O.3   1448  MAN1448    -0.2176
@<TRIPOS>BOND
     1    11     6    1
     2     6     5    1
     3    10     5    1
     4    10     1    1
     5     7     2    1
     6     5     4    1
     7     1     2    1
     8     4     9    1
     9     4     3    1
    10     2     3    1
    11     3     8    1
