@<TRIPOS>MOLECULE
2vuo_GAL_A_1.pdb
 11 11 0 0 0
SMALL
GASTEIGER

@<TRIPOS>ATOM
      1  C1       -23.0680   14.6920   35.3580 C.3   1450  GAL1450     0.1777
      2  C2       -21.7190   15.2800   34.9050 C.3   1450  GAL1450     0.2141
      3  C3       -21.8100   16.7710   34.5750 C.3   1450  GAL1450     0.2173
      4  C4       -23.0640   17.1170   33.7900 C.3   1450  GAL1450     0.2142
      5  C5       -24.2800   16.5340   34.4900 C.3   1450  GAL1450     0.1810
      6  C6       -25.5540   16.9020   33.7360 C.3   1450  GAL1450     0.2141
      7  O2       -20.6770   15.0710   35.8460 O.3   1450  GAL1450    -0.2176
      8  O3       -20.6940   17.1500   33.8100 O.3   1450  GAL1450    -0.2175
      9  O4       -22.9630   16.5890   32.4870 O.3   1450  GAL1450    -0.2176
     10  O5       -24.1320   15.1320   34.5340 O.3   1450  GAL1450    -0.3481
     11  O6       -26.6820   16.6090   34.5310 O.3   1450  GAL1450    -0.2176
@<TRIPOS>BOND
     1     9     4    1
     2     6     5    1
     3     6    11    1
     4     4     5    1
     5     4     3    1
     6     8     3    1
     7     5    10    1
     8    10     1    1
     9     3     2    1
    10     2     1    1
    11     2     7    1
