@<TRIPOS>MOLECULE
2vuo_NAG_A_1.pdb
 14 14 0 0 0
SMALL
GASTEIGER

@<TRIPOS>ATOM
      1  C1       -31.7630    6.4360   49.2240 C.3   1445  NAG1445     0.1665
      2  C2       -30.8590    5.2100   49.0630 C.3   1445  NAG1445     0.1576
      3  C3       -29.6310    5.4890   48.1970 C.3   1445  NAG1445     0.2069
      4  C4       -29.9830    6.2250   46.9080 C.3   1445  NAG1445     0.2134
      5  C5       -30.9230    7.3890   47.2040 C.3   1445  NAG1445     0.1809
      6  C6       -31.3830    8.0530   45.9090 C.3   1445  NAG1445     0.2141
      7  C7       -30.9370    3.6180   50.8970 C.2   1445  NAG1445     0.2420
      8  C8       -30.3520    3.1780   52.2080 C.3   1445  NAG1445     0.0964
      9  N2       -30.4260    4.7230   50.3600 N.am  1445  NAG1445    -0.2019
     10  O3       -28.9740    4.2750   47.9000 O.3   1445  NAG1445    -0.2184
     11  O4       -28.7870    6.7100   46.3190 O.3   1445  NAG1445    -0.2176
     12  O5       -32.0540    6.9660   47.9430 O.3   1445  NAG1445    -0.3489
     13  O6       -32.1750    7.1530   45.1660 O.3   1445  NAG1445    -0.2176
     14  O7       -31.8430    2.9750   50.3700 O.2   1445  NAG1445    -0.2733
@<TRIPOS>BOND
     1    13     6    1
     2     6     5    1
     3    11     4    1
     4     4     5    1
     5     4     3    1
     6     5    12    1
     7    10     3    1
     8    12     1    1
     9     3     2    1
    10     2     1    1
    11     2     9    1
    12     9     7   am
    13    14     7    2
    14     7     8    1
