@<TRIPOS>MOLECULE
2vuo_BMA_A_1.pdb
 11 11 0 0 0
SMALL
GASTEIGER

@<TRIPOS>ATOM
      1  C1       -24.5190    4.0610   42.1200 C.3   1447  BMA1447     0.1777
      2  C2       -23.5780    2.8670   41.9610 C.3   1447  BMA1447     0.2141
      3  C3       -22.5860    3.0010   40.8050 C.3   1447  BMA1447     0.2173
      4  C4       -23.2080    3.6480   39.5770 C.3   1447  BMA1447     0.2142
      5  C5       -24.0000    4.8840   39.9700 C.3   1447  BMA1447     0.1810
      6  C6       -24.6420    5.5020   38.7320 C.3   1447  BMA1447     0.2141
      7  O2       -24.3780    1.7310   41.7020 O.3   1447  BMA1447    -0.2176
      8  O3       -22.0970    1.7130   40.4860 O.3   1447  BMA1447    -0.2175
      9  O4       -22.1830    4.0280   38.6910 O.3   1447  BMA1447    -0.2176
     10  O5       -25.0080    4.4870   40.8690 O.3   1447  BMA1447    -0.3481
     11  O6       -25.6480    6.4290   39.0820 O.3   1447  BMA1447    -0.2176
@<TRIPOS>BOND
     1     9     4    1
     2     6    11    1
     3     6     5    1
     4     4     5    1
     5     4     3    1
     6     5    10    1
     7     8     3    1
     8     3     2    1
     9    10     1    1
    10     7     2    1
    11     2     1    1
