@<TRIPOS>MOLECULE
2vur_YX1_A_1.pdb
 18 18 0 0 0
SMALL
GASTEIGER

@<TRIPOS>ATOM
      1  O3        64.4780   72.2000   14.1780 O.3   1626  YX11626    -0.2183
      2  C3        63.1810   71.7080   14.6110 C.3   1626  YX11626     0.2096
      3  C4        63.2060   70.1630   14.5620 C.3   1626  YX11626     0.2136
      4  O4        63.4520   69.7150   13.2110 O.3   1626  YX11626    -0.2176
      5  C5        61.8880   69.5760   15.1260 C.3   1626  YX11626     0.1835
      6  C6        61.6900   68.0340   15.0720 C.3   1626  YX11626     0.2142
      7  O6        62.7540   67.4420   15.8330 O.3   1626  YX11626    -0.2176
      8  O5        61.8350   69.9590   16.5350 O.3   1626  YX11626    -0.3242
      9  C1        61.7380   71.4240   16.7480 C.3   1626  YX11626     0.2918
     10  O1        61.7680   71.6410   18.1640 O.3   1626  YX11626    -0.1879
     11  C2        62.9170   72.1900   16.0550 C.3   1626  YX11626     0.1887
     12  N2        62.7650   73.6660   16.1210 N.am  1626  YX11626    -0.1811
     13  CAM       61.7010   74.3560   15.6960 C.2   1626  YX11626     0.3397
     14  OAG       60.7240   73.7830   15.2060 O.2   1626  YX11626    -0.2493
     15  NAN       61.7730   75.7040   15.8670 N.am  1626  YX11626    -0.1610
     16  CAH       60.6570   76.5470   15.4510 C.3   1626  YX11626     0.1403
     17  NAO       62.8800   76.2690   16.4360 N.4   1626  YX11626     0.0541
     18  OAP       63.1670   77.4870   15.7840 O.3   1626  YX11626    -0.0785
@<TRIPOS>BOND
     1     4     3    1
     2     1     2    1
     3     3     2    1
     4     3     5    1
     5     2    11    1
     6     6     5    1
     7     6     7    1
     8     5     8    1
     9    14    13    2
    10    16    15    1
    11    13    15   am
    12    13    12   am
    13    18    17    1
    14    15    17    1
    15    11    12    1
    16    11     9    1
    17     8     9    1
    18     9    10    1
