@<TRIPOS>MOLECULE
2vut_NAD_A_1.pdb
 44 48 0 0 0
SMALL
GASTEIGER

@<TRIPOS>ATOM
      1  PA       -37.8030  -78.8470  198.9480 P.3   1353  NAD1353     0.2189
      2  O1A      -36.8950  -77.7710  198.4590 O.2   1353  NAD1353    -0.5170
      3  O2A      -37.3340  -80.2290  198.5610 O.3   1353  NAD1353    -0.4371
      4  O5B      -39.3000  -78.5890  198.3580 O.3   1353  NAD1353    -0.3112
      5  C5B      -40.3830  -78.0300  199.1520 C.3   1353  NAD1353     0.1813
      6  C4B      -41.6310  -78.4800  198.4490 C.3   1353  NAD1353     0.1821
      7  O4B      -42.7750  -77.9390  199.1790 O.3   1353  NAD1353    -0.3135
      8  C3B      -41.7930  -77.9590  197.0140 C.3   1353  NAD1353     0.2184
      9  O3B      -42.4860  -78.9480  196.1880 O.3   1353  NAD1353    -0.2174
     10  C2B      -42.5600  -76.6520  197.2230 C.3   1353  NAD1353     0.2570
     11  O2B      -43.0290  -76.0760  195.9940 O.3   1353  NAD1353    -0.2130
     12  C1B      -43.6300  -77.1180  198.2610 C.3   1353  NAD1353     0.3186
     13  N9A      -44.1840  -76.0500  199.1370 N.pl3 1353  NAD1353    -0.1439
     14  C8A      -43.9690  -75.8800  200.4850 C.3   1353  NAD1353     0.3377
     15  N7A      -44.7220  -74.7220  200.8510 N.2   1353  NAD1353    -0.2095
     16  C5A      -45.3330  -74.2680  199.7270 C.2   1353  NAD1353     0.2526
     17  C6A      -46.2560  -73.0680  199.5200 C.2   1353  NAD1353     0.4393
     18  N6A      -46.6380  -72.1810  200.5950 N.pl3 1353  NAD1353     0.2180
     19  N1A      -46.7350  -72.8990  198.0770 N.2   1353  NAD1353     0.0021
     20  C2A      -46.2820  -73.8520  197.0960 C.3   1353  NAD1353     0.5254
     21  N3A      -45.4910  -74.8320  197.4310 N.2   1353  NAD1353    -0.0055
     22  C4A      -45.0190  -75.0430  198.7180 C.2   1353  NAD1353     0.3518
     23  O3       -37.8780  -79.0510  200.5300 O.3   1353  NAD1353    -0.2703
     24  PN       -36.8080  -79.3370  201.6460 P.3   1353  NAD1353     0.2189
     25  O1N      -37.1000  -80.5920  202.3830 O.3   1353  NAD1353    -0.4371
     26  O2N      -35.4350  -79.4500  201.0590 O.2   1353  NAD1353    -0.5170
     27  O5D      -36.8580  -78.1240  202.6370 O.3   1353  NAD1353    -0.3112
     28  C5D      -36.6240  -76.7860  202.2530 C.3   1353  NAD1353     0.1813
     29  C4D      -35.6540  -76.1510  203.2860 C.3   1353  NAD1353     0.1799
     30  O4D      -34.4010  -76.8660  203.2750 O.3   1353  NAD1353    -0.3327
     31  C3D      -35.3050  -74.6850  202.9930 C.3   1353  NAD1353     0.2158
     32  O3D      -35.8070  -73.8760  204.0690 O.3   1353  NAD1353    -0.2175
     33  C2D      -33.7700  -74.6810  202.8410 C.3   1353  NAD1353     0.2309
     34  O2D      -33.1730  -73.4630  203.3080 O.3   1353  NAD1353    -0.2158
     35  C1D      -33.3340  -75.9540  203.6020 C.3   1353  NAD1353     0.2263
     36  N1N      -32.0390  -76.5020  203.1250 N.pl3 1353  NAD1353    -0.2787
     37  C2N      -31.8590  -76.8340  201.6900 C.3   1353  NAD1353     0.1244
     38  C3N      -30.6410  -77.3360  201.3170 C.2   1353  NAD1353     0.0544
     39  C7N      -30.3470  -77.6960  199.9110 C.2   1353  NAD1353     0.2818
     40  O7N      -29.2540  -78.1370  199.6210 O.2   1353  NAD1353    -0.2670
     41  N7N      -31.3430  -77.5290  198.8770 N.am  1353  NAD1353    -0.0839
     42  C4N      -29.5880  -77.5170  202.3690 C.2   1353  NAD1353     0.0033
     43  C5N      -29.8250  -77.1890  203.6800 C.2   1353  NAD1353     0.0157
     44  C6N      -31.1450  -76.6450  204.0700 C.2   1353  NAD1353     0.0633
@<TRIPOS>BOND
     1    11    10    1
     2     9     8    1
     3     8    10    1
     4     8     6    1
     5    20    21    1
     6    20    19    1
     7    10    12    1
     8    21    22    2
     9    19    17    2
    10    12    13    1
    11    12     7    1
    12     4     1    1
    13     4     5    1
    14     6     5    1
    15     6     7    1
    16     2     1    2
    17     3     1    1
    18    22    13    1
    19    22    16    1
    20    41    39   am
    21     1    23    1
    22    13    14    1
    23    17    16    1
    24    17    18    1
    25    40    39    2
    26    16    15    2
    27    39    38    1
    28    14    15    1
    29    23    24    1
    30    26    24    2
    31    38    37    1
    32    38    42    2
    33    24    25    1
    34    24    27    1
    35    37    36    1
    36    28    27    1
    37    28    29    1
    38    42    43    1
    39    33    31    1
    40    33    34    1
    41    33    35    1
    42    31    29    1
    43    31    32    1
    44    36    35    1
    45    36    44    1
    46    30    29    1
    47    30    35    1
    48    43    44    2
