@<TRIPOS>MOLECULE
2vuu_NAP_A_1.pdb
 48 52 0 0 0
SMALL
GASTEIGER

@<TRIPOS>ATOM
      1  PA       -39.2580  -81.0920  199.1330 P.3   1353  NAP1353     0.2189
      2  O1A      -38.2690  -80.1020  198.7050 O.3   1353  NAP1353    -0.4371
      3  O2A      -39.0490  -82.4670  198.6800 O.2   1353  NAP1353    -0.5170
      4  O5B      -40.7210  -80.7680  198.5670 O.3   1353  NAP1353    -0.3112
      5  C5B      -41.3600  -79.5360  198.7870 C.3   1353  NAP1353     0.1813
      6  C4B      -42.8410  -79.7490  199.3010 C.3   1353  NAP1353     0.1820
      7  O4B      -43.7910  -78.7290  199.6180 O.3   1353  NAP1353    -0.3136
      8  C3B      -43.5760  -80.7570  198.4550 C.3   1353  NAP1353     0.2157
      9  O3B      -43.8630  -81.9340  199.2280 O.3   1353  NAP1353    -0.2175
     10  C2B      -44.8260  -80.0510  198.0130 C.3   1353  NAP1353     0.2314
     11  O2B      -45.9810  -80.9350  197.9090 O.3   1353  NAP1353    -0.2630
     12  C1B      -45.0640  -79.0400  199.0800 C.3   1353  NAP1353     0.3158
     13  N9A      -45.7250  -77.7660  198.6390 N.pl3 1353  NAP1353    -0.1439
     14  C8A      -45.7270  -77.1400  197.3960 C.3   1353  NAP1353     0.3377
     15  N7A      -46.4310  -76.0370  197.3800 N.2   1353  NAP1353    -0.2095
     16  C5A      -46.9170  -75.9150  198.6580 C.2   1353  NAP1353     0.2526
     17  C6A      -47.7450  -74.9530  199.2730 C.2   1353  NAP1353     0.4393
     18  N6A      -48.2040  -73.9120  198.6080 N.pl3 1353  NAP1353     0.2180
     19  N1A      -48.0610  -75.1190  200.5940 N.2   1353  NAP1353     0.0021
     20  C2A      -47.5920  -76.1840  201.2820 C.3   1353  NAP1353     0.5254
     21  N3A      -46.8080  -77.1410  200.7780 N.2   1353  NAP1353    -0.0055
     22  C4A      -46.5060  -76.9540  199.4420 C.2   1353  NAP1353     0.3518
     23  O3       -39.4880  -81.0830  200.7200 O.3   1353  NAP1353    -0.2703
     24  PN       -38.4080  -81.4390  201.8360 P.3   1353  NAP1353     0.2189
     25  O1N      -37.0770  -81.5280  201.1950 O.2   1353  NAP1353    -0.5170
     26  O2N      -38.8100  -82.6840  202.5110 O.3   1353  NAP1353    -0.4371
     27  O5D      -38.5290  -80.1630  202.8160 O.3   1353  NAP1353    -0.3112
     28  C5D      -38.2270  -78.8520  202.4440 C.3   1353  NAP1353     0.1813
     29  C4D      -37.2650  -78.2570  203.4220 C.3   1353  NAP1353     0.1799
     30  O4D      -36.0090  -79.0040  203.2760 O.3   1353  NAP1353    -0.3327
     31  C3D      -36.8560  -76.8220  203.1470 C.3   1353  NAP1353     0.2158
     32  O3D      -37.1790  -76.0630  204.3120 O.3   1353  NAP1353    -0.2175
     33  C2D      -35.3150  -76.8460  202.8330 C.3   1353  NAP1353     0.2309
     34  O2D      -34.6980  -75.6600  203.3100 O.3   1353  NAP1353    -0.2158
     35  C1D      -34.9480  -78.0980  203.5870 C.3   1353  NAP1353     0.2263
     36  N1N      -33.6110  -78.5960  203.1380 N.pl3 1353  NAP1353    -0.2787
     37  C2N      -33.2620  -78.8990  201.7470 C.3   1353  NAP1353     0.1244
     38  C3N      -31.9320  -79.3630  201.4280 C.2   1353  NAP1353     0.0544
     39  C7N      -31.5500  -79.6790  199.9870 C.2   1353  NAP1353     0.2818
     40  O7N      -30.4340  -79.8940  199.6240 O.2   1353  NAP1353    -0.2670
     41  N7N      -32.5910  -79.7120  199.0860 N.am  1353  NAP1353    -0.0839
     42  C4N      -30.9640  -79.5190  202.5040 C.2   1353  NAP1353     0.0033
     43  C5N      -31.3040  -79.2240  203.8680 C.2   1353  NAP1353     0.0157
     44  C6N      -32.6190  -78.7600  204.2070 C.2   1353  NAP1353     0.0633
     45  P2B      -46.5260  -81.4980  196.5000 P.3   1353  NAP1353     0.5328
     46  O1X      -45.4020  -82.1250  195.7340 O.2   1353  NAP1353    -0.2224
     47  O2X      -47.5720  -82.4220  196.9870 O.3   1353  NAP1353    -0.1145
     48  O3X      -47.0940  -80.2900  195.8570 O.3   1353  NAP1353    -0.1145
@<TRIPOS>BOND
     1    46    45    2
     2    48    45    1
     3    45    47    1
     4    45    11    1
     5    15    14    1
     6    15    16    2
     7    14    13    1
     8    11    10    1
     9    10     8    1
    10    10    12    1
    11     8     9    1
    12     8     6    1
    13     4     5    1
    14     4     1    1
    15    18    17    1
    16    13    12    1
    17    13    22    1
    18    16    17    1
    19    16    22    1
    20     3     1    2
    21     2     1    1
    22     5     6    1
    23    12     7    1
    24    41    39   am
    25     1    23    1
    26    17    19    2
    27     6     7    1
    28    22    21    2
    29    40    39    2
    30    39    38    1
    31    19    20    1
    32    23    24    1
    33    21    20    1
    34    25    24    2
    35    38    37    1
    36    38    42    2
    37    37    36    1
    38    24    26    1
    39    24    27    1
    40    28    27    1
    41    28    29    1
    42    42    43    1
    43    33    31    1
    44    33    34    1
    45    33    35    1
    46    36    35    1
    47    36    44    1
    48    31    29    1
    49    31    32    1
    50    30    29    1
    51    30    35    1
    52    43    44    2
