@<TRIPOS>MOLECULE
2vuw_5ID_A_1.pdb
 20 22 0 0 0
SMALL
GASTEIGER

@<TRIPOS>ATOM
      1  O2'       14.7290   -8.2350  -15.0450 O.3   1800  5ID1800    -0.2130
      2  C2'       13.6370   -8.7670  -14.2440 C.3   1800  5ID1800     0.2573
      3  C3'       13.5100   -7.8440  -13.0420 C.3   1800  5ID1800     0.2186
      4  O3'       13.4950   -6.4260  -13.4740 O.3   1800  5ID1800    -0.2174
      5  C4'       14.8430   -8.1300  -12.3770 C.3   1800  5ID1800     0.1851
      6  C5'       14.5920   -7.5400  -10.9690 C.3   1800  5ID1800     0.2143
      7  O5'       13.4440   -8.0860  -10.2640 O.3   1800  5ID1800    -0.2176
      8  O4'       14.7540   -9.5210  -12.2530 O.3   1800  5ID1800    -0.3132
      9  C1'       14.2630   -9.9730  -13.5570 C.3   1800  5ID1800     0.3212
     10  N9        13.2150  -10.8810  -13.0030 N.pl3 1800  5ID1800    -0.1464
     11  C8        12.5830  -10.9040  -11.7930 C.2   1800  5ID1800     0.1800
     12  C7        11.6780  -11.9210  -11.8430 C.2   1800  5ID1800     0.0715
     13  C5        11.6900  -12.5250  -13.1250 C.3   1800  5ID1800     0.2499
     14  C4        12.6720  -11.8310  -13.8210 C.2   1800  5ID1800     0.3220
     15  N3        12.9910  -12.1700  -15.0860 N.2   1800  5ID1800    -0.0106
     16  C2        12.3420  -13.1500  -15.7060 C.3   1800  5ID1800     0.5248
     17  N1        11.3890  -13.8490  -15.0560 N.2   1800  5ID1800    -0.0027
     18  C6        11.0390  -13.5770  -13.7830 C.2   1800  5ID1800     0.4069
     19  N6        10.0610  -14.2890  -13.1860 N.pl3 1800  5ID1800     0.2117
     20  IAE       10.4550  -12.5160  -10.2360 I     1800  5ID1800    -0.0424
@<TRIPOS>BOND
     1    16    15    1
     2    16    17    1
     3    15    14    2
     4    17    18    2
     5     1     2    1
     6     2     9    1
     7     2     3    1
     8    14    13    1
     9    14    10    1
    10    18    19    1
    11    18    13    1
    12     9    10    1
    13     9     8    1
    14     4     3    1
    15    13    12    1
    16     3     5    1
    17    10    11    1
    18     5     8    1
    19     5     6    1
    20    12    11    2
    21    12    20    1
    22     6     7    1
