@<TRIPOS>MOLECULE
2vuz_BMA_A_1.pdb
 11 11 0 0 0
SMALL
GASTEIGER

@<TRIPOS>ATOM
      1  C1        -6.4010  -27.6870    3.6220 C.3   1131  BMA1131     0.1777
      2  C2        -7.4470  -27.1950    2.6530 C.3   1131  BMA1131     0.2141
      3  C3        -7.1410  -25.7420    2.3150 C.3   1131  BMA1131     0.2173
      4  C4        -6.9190  -24.9310    3.6130 C.3   1131  BMA1131     0.2142
      5  C5        -5.8870  -25.5770    4.5230 C.3   1131  BMA1131     0.1810
      6  C6        -5.6070  -24.9940    5.9270 C.3   1131  BMA1131     0.2141
      7  O2        -8.7920  -27.3770    3.1890 O.3   1131  BMA1131    -0.2176
      8  O3        -8.2630  -25.1900    1.6280 O.3   1131  BMA1131    -0.2175
      9  O4        -6.5430  -23.6280    3.2640 O.3   1131  BMA1131    -0.2176
     10  O5        -6.3860  -26.8500    4.7810 O.3   1131  BMA1131    -0.3481
     11  O6        -6.7130  -24.2270    6.3620 O.3   1131  BMA1131    -0.2176
@<TRIPOS>BOND
     1     8     3    1
     2     3     2    1
     3     3     4    1
     4     2     7    1
     5     2     1    1
     6     9     4    1
     7     4     5    1
     8     1    10    1
     9     5    10    1
    10     5     6    1
    11     6    11    1
