@<TRIPOS>MOLECULE
2vuz_MAN_A_1.pdb
 11 11 0 0 0
SMALL
GASTEIGER

@<TRIPOS>ATOM
      1  C1        -7.6550  -25.0080    7.0850 C.3   1134  MAN1134     0.1777
      2  C2        -8.7900  -24.1100    7.5150 C.3   1134  MAN1134     0.2141
      3  C3        -8.3260  -23.0940    8.5530 C.3   1134  MAN1134     0.2173
      4  C4        -7.6210  -23.8050    9.6670 C.3   1134  MAN1134     0.2142
      5  C5        -6.5980  -24.8640    9.2200 C.3   1134  MAN1134     0.1810
      6  C6        -6.2600  -25.8050   10.3580 C.3   1134  MAN1134     0.2141
      7  O2        -9.7600  -24.9260    8.1210 O.3   1134  MAN1134    -0.2176
      8  O3        -9.4480  -22.4430    9.0850 O.3   1134  MAN1134    -0.2175
      9  O4        -7.0470  -22.8070   10.4840 O.3   1134  MAN1134    -0.2176
     10  O5        -7.0640  -25.6880    8.1540 O.3   1134  MAN1134    -0.3481
     11  O6        -5.0980  -26.5340   10.0580 O.3   1134  MAN1134    -0.2176
@<TRIPOS>BOND
     1     1     2    1
     2     1    10    1
     3     2     7    1
     4     2     3    1
     5    10     5    1
     6     3     8    1
     7     3     4    1
     8     5     4    1
     9     5     6    1
    10     4     9    1
    11    11     6    1
