@<TRIPOS>MOLECULE
2vuz_NAG_A_1.pdb
 14 14 0 0 0
SMALL
GASTEIGER

@<TRIPOS>ATOM
      1  C1       -10.9310  -24.9910    7.3160 C.3   1135  NAG1135     0.1665
      2  C2       -11.7820  -26.0860    7.8800 C.3   1135  NAG1135     0.1576
      3  C3       -13.0040  -26.2730    6.9850 C.3   1135  NAG1135     0.2069
      4  C4       -13.6560  -24.8800    6.8240 C.3   1135  NAG1135     0.2134
      5  C5       -12.6350  -23.8810    6.2850 C.3   1135  NAG1135     0.1809
      6  C6       -13.1170  -22.4450    6.0660 C.3   1135  NAG1135     0.2141
      7  C7       -10.5980  -27.7860    9.1290 C.2   1135  NAG1135     0.2420
      8  C8        -9.5550  -28.8570    9.1170 C.3   1135  NAG1135     0.0964
      9  N2       -10.8320  -27.1690    7.9940 N.am  1135  NAG1135    -0.2019
     10  O3       -13.8240  -27.2820    7.5480 O.3   1135  NAG1135    -0.2184
     11  O4       -14.7670  -24.8060    5.9660 O.3   1135  NAG1135    -0.2176
     12  O5       -11.6560  -23.7970    7.2740 O.3   1135  NAG1135    -0.3489
     13  O6       -11.9490  -21.6480    5.8420 O.3   1135  NAG1135    -0.2176
     14  O7       -11.2220  -27.5170   10.1530 O.2   1135  NAG1135    -0.2733
@<TRIPOS>BOND
     1    13     6    1
     2    11     4    1
     3     6     5    1
     4     5     4    1
     5     5    12    1
     6     4     3    1
     7     3    10    1
     8     3     2    1
     9    12     1    1
    10     1     2    1
    11     2     9    1
    12     9     7   am
    13     8     7    1
    14     7    14    2
