@<TRIPOS>MOLECULE
2vv0_HXA_A_1.pdb
 24 23 0 0 0
SMALL
GASTEIGER

@<TRIPOS>ATOM
      1  C1        19.3140   17.7350   19.8820 C.2   1476  HXA1476     0.3652
      2  O1        20.2300   17.9660   20.7090 O.co2 1476  HXA1476    -0.2456
      3  O2        18.0900   17.6660   20.1480 O.co2 1476  HXA1476    -0.2456
      4  C2        19.7330   17.5310   18.4350 C.3   1476  HXA1476     0.1187
      5  C3        19.1870   16.2120   17.8560 C.3   1476  HXA1476     0.0375
      6  C4        19.6900   15.9780   16.5900 C.2   1476  HXA1476    -0.0298
      7  C5        18.9130   16.1820   15.4550 C.2   1476  HXA1476    -0.0260
      8  C6        17.5910   16.6170   15.5680 C.3   1476  HXA1476     0.0513
      9  C7        16.7610   15.7420   14.8850 C.2   1476  HXA1476    -0.0257
     10  C8        16.5290   15.9030   13.5210 C.2   1476  HXA1476    -0.0257
     11  C9        17.1490   16.9300   12.8250 C.3   1476  HXA1476     0.0513
     12  C10       17.9560   16.4030   11.8200 C.2   1476  HXA1476    -0.0257
     13  C11       17.7220   16.7040   10.4850 C.2   1476  HXA1476    -0.0257
     14  C12       16.6550   17.5230   10.1210 C.3   1476  HXA1476     0.0513
     15  C13       15.5300   16.7370    9.8540 C.2   1476  HXA1476    -0.0257
     16  C14       14.2510   17.2490    9.9920 C.2   1476  HXA1476    -0.0257
     17  C15       14.0490   18.5670   10.4070 C.3   1476  HXA1476     0.0513
     18  C16       13.2340   19.2130    9.5040 C.2   1476  HXA1476    -0.0257
     19  C17       13.4930   20.5470    9.1610 C.2   1476  HXA1476    -0.0257
     20  C18       14.5770   21.1920    9.7280 C.3   1476  HXA1476     0.0513
     21  C19       14.9430   22.2830    8.9300 C.2   1476  HXA1476    -0.0260
     22  C20       16.2730   22.5510    8.6720 C.2   1476  HXA1476    -0.0304
     23  C21       17.2800   21.7520    9.2090 C.3   1476  HXA1476     0.0257
     24  C22       17.9610   20.9270    8.1150 C.3   1476  HXA1476     0.0050
@<TRIPOS>BOND
     1    24    23    1
     2    22    21    2
     3    22    23    1
     4    21    20    1
     5    19    18    2
     6    19    20    1
     7    18    17    1
     8    15    16    2
     9    15    14    1
    10    16    17    1
    11    14    13    1
    12    13    12    2
    13    12    11    1
    14    11    10    1
    15    10     9    2
    16     9     8    1
    17     7     8    1
    18     7     6    2
    19     6     5    1
    20     5     4    1
    21     4     1    1
    22     1     3   ar
    23     1     2   ar
