@<TRIPOS>MOLECULE
2vv1_4HD_A_1.pdb
 25 24 0 0 0
SMALL
GASTEIGER

@<TRIPOS>ATOM
      1  O1        17.7860   18.4680   20.4250 O.co2 1476  4HD1476    -0.2457
      2  O2        19.8200   19.0530   21.0140 O.co2 1476  4HD1476    -0.2457
      3  C1        18.9320   18.8860   20.1510 C.2   1476  4HD1476     0.3650
      4  C2        19.2570   19.2040   18.7110 C.3   1476  4HD1476     0.1170
      5  C3        19.3770   20.7140   18.5390 C.3   1476  4HD1476     0.0493
      6  C4        20.7970   21.1080   18.1510 C.3   1476  4HD1476     0.1746
      7  C5        21.4210   20.0020   17.3340 C.2   1476  4HD1476     0.0061
      8  C6        20.6610   19.0270   16.8440 C.2   1476  4HD1476    -0.0024
      9  C7        21.2650   17.9580   16.0540 C.2   1476  4HD1476    -0.0045
     10  C8        20.5350   17.2980   15.1590 C.2   1476  4HD1476    -0.0214
     11  C9        19.0820   17.6550   14.9600 C.3   1476  4HD1476     0.0517
     12  C10       18.2120   16.5550   15.5200 C.2   1476  4HD1476    -0.0257
     13  C11       16.9630   16.4100   15.0890 C.2   1476  4HD1476    -0.0257
     14  C12       16.4130   17.3460   14.0390 C.3   1476  4HD1476     0.0513
     15  C13       16.0780   16.5620   12.7930 C.2   1476  4HD1476    -0.0257
     16  C14       16.6900   16.8440   11.6460 C.2   1476  4HD1476    -0.0257
     17  C15       17.7190   17.9480   11.5900 C.3   1476  4HD1476     0.0513
     18  C16       18.6390   17.7190   10.4150 C.2   1476  4HD1476    -0.0257
     19  C17       18.6510   18.5800    9.4020 C.2   1476  4HD1476    -0.0257
     20  C18       17.7440   19.7870    9.4260 C.3   1476  4HD1476     0.0513
     21  C19       18.3720   20.9050    8.6290 C.2   1476  4HD1476    -0.0260
     22  C20       17.7660   22.0860    8.5480 C.2   1476  4HD1476    -0.0304
     23  C21       16.4500   22.3100    9.2540 C.3   1476  4HD1476     0.0257
     24  C22       15.5540   23.1710    8.3910 C.3   1476  4HD1476     0.0050
     25  O3        20.7630   22.3130   17.3770 O.3   1476  4HD1476    -0.2183
@<TRIPOS>BOND
     1    24    23    1
     2    22    21    2
     3    22    23    1
     4    21    20    1
     5    19    20    1
     6    19    18    2
     7    18    17    1
     8    17    16    1
     9    16    15    2
    10    15    14    1
    11    14    13    1
    12    11    10    1
    13    11    12    1
    14    13    12    2
    15    10     9    2
    16     9     8    1
    17     8     7    2
    18     7     6    1
    19    25     6    1
    20     6     5    1
    21     5     4    1
    22     4     3    1
    23     3     1   ar
    24     3     2   ar
