@<TRIPOS>MOLECULE
2vv2_5HE_A_1.pdb
 23 22 0 0 0
SMALL
GASTEIGER

@<TRIPOS>ATOM
      1  C1        14.4320   23.8340    8.3720 C.3   1476  5HE1476     0.0050
      2  C2        15.3920   22.6750    8.5260 C.3   1476  5HE1476     0.0257
      3  C3        16.8120   23.1910    8.5110 C.2   1476  5HE1476    -0.0304
      4  C4        17.8050   22.4150    8.9360 C.2   1476  5HE1476    -0.0260
      5  C5        17.5140   21.0190    9.4330 C.3   1476  5HE1476     0.0513
      6  C6        18.4600   20.0430    8.7760 C.2   1476  5HE1476    -0.0257
      7  C7        18.4920   18.7760    9.1770 C.2   1476  5HE1476    -0.0257
      8  C8        17.5820   18.3120   10.2890 C.3   1476  5HE1476     0.0513
      9  C9        17.4370   16.8100   10.2280 C.2   1476  5HE1476    -0.0257
     10  C10       17.3370   16.1060   11.3520 C.2   1476  5HE1476    -0.0257
     11  C11       17.3680   16.8090   12.6880 C.3   1476  5HE1476     0.0517
     12  C13       16.0220   16.6730   13.3590 C.2   1476  5HE1476    -0.0214
     13  C14       15.9170   16.8310   14.6760 C.2   1476  5HE1476    -0.0045
     14  C16       17.1030   17.1350   15.4710 C.2   1476  5HE1476    -0.0024
     15  C17       18.2660   16.5610   15.1770 C.2   1476  5HE1476     0.0061
     16  C18       19.4930   16.8760   16.0000 C.3   1476  5HE1476     0.1740
     17  C19       19.1000   17.7560   17.1810 C.3   1476  5HE1476     0.0381
     18  C20       20.2410   18.6880   17.5700 C.3   1476  5HE1476     0.0148
     19  C21       19.8290   19.6070   18.7140 C.3   1476  5HE1476     0.1142
     20  C22       19.8930   18.8470   20.0180 C.2   1476  5HE1476     0.3649
     21  O23       19.1360   17.8640   20.1730 O.co2 1476  5HE1476    -0.2457
     22  O24       20.7010   19.2290   20.8920 O.co2 1476  5HE1476    -0.2457
     23  O3        20.0690   15.6580   16.4830 O.3   1476  5HE1476    -0.2183
@<TRIPOS>BOND
     1     1     2    1
     2     3     2    1
     3     3     4    2
     4     6     7    2
     5     6     5    1
     6     4     5    1
     7     7     8    1
     8     9     8    1
     9     9    10    2
    10    10    11    1
    11    11    12    1
    12    12    13    2
    13    13    14    1
    14    15    14    2
    15    15    16    1
    16    16    23    1
    17    16    17    1
    18    17    18    1
    19    18    19    1
    20    19    20    1
    21    20    21   ar
    22    20    22   ar
