@<TRIPOS>MOLECULE
2vv3_4R8_A_1.pdb
 25 24 0 0 0
SMALL
GASTEIGER

@<TRIPOS>ATOM
      1  C22       14.5190   23.9240    8.1770 C.3   1476  4R81476     0.0050
      2  C21       15.3910   22.8680    7.5330 C.3   1476  4R81476     0.0257
      3  C20       16.8290   23.0880    7.9350 C.2   1476  4R81476    -0.0304
      4  C19       17.4760   22.1560    8.6290 C.2   1476  4R81476    -0.0260
      5  C18       16.7700   20.8770    9.0160 C.3   1476  4R81476     0.0513
      6  C17       15.9800   21.1020   10.2820 C.2   1476  4R81476    -0.0257
      7  C16       14.6820   20.8150   10.3160 C.2   1476  4R81476    -0.0257
      8  C15       13.9980   20.2650    9.0870 C.3   1476  4R81476     0.0513
      9  C14       13.2150   19.0280    9.4570 C.2   1476  4R81476    -0.0257
     10  C13       13.8310   17.8520    9.5430 C.2   1476  4R81476    -0.0257
     11  C12       15.3130   17.7540    9.2690 C.3   1476  4R81476     0.0513
     12  C11       15.8920   16.5930   10.0420 C.2   1476  4R81476    -0.0260
     13  C10       16.9020   16.7930   10.8850 C.2   1476  4R81476    -0.0300
     14  C9        17.4690   18.1800   11.0690 C.3   1476  4R81476     0.0304
     15  C8        18.6230   18.1290   12.0620 C.3   1476  4R81476     0.0304
     16  C7        18.1270   17.5900   13.3830 C.2   1476  4R81476    -0.0299
     17  C6        18.9700   16.9800   14.2110 C.2   1476  4R81476    -0.0229
     18  C5        18.4740   16.4410   15.5310 C.3   1476  4R81476     0.0901
     19  C4        19.5130   16.6880   16.5990 C.2   1476  4R81476     0.1556
     20  O3        20.3330   15.8250   16.8670 O.2   1476  4R81476    -0.2957
     21  C3        19.5330   18.0080   17.3320 C.3   1476  4R81476     0.0767
     22  C2        18.5170   17.9740   18.4670 C.3   1476  4R81476     0.1218
     23  C1        19.1400   18.5490   19.7170 C.2   1476  4R81476     0.3653
     24  O1        20.3090   18.9870   19.6540 O.co2 1476  4R81476    -0.2456
     25  O2        18.4630   18.5650   20.7680 O.co2 1476  4R81476    -0.2456
@<TRIPOS>BOND
     1     2     3    1
     2     2     1    1
     3     3     4    2
     4     4     5    1
     5     5     6    1
     6     8     9    1
     7     8     7    1
     8    11    10    1
     9    11    12    1
    10     9    10    2
    11    12    13    2
    12     6     7    2
    13    13    14    1
    14    14    15    1
    15    15    16    1
    16    16    17    2
    17    17    18    1
    18    18    19    1
    19    19    20    2
    20    19    21    1
    21    21    22    1
    22    22    23    1
    23    24    23   ar
    24    23    25   ar
