@<TRIPOS>MOLECULE
2vv4_6OC_A_1.pdb
 21 20 0 0 0
SMALL
GASTEIGER

@<TRIPOS>ATOM
      1  C18       14.6160   22.8670    7.9410 C.3   1476  6OC1476     0.0000
      2  C17       13.2190   22.2990    8.0680 C.3   1476  6OC1476     0.0000
      3  C16       13.0690   21.5030    9.3590 C.3   1476  6OC1476     0.0003
      4  C15       13.1230   20.0040    9.0860 C.3   1476  6OC1476     0.0047
      5  C14       14.5150   19.4490    9.3630 C.3   1476  6OC1476     0.0257
      6  C13       14.4420   17.9460    9.4850 C.2   1476  6OC1476    -0.0304
      7  C12       15.1470   17.3190   10.4230 C.2   1476  6OC1476    -0.0260
      8  C11       16.0200   18.1120   11.3660 C.3   1476  6OC1476     0.0513
      9  C10       17.4330   18.1480   10.8340 C.2   1476  6OC1476    -0.0260
     10  C9        18.4600   17.9740   11.6610 C.2   1476  6OC1476    -0.0299
     11  C8        18.2130   17.7410   13.1320 C.3   1476  6OC1476     0.0335
     12  C7        18.9350   16.4730   13.5730 C.3   1476  6OC1476     0.0691
     13  C6        18.6570   16.2190   15.0360 C.2   1476  6OC1476     0.1510
     14  O3        17.5490   15.8560   15.3950 O.2   1476  6OC1476    -0.2960
     15  C5        19.7570   16.4160   16.0510 C.3   1476  6OC1476     0.0645
     16  C4        19.2430   16.0430   17.4360 C.3   1476  6OC1476     0.0083
     17  C3        18.1800   17.0290   17.9070 C.3   1476  6OC1476     0.0122
     18  C2        18.8060   18.3620   18.2970 C.3   1476  6OC1476     0.1141
     19  C1        19.0080   18.4050   19.7930 C.2   1476  6OC1476     0.3649
     20  O1        20.0980   18.8260   20.2360 O.co2 1476  6OC1476    -0.2457
     21  O2        18.0770   18.0180   20.5320 O.co2 1476  6OC1476    -0.2457
@<TRIPOS>BOND
     1     1     2    1
     2     2     3    1
     3     4     3    1
     4     4     5    1
     5     5     6    1
     6     6     7    2
     7     7     8    1
     8     9     8    1
     9     9    10    2
    10    10    11    1
    11    11    12    1
    12    12    13    1
    13    13    14    2
    14    13    15    1
    15    15    16    1
    16    16    17    1
    17    17    18    1
    18    18    19    1
    19    19    20   ar
    20    19    21   ar
