@<TRIPOS>MOLECULE
2vv4_6OB_B_1.pdb
 21 20 0 0 0
SMALL
GASTEIGER

@<TRIPOS>ATOM
      1  C10       37.2770   -8.1020   39.9630 C.3   1475  6OB1475     0.0304
      2  C18       41.7980  -10.3130   45.4940 C.3   1475  6OB1475     0.0000
      3  C17       41.4180   -9.0110   44.8220 C.3   1475  6OB1475     0.0000
      4  C16       40.6040   -9.2670   43.5600 C.3   1475  6OB1475     0.0003
      5  C15       39.1370   -9.5090   43.8950 C.3   1475  6OB1475     0.0047
      6  C14       38.2780   -8.3210   43.4800 C.3   1475  6OB1475     0.0257
      7  C13       36.8620   -8.7860   43.2330 C.2   1475  6OB1475    -0.0307
      8  C12       36.1900   -8.3380   42.1770 C.2   1475  6OB1475    -0.0304
      9  C11       36.8420   -7.3640   41.2240 C.3   1475  6OB1475     0.0303
     10  C9        36.0570   -8.5350   39.1870 C.2   1475  6OB1475    -0.0299
     11  C8        36.1900   -9.0170   37.9540 C.2   1475  6OB1475    -0.0229
     12  C7        34.9700   -9.4500   37.1770 C.3   1475  6OB1475     0.0901
     13  C6        35.1310  -10.8900   36.7490 C.2   1475  6OB1475     0.1550
     14  O3        36.0120  -11.2010   35.9650 O.2   1475  6OB1475    -0.2957
     15  C5        34.1960  -11.9410   37.2960 C.3   1475  6OB1475     0.0649
     16  C4        33.9040  -12.9740   36.2130 C.3   1475  6OB1475     0.0083
     17  C3        32.4280  -13.3550   36.2070 C.3   1475  6OB1475     0.0122
     18  C2        31.9710  -13.7920   37.5930 C.3   1475  6OB1475     0.1141
     19  C1        32.8840  -14.8800   38.1050 C.2   1475  6OB1475     0.3649
     20  O1        33.9270  -14.5490   38.7080 O.co2 1475  6OB1475    -0.2457
     21  O2        32.5610  -16.0720   37.9050 O.co2 1475  6OB1475    -0.2457
@<TRIPOS>BOND
     1    14    13    2
     2    17    16    1
     3    17    18    1
     4    16    15    1
     5    13    12    1
     6    13    15    1
     7    12    11    1
     8    18    19    1
     9    21    19   ar
    10    11    10    2
    11    19    20   ar
    12    10     1    1
    13     1     9    1
    14     9     8    1
    15     8     7    2
    16     7     6    1
    17     6     5    1
    18     4     5    1
    19     4     3    1
    20     3     2    1
