@<TRIPOS>MOLECULE
2vv6_HEM_A_1.pdb
 43 50 0 0 0
SMALL
GASTEIGER

@<TRIPOS>ATOM
      1 FE         33.5340   13.0760   36.5020 Fe    1258  HEM1258     0.0000
      2  CHA       31.4350   15.0420   38.3800 C.2   1258  HEM1258     0.0000
      3  CHB       33.6710   10.7930   39.0170 C.2   1258  HEM1258     0.0000
      4  CHC       36.2590   11.5120   35.0400 C.2   1258  HEM1258     0.0000
      5  CHD       33.8250   15.6120   34.1710 C.2   1258  HEM1258     0.0000
      6  NA        32.7590   12.9730   38.3640 N.2   1258  HEM1258     0.0000
      7  C1A       31.8710   13.8610   38.9340 C.2   1258  HEM1258     0.0000
      8  C2A       31.4460   13.3130   40.2240 C.2   1258  HEM1258     0.0000
      9  C3A       32.0670   12.1370   40.3860 C.2   1258  HEM1258     0.0000
     10  C4A       32.9070   11.9070   39.2300 C.2   1258  HEM1258     0.0000
     11  CMA       31.9520   11.1670   41.5790 C.3   1258  HEM1258     0.0000
     12  CAA       30.4080   13.9610   41.1760 C.3   1258  HEM1258     0.0000
     13  CBA       31.0460   14.6770   42.3300 C.3   1258  HEM1258     0.0000
     14  CGA       29.9960   14.7970   43.4000 C.2   1258  HEM1258     0.0000
     15  O1A       30.3150   14.3870   44.5380 O.co2 1258  HEM1258     0.0000
     16  O2A       28.8600   15.2830   43.1120 O.co2 1258  HEM1258     0.0000
     17  NB        34.7690   11.4480   36.9140 N.ar  1258  HEM1258     0.0000
     18  C1B       34.5520   10.6100   37.9830 C.ar  1258  HEM1258     0.0000
     19  C2B       35.4300    9.4720   37.8550 C.ar  1258  HEM1258     0.0000
     20  C3B       36.1750    9.6140   36.7510 C.ar  1258  HEM1258     0.0000
     21  C4B       35.7690   10.8930   36.1640 C.ar  1258  HEM1258     0.0000
     22  CMB       35.4480    8.2840   38.8290 C.3   1258  HEM1258     0.0000
     23  CAB       37.2520    8.6330   36.2280 C.2   1258  HEM1258     0.0000
     24  CBB       37.5610    8.5560   34.9330 C.2   1258  HEM1258     0.0000
     25  NC        34.7920   13.5060   34.9030 N.2   1258  HEM1258     0.0000
     26  C1C       35.8590   12.7290   34.5180 C.2   1258  HEM1258     0.0000
     27  C2C       36.5610   13.4170   33.4450 C.2   1258  HEM1258     0.0000
     28  C3C       35.8870   14.5500   33.1910 C.2   1258  HEM1258     0.0000
     29  C4C       34.7780   14.6330   34.1170 C.2   1258  HEM1258     0.0000
     30  CMC       37.8260   12.8710   32.7490 C.3   1258  HEM1258     0.0000
     31  CAC       36.1850   15.6460   32.1530 C.2   1258  HEM1258     0.0000
     32  CBC       36.8370   15.3850   31.0150 C.2   1258  HEM1258     0.0000
     33  ND        32.7760   14.9750   36.3170 N.ar  1258  HEM1258     0.0000
     34  C1D       32.9390   15.7850   35.1950 C.ar  1258  HEM1258     0.0000
     35  C2D       32.0570   16.9340   35.2940 C.ar  1258  HEM1258     0.0000
     36  C3D       31.3080   16.7680   36.5880 C.ar  1258  HEM1258     0.0000
     37  C4D       31.8220   15.5400   37.1600 C.ar  1258  HEM1258     0.0000
     38  CMD       31.8810   18.0850   34.2970 C.3   1258  HEM1258     0.0000
     39  CAD       30.2570   17.7280   37.1680 C.3   1258  HEM1258     0.0000
     40  CBD       30.9800   18.9250   37.8000 C.3   1258  HEM1258     0.0000
     41  CGD       31.3160   18.7550   39.2590 C.2   1258  HEM1258     0.0000
     42  O1D       30.6460   17.9450   39.9400 O.co2 1258  HEM1258     0.0000
     43  O2D       32.2300   19.4700   39.7200 O.co2 1258  HEM1258     0.0000
@<TRIPOS>BOND
     1    32    31    2
     2    31    28    1
     3    30    27    1
     4    28    27    2
     5    28    29    1
     6    27    26    1
     7    29     5    1
     8    29    25    2
     9     5    34    2
    10    38    35    1
    11    26    25    1
    12    26     4    2
    13    25     1    1
    14    24    23    2
    15     4    21    1
    16    34    35   ar
    17    34    33   ar
    18    35    36   ar
    19    21    20   ar
    20    21    17   ar
    21    23    20    1
    22    33     1    1
    23    33    37   ar
    24     1    17    1
    25     1     6    1
    26    36    37   ar
    27    36    39    1
    28    20    19   ar
    29    17    18   ar
    30    37     2    2
    31    39    40    1
    32    40    41    1
    33    19    18   ar
    34    19    22    1
    35    18     3    1
    36     6     7    2
    37     6    10    1
    38     2     7    1
    39     7     8    1
    40     3    10    2
    41    10     9    1
    42    41    43   ar
    43    41    42   ar
    44     8     9    2
    45     8    12    1
    46     9    11    1
    47    12    13    1
    48    13    14    1
    49    16    14   ar
    50    14    15   ar
