@<TRIPOS>MOLECULE
2vv7_HEM_A_1.pdb
 43 50 0 0 0
SMALL
GASTEIGER

@<TRIPOS>ATOM
      1 FE         32.1520   13.7830   36.4030 Fe    1258  HEM1258     0.0000
      2  CHA       29.9480   15.8290   38.2070 C.2   1258  HEM1258     0.0000
      3  CHB       32.2270   11.5440   38.8220 C.2   1258  HEM1258     0.0000
      4  CHC       34.8760   12.1160   34.8840 C.2   1258  HEM1258     0.0000
      5  CHD       32.5010   16.1900   34.0900 C.2   1258  HEM1258     0.0000
      6  NA        31.2920   13.7630   38.1380 N.2   1258  HEM1258     0.0000
      7  C1A       30.4240   14.6680   38.7270 C.2   1258  HEM1258     0.0000
      8  C2A       30.0560   14.1820   40.0390 C.2   1258  HEM1258     0.0000
      9  C3A       30.6800   12.9820   40.1970 C.2   1258  HEM1258     0.0000
     10  C4A       31.4710   12.7060   39.0240 C.2   1258  HEM1258     0.0000
     11  CMA       30.5680   12.0650   41.4540 C.3   1258  HEM1258     0.0000
     12  CAA       29.0080   14.8760   40.9310 C.3   1258  HEM1258     0.0000
     13  CBA       29.4000   15.6670   42.1420 C.3   1258  HEM1258     0.0000
     14  CGA       28.3860   15.2830   43.2070 C.2   1258  HEM1258     0.0000
     15  O1A       28.8480   14.5300   44.0780 O.co2 1258  HEM1258     0.0000
     16  O2A       27.1840   15.6950   43.1920 O.co2 1258  HEM1258     0.0000
     17  NB        33.2970   12.1610   36.7100 N.ar  1258  HEM1258     0.0000
     18  C1B       33.0720   11.3200   37.7930 C.ar  1258  HEM1258     0.0000
     19  C2B       33.9390   10.1840   37.7160 C.ar  1258  HEM1258     0.0000
     20  C3B       34.6960   10.3040   36.6340 C.ar  1258  HEM1258     0.0000
     21  C4B       34.3220   11.5740   36.0220 C.ar  1258  HEM1258     0.0000
     22  CMB       33.9040    8.9970   38.7450 C.3   1258  HEM1258     0.0000
     23  CAB       35.7790    9.3140   36.1760 C.2   1258  HEM1258     0.0000
     24  CBB       36.2080    9.1850   34.9050 C.2   1258  HEM1258     0.0000
     25  NC        33.4500   14.0830   34.7560 N.2   1258  HEM1258     0.0000
     26  C1C       34.5200   13.3470   34.3880 C.2   1258  HEM1258     0.0000
     27  C2C       35.2050   14.0300   33.3190 C.2   1258  HEM1258     0.0000
     28  C3C       34.5470   15.1890   33.0760 C.2   1258  HEM1258     0.0000
     29  C4C       33.4460   15.2240   33.9990 C.2   1258  HEM1258     0.0000
     30  CMC       36.4850   13.4650   32.6650 C.3   1258  HEM1258     0.0000
     31  CAC       34.8810   16.3240   32.0800 C.2   1258  HEM1258     0.0000
     32  CBC       35.5160   16.0570   30.9250 C.2   1258  HEM1258     0.0000
     33  ND        31.3820   15.5830   36.2860 N.ar  1258  HEM1258     0.0000
     34  C1D       31.6540   16.4040   35.1070 C.ar  1258  HEM1258     0.0000
     35  C2D       30.8200   17.5660   35.0740 C.ar  1258  HEM1258     0.0000
     36  C3D       30.0110   17.4600   36.3570 C.ar  1258  HEM1258     0.0000
     37  C4D       30.4090   16.2600   36.9910 C.ar  1258  HEM1258     0.0000
     38  CMD       30.7030   18.7200   34.0170 C.3   1258  HEM1258     0.0000
     39  CAD       28.9730   18.4630   36.8450 C.3   1258  HEM1258     0.0000
     40  CBD       29.8300   19.5300   37.5630 C.3   1258  HEM1258     0.0000
     41  CGD       29.8890   19.4400   39.0890 C.2   1258  HEM1258     0.0000
     42  O1D       30.8430   20.0070   39.6770 O.co2 1258  HEM1258     0.0000
     43  O2D       28.9580   18.8910   39.7510 O.co2 1258  HEM1258     0.0000
@<TRIPOS>BOND
     1    32    31    2
     2    31    28    1
     3    30    27    1
     4    28    27    2
     5    28    29    1
     6    27    26    1
     7    29     5    1
     8    29    25    2
     9    38    35    1
    10     5    34    2
    11    26    25    1
    12    26     4    2
    13    25     1    1
    14     4    21    1
    15    24    23    2
    16    35    34   ar
    17    35    36   ar
    18    34    33   ar
    19    21    20   ar
    20    21    17   ar
    21    23    20    1
    22    33     1    1
    23    33    37   ar
    24    36    39    1
    25    36    37   ar
    26     1    17    1
    27     1     6    1
    28    20    19   ar
    29    17    18   ar
    30    39    40    1
    31    37     2    2
    32    40    41    1
    33    19    18   ar
    34    19    22    1
    35    18     3    1
    36     6     7    2
    37     6    10    1
    38     2     7    1
    39     7     8    1
    40     3    10    2
    41    10     9    1
    42    41    42   ar
    43    41    43   ar
    44     8     9    2
    45     8    12    1
    46     9    11    1
    47    12    13    1
    48    13    14    1
    49    16    14   ar
    50    14    15   ar
