@<TRIPOS>MOLECULE
2vv8_HEM_A_1.pdb
 43 50 0 0 0
SMALL
GASTEIGER

@<TRIPOS>ATOM
      1 FE         33.6430   13.2840   36.6280 Fe    1258  HEM1258     0.0000
      2  CHA       31.2290   15.1280   38.4020 C.2   1258  HEM1258     0.0000
      3  CHB       33.5350   10.8580   38.9480 C.2   1258  HEM1258     0.0000
      4  CHC       36.1010   11.5600   35.0020 C.2   1258  HEM1258     0.0000
      5  CHD       33.6780   15.6430   34.1970 C.2   1258  HEM1258     0.0000
      6  NA        32.5730   13.0220   38.3930 N.2   1258  HEM1258     0.0000
      7  C1A       31.6580   13.9430   38.9250 C.2   1258  HEM1258     0.0000
      8  C2A       31.2800   13.3880   40.2330 C.2   1258  HEM1258     0.0000
      9  C3A       31.9140   12.2090   40.3550 C.2   1258  HEM1258     0.0000
     10  C4A       32.7460   11.9510   39.2090 C.2   1258  HEM1258     0.0000
     11  CMA       31.8760   11.2010   41.5390 C.3   1258  HEM1258     0.0000
     12  CAA       30.2670   14.0400   41.2330 C.3   1258  HEM1258     0.0000
     13  CBA       30.9120   14.6680   42.4650 C.3   1258  HEM1258     0.0000
     14  CGA       29.9540   14.7920   43.6430 C.2   1258  HEM1258     0.0000
     15  O1A       28.7000   14.8800   43.4430 O.co2 1258  HEM1258     0.0000
     16  O2A       30.4730   14.8210   44.8070 O.co2 1258  HEM1258     0.0000
     17  NB        34.6100   11.5430   36.8330 N.ar  1258  HEM1258     0.0000
     18  C1B       34.4280   10.6640   37.9240 C.ar  1258  HEM1258     0.0000
     19  C2B       35.3370    9.5310   37.8000 C.ar  1258  HEM1258     0.0000
     20  C3B       36.0760    9.6610   36.6880 C.ar  1258  HEM1258     0.0000
     21  C4B       35.6330   10.9450   36.1320 C.ar  1258  HEM1258     0.0000
     22  CMB       35.3990    8.3460   38.7830 C.3   1258  HEM1258     0.0000
     23  CAB       37.1970    8.6930   36.1920 C.2   1258  HEM1258     0.0000
     24  CBB       37.3900    8.5800   34.8700 C.2   1258  HEM1258     0.0000
     25  NC        34.6420   13.5700   34.8720 N.2   1258  HEM1258     0.0000
     26  C1C       35.7110   12.7760   34.4980 C.2   1258  HEM1258     0.0000
     27  C2C       36.4040   13.4490   33.4050 C.2   1258  HEM1258     0.0000
     28  C3C       35.7360   14.5980   33.1810 C.2   1258  HEM1258     0.0000
     29  C4C       34.6200   14.6740   34.0880 C.2   1258  HEM1258     0.0000
     30  CMC       37.6760   12.9140   32.7170 C.3   1258  HEM1258     0.0000
     31  CAC       35.9910   15.7120   32.1500 C.2   1258  HEM1258     0.0000
     32  CBC       36.8850   15.5920   31.1910 C.2   1258  HEM1258     0.0000
     33  ND        32.5850   15.0380   36.4010 N.ar  1258  HEM1258     0.0000
     34  C1D       32.8100   15.8410   35.2420 C.ar  1258  HEM1258     0.0000
     35  C2D       32.0170   17.0400   35.2990 C.ar  1258  HEM1258     0.0000
     36  C3D       31.2230   16.9260   36.6020 C.ar  1258  HEM1258     0.0000
     37  C4D       31.6250   15.6680   37.1820 C.ar  1258  HEM1258     0.0000
     38  CMD       31.9380   18.1990   34.2840 C.3   1258  HEM1258     0.0000
     39  CAD       30.2370   18.0240   37.0540 C.3   1258  HEM1258     0.0000
     40  CBD       31.0350   19.1380   37.7490 C.3   1258  HEM1258     0.0000
     41  CGD       31.1410   18.9940   39.2660 C.2   1258  HEM1258     0.0000
     42  O1D       32.1170   19.5850   39.8100 O.co2 1258  HEM1258     0.0000
     43  O2D       30.2490   18.3700   39.9150 O.co2 1258  HEM1258     0.0000
@<TRIPOS>BOND
     1    32    31    2
     2    31    28    1
     3    30    27    1
     4    28    27    2
     5    28    29    1
     6    27    26    1
     7    29     5    1
     8    29    25    2
     9     5    34    2
    10    38    35    1
    11    26    25    1
    12    26     4    2
    13    24    23    2
    14    25     1    1
    15     4    21    1
    16    34    35   ar
    17    34    33   ar
    18    35    36   ar
    19    21    20   ar
    20    21    17   ar
    21    23    20    1
    22    33     1    1
    23    33    37   ar
    24    36    39    1
    25    36    37   ar
    26     1    17    1
    27     1     6    1
    28    20    19   ar
    29    17    18   ar
    30    39    40    1
    31    37     2    2
    32    40    41    1
    33    19    18   ar
    34    19    22    1
    35    18     3    1
    36     6     7    2
    37     6    10    1
    38     2     7    1
    39     7     8    1
    40     3    10    2
    41    10     9    1
    42    41    42   ar
    43    41    43   ar
    44     8     9    2
    45     8    12    1
    46     9    11    1
    47    12    13    1
    48    13    14    1
    49    15    14   ar
    50    14    16   ar
