@<TRIPOS>MOLECULE
2vv9_IM9_A_1.pdb
 32 35 0 0 0
SMALL
GASTEIGER

@<TRIPOS>ATOM
      1  C1         0.1430   27.8850   11.7300 C.3   1300  IM91300     0.0245
      2  C2        -0.2850   27.8580   10.2590 C.3   1300  IM91300     0.0868
      3  C3        -0.5410   26.4200    9.8130 C.3   1300  IM91300     0.0245
      4  N4        -1.4660   28.7070   10.0580 N.ar  1300  IM91300    -0.3147
      5  C5        -2.6860   28.5470   10.6050 C.ar  1300  IM91300     0.1208
      6  C6        -3.0600   27.4100   11.5270 C.3   1300  IM91300     0.0718
      7  N7        -3.4770   29.5310   10.2210 N.ar  1300  IM91300    -0.2293
      8  C8        -2.8090   30.3540    9.4030 C.ar  1300  IM91300     0.1199
      9  C9        -1.5400   29.8640    9.2960 C.ar  1300  IM91300     0.1110
     10  C10       -0.4490   30.4510    8.4960 C.2   1300  IM91300     0.1629
     11  C11       -0.4440   31.8430    8.2470 C.2   1300  IM91300     0.0561
     12  C12        0.5960   32.3380    7.4780 C.2   1300  IM91300     0.1145
     13  N13        1.5450   31.5190    7.0220 N.2   1300  IM91300    -0.1683
     14  C14        1.5440   30.2190    7.3010 C.1   1300  IM91300     0.1697
     15  N15        2.6180   29.5230    6.7600 N.pl3 1300  IM91300    -0.1358
     16  C16        3.0890   28.2370    7.0170 C.ar  1300  IM91300     0.0827
     17  C17        2.6380   27.4060    8.0430 C.ar  1300  IM91300     0.0186
     18  C18        3.2010   26.1370    8.1780 C.ar  1300  IM91300     0.0159
     19  C19        4.2020   25.6810    7.3260 C.ar  1300  IM91300     0.0480
     20  C20        4.6660   26.5170    6.3170 C.ar  1300  IM91300     0.0159
     21  C21        4.1070   27.7820    6.1860 C.ar  1300  IM91300     0.0186
     22  N22        4.7890   24.4050    7.4980 N.pl3 1300  IM91300    -0.3041
     23  C23        4.0950   23.6010    8.5120 C.3   1300  IM91300     0.1123
     24  C24        4.9130   22.3380    8.7680 C.3   1300  IM91300     0.1149
     25  N25        5.1630   21.6640    7.4750 N.am  1300  IM91300    -0.2739
     26  C26        5.7820   22.4540    6.3990 C.3   1300  IM91300     0.1149
     27  C27        4.8900   23.6990    6.2130 C.3   1300  IM91300     0.1123
     28  C28        4.8460   20.3640    7.2700 C.2   1300  IM91300     0.2594
     29  O29        5.1040   19.8400    6.1920 O.2   1300  IM91300    -0.2720
     30  C30        4.1920   19.5550    8.3640 C.3   1300  IM91300     0.2665
     31  O31        4.0100   18.1830    7.9730 O.3   1300  IM91300    -0.2099
     32  N32        0.5460   29.6620    8.0220 N.2   1300  IM91300    -0.3346
@<TRIPOS>BOND
     1    21    20   ar
     2    21    16   ar
     3    29    28    2
     4    27    26    1
     5    27    22    1
     6    20    19   ar
     7    26    25    1
     8    15    16    1
     9    15    14    1
    10    16    17   ar
    11    13    14    2
    12    13    12    1
    13    28    25   am
    14    28    30    1
    15    14    32    2
    16    19    22    1
    17    19    18   ar
    18    25    24    1
    19    12    11    2
    20    22    23    1
    21    31    30    1
    22    32    10    2
    23    17    18   ar
    24    11    10    1
    25    10     9    1
    26    23    24    1
    27     9     8   ar
    28     9     4   ar
    29     8     7   ar
    30     3     2    1
    31     4     2    1
    32     4     5   ar
    33     7     5   ar
    34     2     1    1
    35     5     6    1
