@<TRIPOS>MOLECULE
2vvc_LZF_A_1.pdb
 34 37 0 0 0
SMALL
GASTEIGER

@<TRIPOS>ATOM
      1  F32       18.4580    6.3380   28.4850 F     1244  LZF1244    -0.2027
      2  C17       17.4610    7.0660   28.9970 C.ar  1244  LZF1244     0.1568
      3  C11       17.7560    7.8220   30.1290 C.ar  1244  LZF1244     0.0486
      4  C9        16.7640    8.5870   30.7190 C.ar  1244  LZF1244     0.0692
      5  N1        17.0790    9.3570   31.8630 N.ar  1244  LZF1244    -0.2731
      6  C21       16.9670    8.8640   33.1800 C.ar  1244  LZF1244     0.0829
      7  C29       17.2770    9.6510   34.2420 C.ar  1244  LZF1244     0.0192
      8  C30       17.7360   10.9740   34.0260 C.ar  1244  LZF1244     0.0064
      9  C23       17.8640   11.4670   32.7610 C.ar  1244  LZF1244     0.0611
     10  C8        17.5350   10.6650   31.6400 C.ar  1244  LZF1244     0.2648
     11  O25       17.6350   11.0640   30.4800 O.2   1244  LZF1244    -0.2666
     12  C26       15.4890    8.5950   30.1450 C.ar  1244  LZF1244     0.0191
     13  C28       15.1830    7.8360   29.0080 C.ar  1244  LZF1244     0.0204
     14  C16       16.1860    7.0600   28.4270 C.ar  1244  LZF1244     0.1009
     15  N15       15.9100    6.3400   27.3060 N.am  1244  LZF1244    -0.1758
     16  C14       15.8440    6.9870   26.1210 C.2   1244  LZF1244     0.2620
     17  O27       15.9760    8.1930   26.0420 O.2   1244  LZF1244    -0.2715
     18  C22       15.5850    6.2190   24.8430 C.3   1244  LZF1244     0.1607
     19  N4        15.4400    4.7930   25.1550 N.3   1244  LZF1244    -0.2612
     20  C20       15.5750    3.9250   23.9670 C.3   1244  LZF1244     0.1042
     21  C13       14.8410    2.6470   24.3770 C.3   1244  LZF1244     0.1524
     22  O33       14.2670    1.9130   23.2900 O.3   1244  LZF1244    -0.3503
     23  C34       15.1810    1.5650   22.2430 C.3   1244  LZF1244     0.1741
     24  C18       14.1390    4.4840   25.8000 C.3   1244  LZF1244     0.0970
     25  C6        13.7140    3.1080   25.2870 C.3   1244  LZF1244     0.1399
     26  N7        13.7210    2.1530   26.4030 N.am  1244  LZF1244    -0.1990
     27  C5        12.6600    1.9890   27.1910 C.2   1244  LZF1244     0.2709
     28  O24       11.6770    2.6510   27.0200 O.2   1244  LZF1244    -0.2678
     29  C2        12.6410    1.0190   28.3150 C.ar  1244  LZF1244     0.0853
     30  C12       13.4060   -0.1010   28.6120 C.ar  1244  LZF1244     0.0125
     31  C19       13.0090   -0.7190   29.7850 C.ar  1244  LZF1244     0.0186
     32  S3        11.3770    1.3900   29.4570 S.2   1244  LZF1244    -0.0709
     33  C10       11.9730    0.0230   30.3020 C.ar  1244  LZF1244     0.0871
     34 CL1        11.1130   -0.3430   31.8590 Cl    1244  LZF1244    -0.0752
@<TRIPOS>BOND
     1    23    22    1
     2    22    21    1
     3    20    21    1
     4    20    19    1
     5    21    25    1
     6    18    19    1
     7    18    16    1
     8    19    24    1
     9    25    24    1
    10    25    26    1
    11    17    16    2
    12    16    15   am
    13    26    27   am
    14    28    27    2
    15    27    29    1
    16    15    14    1
    17    29    30   ar
    18    29    32   ar
    19    14     2   ar
    20    14    13   ar
    21     1     2    1
    22    30    31   ar
    23     2     3   ar
    24    13    12   ar
    25    32    33   ar
    26    31    33   ar
    27     3     4   ar
    28    12     4   ar
    29    33    34    1
    30    11    10    2
    31     4     5    1
    32    10     5   ar
    33    10     9   ar
    34     5     6   ar
    35     9     8   ar
    36     6     7   ar
    37     8     7   ar
