@<TRIPOS>MOLECULE
2vvg_ADP_A_1.pdb
 27 29 0 0 0
SMALL
GASTEIGER

@<TRIPOS>ATOM
      1  PB       -21.0410   11.0180   21.9240 P.3   1351  ADP1351     0.5373
      2  O1B      -20.6940   10.6760   23.3990 O.3   1351  ADP1351    -0.1143
      3  O2B      -20.3260   12.2370   21.4570 O.2   1351  ADP1351    -0.2221
      4  O3B      -22.5080   11.0560   21.6720 O.3   1351  ADP1351    -0.1143
      5  PA       -19.6940    8.5290   21.4300 P.3   1351  ADP1351     0.2231
      6  O1A      -18.4010    8.9550   22.0640 O.2   1351  ADP1351    -0.5169
      7  O2A      -20.5450    7.6140   22.2700 O.3   1351  ADP1351    -0.4370
      8  O3A      -20.4770    9.8240   21.0200 O.3   1351  ADP1351    -0.2261
      9  O5'      -19.2320    7.9320   20.0380 O.3   1351  ADP1351    -0.3111
     10  C5'      -20.2060    7.3960   19.1080 C.3   1351  ADP1351     0.1813
     11  C4'      -19.8250    6.0260   18.5450 C.3   1351  ADP1351     0.1821
     12  O4'      -18.7000    6.1380   17.6270 O.3   1351  ADP1351    -0.3135
     13  C3'      -19.4090    4.9430   19.5630 C.3   1351  ADP1351     0.2184
     14  O3'      -20.0610    3.7110   19.1880 O.3   1351  ADP1351    -0.2174
     15  C2'      -17.8730    4.9340   19.4880 C.3   1351  ADP1351     0.2570
     16  O2'      -17.2870    3.6340   19.6420 O.3   1351  ADP1351    -0.2130
     17  C1'      -17.5260    5.4900   18.1010 C.3   1351  ADP1351     0.3186
     18  N9       -16.3590    6.4470   18.1600 N.pl3 1351  ADP1351    -0.1439
     19  C8       -16.3400    7.7180   18.6510 C.3   1351  ADP1351     0.3377
     20  N7       -15.1300    8.2970   18.5590 N.2   1351  ADP1351    -0.2095
     21  C5       -14.3570    7.3410   17.9820 C.2   1351  ADP1351     0.2526
     22  C6       -12.9580    7.3480   17.6180 C.2   1351  ADP1351     0.4393
     23  N6       -12.1400    8.3290   17.7870 N.pl3 1351  ADP1351     0.2180
     24  N1       -12.5150    6.1610   17.0390 N.2   1351  ADP1351     0.0021
     25  C2       -13.3380    5.0610   16.8260 C.3   1351  ADP1351     0.5254
     26  N3       -14.6330    5.0400   17.1570 N.2   1351  ADP1351    -0.0055
     27  C4       -15.0950    6.1890   17.7260 C.2   1351  ADP1351     0.3518
@<TRIPOS>BOND
     1    25    24    1
     2    25    26    1
     3    24    22    2
     4    26    27    2
     5    22    23    1
     6    22    21    1
     7    12    17    1
     8    12    11    1
     9    27    21    1
    10    27    18    1
    11    21    20    2
    12    17    18    1
    13    17    15    1
    14    18    19    1
    15    11    10    1
    16    11    13    1
    17    20    19    1
    18    10     9    1
    19    14    13    1
    20    15    13    1
    21    15    16    1
    22     9     5    1
    23     8     5    1
    24     8     1    1
    25     5     6    2
    26     5     7    1
    27     3     1    2
    28     4     1    1
    29     1     2    1
