@<TRIPOS>MOLECULE
2vvn_NHT_A_1.pdb
 16 17 0 0 0
SMALL
GASTEIGER

@<TRIPOS>ATOM
      1  C1         6.3930  -12.1410    4.2100 C.3   1718  NHT1718     0.1940
      2  C2         7.8120  -11.7890    3.8030 C.3   1718  NHT1718     0.1758
      3  C3         7.6180  -10.6840    2.7300 C.3   1718  NHT1718     0.2102
      4  C4         6.5650  -11.0700    1.6530 C.3   1718  NHT1718     0.2137
      5  C5         5.2230  -11.2940    2.3350 C.3   1718  NHT1718     0.1820
      6  C6         4.0720  -11.7090    1.4120 C.3   1718  NHT1718     0.2142
      7  C7         7.5900  -10.6140    5.9080 C.2   1718  NHT1718     0.1729
      8  C10        7.7110   -9.0540    9.2650 C.3   1718  NHT1718     0.0252
      9  N2         8.3810  -11.0590    4.9600 N.2   1718  NHT1718    -0.2455
     10  O3         8.8330  -10.2560    2.0900 O.3   1718  NHT1718    -0.2181
     11  O4         6.3580  -10.0280    0.6770 O.3   1718  NHT1718    -0.2176
     12  O5         5.4240  -12.3820    3.2010 O.3   1718  NHT1718    -0.3400
     13  N1         7.9820   -9.9040    6.9460 N.pl3 1718  NHT1718    -0.2152
     14  O6         4.4510  -12.8820    0.6970 O.3   1718  NHT1718    -0.2176
     15  S1         5.9220  -11.1740    5.6440 S.3   1718  NHT1718    -0.0481
     16  C9         7.0340   -9.5160    7.9880 C.3   1718  NHT1718     0.1144
@<TRIPOS>BOND
     1    11     4    1
     2    14     6    1
     3     6     5    1
     4     4     5    1
     5     4     3    1
     6    10     3    1
     7     5    12    1
     8     3     2    1
     9    12     1    1
    10     2     1    1
    11     2     9    1
    12     1    15    1
    13     9     7    2
    14    15     7    1
    15     7    13    1
    16    13    16    1
    17    16     8    1
