@<TRIPOS>MOLECULE
2vvo_A6P_A_1.pdb
 16 16 0 0 0
SMALL
GASTEIGER

@<TRIPOS>ATOM
      1  C1        34.3060    8.8460  -11.5080 C.3   200  A6P200      0.3024
      2  C2        34.5980    7.7670  -10.4350 C.3   200  A6P200      0.2434
      3  C3        34.2450    8.2370   -9.0250 C.3   200  A6P200      0.2199
      4  C4        34.6870    9.6760   -8.7300 C.3   200  A6P200      0.2143
      5  C5        34.3040   10.6310   -9.8570 C.3   200  A6P200      0.1808
      6  C6        34.8870   12.0200   -9.6230 C.3   200  A6P200      0.1859
      7  O1        32.9150    8.9630  -11.7790 O.3   200  A6P200     -0.1869
      8  O2        33.9020    6.5220  -10.6710 O.3   200  A6P200     -0.2148
      9  O3        32.8200    8.0640   -8.7710 O.3   200  A6P200     -0.2174
     10  O4        34.0630   10.1200   -7.5230 O.3   200  A6P200     -0.2176
     11  O5        34.7980   10.1330  -11.1040 O.3   200  A6P200     -0.3237
     12  O6        34.4890   12.8740  -10.7090 O.3   200  A6P200     -0.2675
     13  P         34.8060   14.4640  -10.7060 P.3   200  A6P200      0.5327
     14  O1P       34.1440   15.0030   -9.4560 O.3   200  A6P200     -0.1145
     15  O2P       36.2760   14.5590  -10.6470 O.3   200  A6P200     -0.1145
     16  O3P       34.1940   15.0100  -11.9740 O.2   200  A6P200     -0.2224
@<TRIPOS>BOND
     1    16    13    2
     2     7     1    1
     3     1    11    1
     4     1     2    1
     5    11     5    1
     6    12    13    1
     7    12     6    1
     8    13    15    1
     9    13    14    1
    10     8     2    1
    11     2     3    1
    12     5     6    1
    13     5     4    1
    14     3     9    1
    15     3     4    1
    16     4    10    1
