@<TRIPOS>MOLECULE
2vvp_R52_A_1.pdb
 14 13 0 0 0
SMALL
GASTEIGER

@<TRIPOS>ATOM
      1  O2        24.3550   -6.1240   14.2550 O.2   200  R52200     -0.2854
      2  C1        25.3920   -6.7760   14.2150 C.2   200  R52200      0.2427
      3  O3        24.2970   -8.8940   13.7760 O.3   200  R52200     -0.2118
      4  C3        26.7660   -8.7900   13.5570 C.3   200  R52200      0.2224
      5  O4        27.0390   -9.5650   12.3760 O.3   200  R52200     -0.2171
      6  C2        26.8400   -9.6700   14.8040 C.3   200  R52200      0.2151
      7  O5        26.6620   -8.8300   15.9510 O.3   200  R52200     -0.2176
      8  C5        28.1780  -10.4040   14.8950 C.3   200  R52200      0.1892
      9  C4        25.4090   -8.0730   13.4180 C.3   200  R52200      0.2486
     10  O6        28.2960  -11.1310   16.1380 O.3   200  R52200     -0.2674
     11  P1        29.4950  -12.1970   16.3530 P.3   200  R52200      0.5327
     12  O9        29.5870  -12.9910   15.0720 O.2   200  R52200     -0.2224
     13  O7        29.0280  -13.0270   17.5460 O.3   200  R52200     -0.1145
     14  O8        30.7500  -11.3900   16.5920 O.3   200  R52200     -0.1145
@<TRIPOS>BOND
     1     5     4    1
     2     9     4    1
     3     9     3    1
     4     9     2    1
     5     4     6    1
     6     2     1    2
     7     6     8    1
     8     6     7    1
     9     8    10    1
    10    12    11    2
    11    10    11    1
    12    11    14    1
    13    11    13    1
