@<TRIPOS>MOLECULE
2vvp_5RP_A_1.pdb
 14 13 0 0 0
SMALL
GASTEIGER

@<TRIPOS>ATOM
      1  C2        25.0150   -6.4320   14.1120 C.3   300  5RP300      0.2486
      2  C3        25.1660   -7.8830   13.7730 C.2   300  5RP300      0.2165
      3  C5        26.5700   -8.4720   13.8700 C.3   300  5RP300      0.2439
      4  O13       26.9300   -9.1870   12.6790 O.3   300  5RP300     -0.2122
      5  C6        26.6270   -9.3800   15.0940 C.3   300  5RP300      0.2194
      6  O14       26.5410   -8.5830   16.2840 O.3   300  5RP300     -0.2172
      7  C7        27.9010  -10.2050   15.1130 C.3   300  5RP300      0.1896
      8  O8        27.7510  -11.1870   16.1360 O.3   300  5RP300     -0.2674
      9  P9        28.8990  -12.2940   16.2880 P.3   300  5RP300      0.5327
     10  O12       30.1310  -11.5400   16.7250 O.3   300  5RP300     -0.1145
     11  O11       28.3790  -13.2160   17.3770 O.3   300  5RP300     -0.1145
     12  O10       29.0290  -12.9490   14.9240 O.2   300  5RP300     -0.2224
     13  O4        24.3740   -8.3500   12.9850 O.2   300  5RP300     -0.2905
     14  O1        23.6940   -5.9040   14.0100 O.3   300  5RP300     -0.2118
@<TRIPOS>BOND
     1     4     3    1
     2    13     2    2
     3     2     3    1
     4     2     1    1
     5     3     5    1
     6    14     1    1
     7    12     9    2
     8     5     7    1
     9     5     6    1
    10     7     8    1
    11     8     9    1
    12     9    10    1
    13     9    11    1
