@<TRIPOS>MOLECULE
2vvq_R10_A_1.pdb
 15 14 0 0 0
SMALL
GASTEIGER

@<TRIPOS>ATOM
      1  O2        23.2660   -9.0940   13.7060 O.co2 200  R10200     -0.2427
      2  C5        23.7260   -7.7040   13.3040 C.2   200  R10200      0.3973
      3  O1        23.3330   -7.4000   12.1650 O.co2 200  R10200     -0.2427
      4  O3        25.2050   -5.7990   13.5520 O.3   200  R10200     -0.2080
      5  C3        26.2020   -8.0260   13.8790 C.3   200  R10200      0.2259
      6  O4        26.3070   -8.7230   12.6200 O.3   200  R10200     -0.2169
      7  C2        26.1800   -9.1290   14.9680 C.3   200  R10200      0.2152
      8  O5        26.1100   -8.5660   16.2820 O.3   200  R10200     -0.2176
      9  C1        27.3730  -10.0720   14.8640 C.3   200  R10200      0.1892
     10  C4        24.9410   -7.1320   14.0040 C.3   200  R10200      0.2865
     11  O6        27.3320  -11.1110   15.8540 O.3   200  R10200     -0.2674
     12  P1        28.5960  -12.0610   16.1460 P.3   200  R10200      0.5327
     13  O9        28.8730  -12.7550   14.8570 O.2   200  R10200     -0.2224
     14  O7        28.0240  -12.9170   17.2350 O.3   200  R10200     -0.1145
     15  O8        29.8020  -11.2580   16.5210 O.3   200  R10200     -0.1145
@<TRIPOS>BOND
     1     3     2   ar
     2     6     5    1
     3     2     1   ar
     4     2    10    1
     5     4    10    1
     6     5    10    1
     7     5     7    1
     8    13    12    2
     9     9     7    1
    10     9    11    1
    11     7     8    1
    12    11    12    1
    13    12    15    1
    14    12    14    1
