@<TRIPOS>MOLECULE
2vvs_OAN_A_1.pdb
 25 26 0 0 0
SMALL
GASTEIGER

@<TRIPOS>ATOM
      1  CAH      -11.0440  -11.0480    5.0140 C.3   900  OAN900      0.0964
      2  CAG      -10.1010  -10.6620    6.1550 C.2   900  OAN900      0.2423
      3  OAN      -10.0280   -9.4940    6.5560 O.2   900  OAN900     -0.2733
      4  NAI       -9.3900  -11.6960    6.6290 N.am  900  OAN900     -0.1948
      5  CAB       -8.4910  -11.6390    7.8050 C.3   900  OAN900      0.2065
      6  CAC       -9.3330  -11.3550    9.0850 C.3   900  OAN900      0.2146
      7  OAJ       -9.6890  -12.5700    9.7800 O.3   900  OAN900     -0.2179
      8  CAD       -8.6020  -10.3850   10.0360 C.3   900  OAN900      0.2266
      9  OAK       -9.3910  -10.0790   11.1690 O.3   900  OAN900     -0.2163
     10  CAE       -8.2570   -9.0810    9.3020 C.3   900  OAN900      0.2328
     11  CAF       -7.7340   -8.0110   10.2590 C.3   900  OAN900      0.2281
     12  OAM       -6.3940   -8.2640   10.6250 O.3   900  OAN900     -0.2163
     13  OAL       -7.3370   -9.3630    8.2000 O.2   900  OAN900     -0.4583
     14  CAA       -7.2930  -10.6400    7.6750 C.2   900  OAN900      0.2599
     15  NAY       -6.1040  -11.0150    7.1650 N.2   900  OAN900     -0.0369
     16  OAQ       -5.0990  -10.0500    7.1720 O.3   900  OAN900     -0.2944
     17  CAP       -3.8640  -10.4690    6.7480 C.2   900  OAN900      0.4504
     18  OAR       -3.6570  -11.6350    6.3820 O.2   900  OAN900     -0.2218
     19  NAO       -2.9010   -9.5330    6.7790 N.am  900  OAN900     -0.1406
     20  CAS       -1.6490   -9.7190    6.3480 C.ar  900  OAN900      0.0768
     21  CAT       -1.0970  -10.9990    6.1970 C.ar  900  OAN900      0.0167
     22  CAU        0.1960  -11.1490    5.7070 C.ar  900  OAN900      0.0013
     23  CAV        0.9380  -10.0060    5.3760 C.ar  900  OAN900      0.0001
     24  CAW        0.3880   -8.7220    5.5310 C.ar  900  OAN900      0.0013
     25  CAX       -0.9140   -8.5850    6.0040 C.ar  900  OAN900      0.0167
@<TRIPOS>BOND
     1     1     2    1
     2    23    24   ar
     3    23    22   ar
     4    24    25   ar
     5    22    21   ar
     6    25    20   ar
     7     2     3    2
     8     2     4   am
     9    21    20   ar
    10    20    19    1
    11    18    17    2
    12     4     5    1
    13    17    19   am
    14    17    16    1
    15    15    16    1
    16    15    14    2
    17    14     5    1
    18    14    13    1
    19     5     6    1
    20    13    10    1
    21     6     7    1
    22     6     8    1
    23    10     8    1
    24    10    11    1
    25     8     9    1
    26    11    12    1
