@<TRIPOS>MOLECULE
2vvt_DGL_A_1.pdb
 10 9 0 0 0
SMALL
GASTEIGER

@<TRIPOS>ATOM
      1  N         15.8990   42.9270   75.1680 N.3   1270  DGL1270    -0.1208
      2  CA        17.2850   43.4680   74.8900 C.3   1270  DGL1270     0.1949
      3  C         17.9550   42.6390   73.8080 C.2   1270  DGL1270     0.3819
      4  O         19.2180   42.7700   73.6390 O.co2 1270  DGL1270    -0.2441
      5  CB        17.2080   44.9240   74.4300 C.3   1270  DGL1270     0.0424
      6  CG        16.8900   45.9260   75.5610 C.3   1270  DGL1270     0.1161
      7  CD        17.9170   45.9050   76.6640 C.2   1270  DGL1270     0.3649
      8  OE1       17.5950   45.2640   77.7160 O.co2 1270  DGL1270    -0.2457
      9  OE2       19.0320   46.4500   76.4870 O.co2 1270  DGL1270    -0.2457
     10  OXT       17.2860   41.8170   73.1700 O.co2 1270  DGL1270    -0.2441
@<TRIPOS>BOND
     1    10     3   ar
     2     4     3   ar
     3     3     2    1
     4     5     2    1
     5     5     6    1
     6     2     1    1
     7     6     7    1
     8     9     7   ar
     9     7     8   ar
