@<TRIPOS>MOLECULE
2vvt_I24_A_1.pdb
 32 35 0 0 0
SMALL
GASTEIGER

@<TRIPOS>ATOM
      1  N1         8.8640   50.2700   72.4350 N.2   1269  I241269    -0.2940
      2  C2         9.5070   49.6880   73.4390 C.1   1269  I241269     0.3127
      3  N3         9.5360   50.1640   74.6820 N.2   1269  I241269    -0.2926
      4  C4         8.8780   51.2950   74.9910 C.2   1269  I241269     0.2357
      5  C5         8.2110   51.4060   72.6790 C.2   1269  I241269     0.2216
      6  C6         8.1920   51.9570   73.9710 C.2   1269  I241269     0.1691
      7  N7         7.4490   53.1140   73.9290 N.2   1269  I241269    -0.2402
      8  C8         7.0390   53.2710   72.7030 C.3   1269  I241269     0.2223
      9  N9         7.4760   52.2360   71.9000 N.pl3 1269  I241269    -0.2564
     10  N10        8.9280   51.7990   76.2830 N.pl3 1269  I241269    -0.2061
     11  O11       10.1660   48.5220   73.2330 O.2   1269  I241269    -0.3996
     12  C12       10.0020   51.3580   77.1910 C.3   1269  I241269     0.1322
     13  C13        9.7180   51.7460   78.6440 C.3   1269  I241269     0.0959
     14  N14        8.3270   51.4670   79.0600 N.3   1269  I241269    -0.2669
     15  C15        8.0110   50.0400   78.8010 C.3   1269  I241269     0.1047
     16  C16        6.6180   49.7380   79.3430 C.3   1269  I241269     0.1595
     17  O17        6.7190   49.8160   80.7670 O.3   1269  I241269    -0.3508
     18  C18        6.9920   51.1800   81.1690 C.3   1269  I241269     0.1595
     19  C19        8.2830   51.7150   80.5210 C.3   1269  I241269     0.1047
     20  C20        9.7660   47.9670   71.9620 C.3   1269  I241269     0.2225
     21  C21        8.5050   47.1230   72.0790 C.3   1269  I241269     0.0486
     22  C22        8.4830   46.1990   70.8450 C.3   1269  I241269     0.0039
     23  C23        7.1490   45.4610   70.8530 C.3   1269  I241269     0.0001
     24  C24        7.2220   52.0410   70.4800 C.3   1269  I241269     0.1262
     25  C25        6.2470   50.9190   70.1940 C.ar  1269  I241269     0.0526
     26  C26        4.9100   51.1080   70.4980 C.ar  1269  I241269     0.1399
     27  C27        3.9810   50.1180   70.2310 C.ar  1269  I241269     0.0295
     28  C28        4.3920   48.9340   69.6350 C.ar  1269  I241269     0.0046
     29  C29        5.7380   48.7360   69.3070 C.ar  1269  I241269     0.0295
     30  C30        6.6510   49.7380   69.5990 C.ar  1269  I241269     0.1399
     31  F31        4.5710   52.2800   71.0730 F     1269  I241269    -0.2044
     32  F32        7.9660   49.5950   69.3240 F     1269  I241269    -0.2044
@<TRIPOS>BOND
     1    29    30   ar
     2    29    28   ar
     3    32    30    1
     4    30    25   ar
     5    28    27   ar
     6    25    24    1
     7    25    26   ar
     8    27    26   ar
     9    24     9    1
    10    26    31    1
    11    22    23    1
    12    22    21    1
    13     9     5    1
    14     9     8    1
    15    20    21    1
    16    20    11    1
    17     1     5    2
    18     1     2    2
    19     5     6    1
    20     8     7    1
    21    11     2    1
    22     2     3    2
    23     7     6    2
    24     6     4    1
    25     3     4    2
    26     4    10    1
    27    10    12    1
    28    12    13    1
    29    13    14    1
    30    15    14    1
    31    15    16    1
    32    14    19    1
    33    16    17    1
    34    19    18    1
    35    17    18    1
