@<TRIPOS>MOLECULE
2vvu_H22_A_1.pdb
 32 35 0 0 0
SMALL
GASTEIGER

@<TRIPOS>ATOM
      1  F3        -3.6650    9.7270   19.7840 F     1244  H221244    -0.2027
      2  C17       -4.8590    9.1110   19.8080 C.ar  1244  H221244     0.1568
      3  C11       -5.0640    8.0370   18.9520 C.ar  1244  H221244     0.0486
      4  C9        -6.2820    7.3840   18.9520 C.ar  1244  H221244     0.0692
      5  N1        -6.4580    6.2980   18.0600 N.ar  1244  H221244    -0.2731
      6  C21       -6.4190    5.0490   18.5120 C.ar  1244  H221244     0.0829
      7  C29       -6.5930    3.9610   17.6670 C.ar  1244  H221244     0.0192
      8  C30       -6.8210    4.0840   16.2350 C.ar  1244  H221244     0.0064
      9  C23       -6.8430    5.4700   15.7930 C.ar  1244  H221244     0.0611
     10  C8        -6.6730    6.5220   16.6760 C.ar  1244  H221244     0.2648
     11  O25       -6.7070    7.7770   16.1690 O.2   1244  H221244    -0.2666
     12  C26       -7.2940    7.8130   19.8190 C.ar  1244  H221244     0.0191
     13  C28       -7.0830    8.8980   20.6870 C.ar  1244  H221244     0.0204
     14  C16       -5.8530    9.5570   20.6690 C.ar  1244  H221244     0.1009
     15  N15       -5.6040   10.6180   21.4830 N.am  1244  H221244    -0.1758
     16  C14       -5.1940   11.7920   20.9740 C.2   1244  H221244     0.2620
     17  O27       -4.9470   11.9650   19.7910 O.2   1244  H221244    -0.2715
     18  C22       -5.0350   12.9760   21.9050 C.3   1244  H221244     0.1606
     19  N4        -4.8940   12.5370   23.2970 N.3   1244  H221244    -0.2634
     20  C20       -3.5670   11.9320   23.5430 C.3   1244  H221244     0.0944
     21  C24       -3.0640   12.4280   24.8970 C.3   1244  H221244     0.1129
     22  C34       -4.1500   13.3730   25.4000 C.3   1244  H221244     0.0404
     23  C31       -5.0300   13.6970   24.1920 C.3   1244  H221244     0.0744
     24  N7        -3.0110   11.2760   25.8000 N.am  1244  H221244    -0.2015
     25  C5        -2.0490   10.3650   25.6450 C.2   1244  H221244     0.2708
     26  O24       -1.2160   10.4720   24.7550 O.2   1244  H221244    -0.2678
     27  C2        -1.9620    9.1790   26.5430 C.ar  1244  H221244     0.0853
     28  C12       -2.7000    8.7280   27.6480 C.ar  1244  H221244     0.0125
     29  C19       -2.2180    7.5250   28.1530 C.ar  1244  H221244     0.0186
     30  S3        -0.6540    8.1350   26.0730 S.2   1244  H221244    -0.0709
     31  C10       -1.1280    7.1240   27.3910 C.ar  1244  H221244     0.0871
     32 CL1        -0.1830    5.5740   27.7080 Cl    1244  H221244    -0.0752
@<TRIPOS>BOND
     1     9     8   ar
     2     9    10   ar
     3    11    10    2
     4     8     7   ar
     5    10     5   ar
     6     7     6   ar
     7     5     6   ar
     8     5     4    1
     9     3     4   ar
    10     3     2   ar
    11     4    12   ar
    12     1     2    1
    13    17    16    2
    14     2    14   ar
    15    12    13   ar
    16    14    13   ar
    17    14    15    1
    18    16    15   am
    19    16    18    1
    20    18    19    1
    21    19    20    1
    22    19    23    1
    23    20    21    1
    24    23    22    1
    25    26    25    2
    26    21    22    1
    27    21    24    1
    28    25    24   am
    29    25    27    1
    30    30    27   ar
    31    30    31   ar
    32    27    28   ar
    33    31    32    1
    34    31    29   ar
    35    28    29   ar
