@<TRIPOS>MOLECULE
2vvv_H21_A_1.pdb
 32 35 0 0 0
SMALL
GASTEIGER

@<TRIPOS>ATOM
      1  F3        -3.6350    9.6440   19.9520 F     1245  H211245    -0.2027
      2  C17       -4.8340    9.0660   19.9590 C.ar  1245  H211245     0.1568
      3  C11       -5.0610    8.0090   19.0820 C.ar  1245  H211245     0.0486
      4  C9        -6.2980    7.3880   19.0840 C.ar  1245  H211245     0.0692
      5  N1        -6.5380    6.2780   18.1860 N.ar  1245  H211245    -0.2731
      6  C21       -6.3240    4.9850   18.5650 C.ar  1245  H211245     0.0829
      7  C29       -6.5390    3.9300   17.7550 C.ar  1245  H211245     0.0192
      8  C30       -7.0150    4.1770   16.4480 C.ar  1245  H211245     0.0064
      9  C23       -7.2450    5.4450   16.0460 C.ar  1245  H211245     0.0611
     10  C8        -7.0110    6.5640   16.8960 C.ar  1245  H211245     0.2648
     11  O25       -7.1930    7.7250   16.5680 O.2   1245  H211245    -0.2666
     12  C26       -7.2850    7.8420   19.9720 C.ar  1245  H211245     0.0191
     13  C28       -7.0540    8.9190   20.8410 C.ar  1245  H211245     0.0204
     14  C16       -5.8040    9.5480   20.8340 C.ar  1245  H211245     0.1009
     15  N15       -5.5050   10.6020   21.6640 N.am  1245  H211245    -0.1754
     16  C14       -5.2140   11.8080   21.1430 C.2   1245  H211245     0.2676
     17  O27       -5.2340   11.9710   19.9400 O.2   1245  H211245    -0.2711
     18  C22       -4.8650   13.0060   22.0170 C.3   1245  H211245     0.2005
     19  N4        -4.8030   12.6490   23.4180 N.pl3 1245  H211245    -0.1894
     20  C20       -5.4830   13.1570   24.4410 C.3   1245  H211245     0.2495
     21  N7        -3.5850   10.7420   26.0210 N.am  1245  H211245    -0.1048
     22  C5        -2.3420   10.1530   25.8370 C.2   1245  H211245     0.2841
     23  O24       -1.6140   10.3940   24.8920 O.2   1245  H211245    -0.2668
     24  C2        -2.0660    9.0860   26.7980 C.ar  1245  H211245     0.0863
     25  C12       -2.7130    8.7270   27.9430 C.ar  1245  H211245     0.0125
     26  C19       -2.1780    7.5590   28.5160 C.ar  1245  H211245     0.0186
     27  S3        -0.8190    8.0040   26.3740 S.2   1245  H211245    -0.0709
     28  C10       -1.1780    7.0690   27.7600 C.ar  1245  H211245     0.0871
     29 CL1        -0.2510    5.6570   27.9990 Cl    1245  H211245    -0.0752
     30  N2        -5.1480   12.5460   25.5690 N.2   1245  H211245    -0.1811
     31  N5        -3.9760   11.6780   23.8560 N.2   1245  H211245    -0.1095
     32  C1        -4.2040   11.7120   25.1430 C.1   1245  H211245     0.1309
@<TRIPOS>BOND
     1     9     8   ar
     2     9    10   ar
     3     8     7   ar
     4    11    10    2
     5    10     5   ar
     6     7     6   ar
     7     5     6   ar
     8     5     4    1
     9     3     4   ar
    10     3     2   ar
    11     4    12   ar
    12    17    16    2
    13     1     2    1
    14     2    14   ar
    15    12    13   ar
    16    14    13   ar
    17    14    15    1
    18    16    15   am
    19    16    18    1
    20    18    19    1
    21    19    31    1
    22    19    20    1
    23    31    32    2
    24    20    30    1
    25    23    22    2
    26    32    30    2
    27    32    21    1
    28    22    21   am
    29    22    24    1
    30    27    24   ar
    31    27    28   ar
    32    24    25   ar
    33    28    29    1
    34    28    26   ar
    35    25    26   ar
