@<TRIPOS>MOLECULE
2vvz_DAN_A_1.pdb
 20 20 0 0 0
SMALL
GASTEIGER

@<TRIPOS>ATOM
      1  C1        30.6800   29.6720   61.6110 C.2   1792  DAN1792     0.4208
      2  C2        30.0750   29.9880   62.9070 C.2   1792  DAN1792     0.2163
      3  C3        29.5690   31.2140   63.1470 C.2   1792  DAN1792     0.0518
      4  C4        28.9040   31.5870   64.4610 C.3   1792  DAN1792     0.2007
      5  C5        29.2130   30.5370   65.5220 C.3   1792  DAN1792     0.1722
      6  C6        29.0410   29.1380   64.9290 C.3   1792  DAN1792     0.2215
      7  C7        29.2590   28.0450   65.9570 C.3   1792  DAN1792     0.2261
      8  C8        29.3160   26.6560   65.3260 C.3   1792  DAN1792     0.2185
      9  C9        29.6520   25.5950   66.3790 C.3   1792  DAN1792     0.2175
     10  C10       28.8810   30.7790   67.9400 C.2   1792  DAN1792     0.2420
     11  C11       27.9430   31.2520   69.0080 C.3   1792  DAN1792     0.0964
     12  N5        28.3910   30.7540   66.7000 N.am  1792  DAN1792    -0.2004
     13  O1A       31.1360   30.5770   60.8760 O.co2 1792  DAN1792    -0.2371
     14  O1B       30.7270   28.4840   61.2060 O.co2 1792  DAN1792    -0.2371
     15  O4        29.3250   32.8840   64.8990 O.3   1792  DAN1792    -0.2162
     16  O6        30.0280   28.9450   63.9190 O.2   1792  DAN1792    -0.4684
     17  O7        30.4970   28.3300   66.6120 O.3   1792  DAN1792    -0.2164
     18  O8        28.0510   26.3790   64.7130 O.3   1792  DAN1792    -0.2174
     19  O9        29.3940   24.2700   65.8930 O.3   1792  DAN1792    -0.2175
     20  O10       30.0210   30.4320   68.2010 O.2   1792  DAN1792    -0.2733
@<TRIPOS>BOND
     1    13     1   ar
     2    14     1   ar
     3     1     2    1
     4     2     3    2
     5     2    16    1
     6     3     4    1
     7    16     6    1
     8     4    15    1
     9     4     5    1
    10    18     8    1
    11     6     5    1
    12     6     7    1
    13     8     7    1
    14     8     9    1
    15     5    12    1
    16    19     9    1
    17     7    17    1
    18    12    10   am
    19    10    20    2
    20    10    11    1
