@<TRIPOS>MOLECULE
2vw1_DAN_A_1.pdb
 20 20 0 0 0
SMALL
GASTEIGER

@<TRIPOS>ATOM
      1  C1        -2.6680   76.6760   25.8690 C.2   1000  DAN1000     0.4208
      2  C2        -3.3480   76.2080   24.6490 C.2   1000  DAN1000     0.2163
      3  C3        -3.1630   74.9980   24.0900 C.2   1000  DAN1000     0.0518
      4  C4        -3.9370   74.5240   22.8550 C.3   1000  DAN1000     0.2007
      5  C5        -4.5840   75.6720   22.0670 C.3   1000  DAN1000     0.1722
      6  C6        -5.2300   76.5990   23.1100 C.3   1000  DAN1000     0.2215
      7  C7        -5.9240   77.7760   22.4460 C.3   1000  DAN1000     0.2261
      8  C8        -6.6560   78.7280   23.3820 C.3   1000  DAN1000     0.2185
      9  C9        -5.7540   79.6220   24.2410 C.3   1000  DAN1000     0.2175
     10  C10       -5.8020   75.4990   19.8620 C.2   1000  DAN1000     0.2420
     11  C11       -6.9000   74.7770   19.1420 C.3   1000  DAN1000     0.0964
     12  N5        -5.6270   75.1730   21.1630 N.am  1000  DAN1000    -0.2004
     13  O1A       -1.5250   76.3200   26.2450 O.co2 1000  DAN1000    -0.2371
     14  O1B       -3.2970   77.4700   26.5940 O.co2 1000  DAN1000    -0.2371
     15  O4        -3.2240   73.5030   22.1000 O.3   1000  DAN1000    -0.2162
     16  O6        -4.2860   77.1370   24.0450 O.2   1000  DAN1000    -0.4684
     17  O7        -4.9740   78.4940   21.6520 O.3   1000  DAN1000    -0.2164
     18  O8        -7.4400   79.5680   22.5180 O.3   1000  DAN1000    -0.2174
     19  O9        -5.4890   79.0790   25.5420 O.3   1000  DAN1000    -0.2175
     20  O10       -5.1240   76.3000   19.2340 O.2   1000  DAN1000    -0.2733
@<TRIPOS>BOND
     1    11    10    1
     2    20    10    2
     3    10    12   am
     4    12     5    1
     5    17     7    1
     6     5     4    1
     7     5     6    1
     8    15     4    1
     9     7     6    1
    10     7     8    1
    11    18     8    1
    12     4     3    1
    13     6    16    1
    14     8     9    1
    15    16     2    1
    16     3     2    2
    17     9    19    1
    18     2     1    1
    19     1    13   ar
    20     1    14   ar
