@<TRIPOS>MOLECULE
2vw2_NHE_A_1.pdb
 13 13 0 0 0
SMALL
GASTEIGER

@<TRIPOS>ATOM
      1  C3'       -7.8310   77.2760   20.2640 C.3   1000  NHE1000     0.0014
      2  C2'       -6.9230   77.0130   21.4710 C.3   1000  NHE1000     0.0174
      3  C1'       -5.6320   76.2430   21.1580 C.3   1000  NHE1000     0.0728
      4  C6'       -5.8500   74.9930   20.2930 C.3   1000  NHE1000     0.0174
      5  N         -4.8970   75.8610   22.3610 N.3   1000  NHE1000    -0.2177
      6  C1        -4.5790   76.7680   23.4500 C.3   1000  NHE1000     0.1101
      7  C2        -3.2820   76.3610   24.1420 C.3   1000  NHE1000     0.1240
      8  S         -2.7870   77.4830   25.2760 S.3   1000  NHE1000    -0.1946
      9  O1        -3.8400   77.7170   26.2940 O.3   1000  NHE1000    -0.3074
     10  O2        -2.4810   78.7650   24.6090 O.3   1000  NHE1000    -0.3074
     11  O3        -1.5650   76.9580   25.9240 O.3   1000  NHE1000    -0.3074
     12  C5'       -7.0830   75.0150   19.3840 C.3   1000  NHE1000     0.0014
     13  C4'       -7.5240   76.4300   19.0280 C.3   1000  NHE1000     0.0001
@<TRIPOS>BOND
     1    13    12    1
     2    13     1    1
     3    12     4    1
     4     1     2    1
     5     4     3    1
     6     3     2    1
     7     3     5    1
     8     5     6    1
     9     6     7    1
    10     7     8    1
    11    10     8    1
    12     8    11    1
    13     8     9    1
