@<TRIPOS>MOLECULE
2vw5_BC6_A_1.pdb
 36 37 0 0 0
SMALL
GASTEIGER

@<TRIPOS>ATOM
      1  O37       40.9960   -5.2790   41.7570 O.2   500  BC6500     -0.2096
      2  C21       41.0020   -5.7550   40.6250 C.1   500  BC6500      0.1999
      3  C20       41.4180   -7.1450   40.5150 C.2   500  BC6500      0.0685
      4  C36       42.7470   -7.5080   41.1090 C.3   500  BC6500      0.0444
      5  C19       40.5640   -8.0530   39.9520 C.2   500  BC6500     -0.0178
      6  C18       40.7860   -9.5190   39.7600 C.3   500  BC6500      0.0266
      7  C17       40.0280   -9.9160   38.4900 C.3   500  BC6500      0.0086
      8  C16       38.5180  -10.0610   38.6600 C.3   500  BC6500      0.0446
      9  C35       38.1500  -11.0510   39.7780 C.3   500  BC6500      0.0041
     10  N22       40.6430   -4.9780   39.5910 N.2   500  BC6500     -0.3371
     11  C3        40.8770   -5.2320   38.2610 C.2   500  BC6500      0.1292
     12  C4        39.8760   -4.9220   37.3560 C.2   500  BC6500      0.0708
     13  C5        40.0430   -5.1480   35.9880 C.2   500  BC6500      0.1974
     14  O36       38.9920   -4.8630   35.1630 O.2   500  BC6500     -0.2865
     15  C6        41.2240   -5.7010   35.4980 C.2   500  BC6500      0.0340
     16  C1        42.2460   -6.0330   36.4130 C.2   500  BC6500     -0.0340
     17  C2        42.0690   -5.7740   37.7770 C.3   500  BC6500      0.0822
     18  C7        43.5440   -6.6740   35.9660 C.3   500  BC6500      0.0226
     19  C8        43.4590   -8.2170   35.8600 C.3   500  BC6500      0.0065
     20  C25       43.2910   -8.9200   37.2190 C.3   500  BC6500      0.0004
     21  C9        42.3660   -8.6630   34.8460 C.3   500  BC6500      0.0325
     22  C10       42.1310  -10.1630   34.7050 C.3   500  BC6500      0.1458
     23  O26       43.3610  -10.8360   34.3610 O.3   500  BC6500     -0.3510
     24  C27       43.3820  -12.2070   34.6920 C.3   500  BC6500      0.1741
     25  C11       41.0990  -10.4920   33.6260 C.3   500  BC6500      0.1828
     26  O28       41.6470   -9.9950   32.3850 O.3   500  BC6500     -0.2202
     27  C12       39.7420   -9.8420   33.9210 C.3   500  BC6500      0.0544
     28  C29       38.7820  -10.2650   32.8140 C.3   500  BC6500      0.0074
     29  C13       39.1360  -10.3870   35.2100 C.2   500  BC6500     -0.0289
     30  C14       38.3980   -9.7100   36.1370 C.2   500  BC6500     -0.0087
     31  C30       38.0460   -8.2490   36.0160 C.3   500  BC6500      0.0296
     32  C15       37.8750  -10.4970   37.3180 C.3   500  BC6500      0.1885
     33  O31       36.4860  -10.2250   37.4330 O.3   500  BC6500     -0.4320
     34  C32       35.5900  -11.0430   36.6650 C.2   500  BC6500      0.4413
     35  O33       36.0620  -11.8940   35.9290 O.2   500  BC6500     -0.2227
     36  N34       34.3080  -10.7740   36.8570 N.am  500  BC6500     -0.0475
@<TRIPOS>BOND
     1    26    25    1
     2    28    27    1
     3    25    27    1
     4    25    22    1
     5    27    29    1
     6    23    24    1
     7    23    22    1
     8    22    21    1
     9    21    19    1
    10    14    13    1
    11    29    30    2
    12    15    13    1
    13    15    16    2
    14    19    18    1
    15    19    20    1
    16    35    34    2
    17    18    16    1
    18    13    12    2
    19    31    30    1
    20    30    32    1
    21    16    17    1
    22    34    36   am
    23    34    33    1
    24    32    33    1
    25    32     8    1
    26    12    11    1
    27    17    11    1
    28    11    10    2
    29     7     8    1
    30     7     6    1
    31     8     9    1
    32    10     2    2
    33     6     5    1
    34     5     3    2
    35     3     2    1
    36     3     4    1
    37     2     1    2
