@<TRIPOS>MOLECULE
2vwa_PTY_A_1.pdb
 50 49 0 0 0
SMALL
GASTEIGER

@<TRIPOS>ATOM
      1  C1        68.3790   -9.0760   39.1820 C.3   1230  PTY1230     0.2543
      2  C2        73.7480   -9.4700   36.0790 C.3   1230  PTY1230     0.1417
      3  C3        72.6740   -9.1660   35.0370 C.3   1230  PTY1230     0.1696
      4  O4        67.1500   -8.7720   39.8410 O.3   1230  PTY1230    -0.4444
      5  C5        70.2270   -8.0450   37.8760 C.3   1230  PTY1230     0.1964
      6  C6        68.7510   -7.9270   38.2520 C.3   1230  PTY1230     0.2420
      7  O7        68.4970   -6.6760   38.9020 O.3   1230  PTY1230    -0.4457
      8  C8        67.9200   -5.6390   38.0410 C.2   1230  PTY1230     0.3171
      9  O10       68.3870   -5.4420   36.9300 O.2   1230  PTY1230    -0.2501
     10  C11       66.7570   -4.7920   38.5180 C.3   1230  PTY1230     0.1096
     11  C12       67.1330   -4.0780   39.8160 C.3   1230  PTY1230     0.0116
     12  C13       66.2440   -2.8740   40.1210 C.3   1230  PTY1230     0.0006
     13  C14       64.8720   -3.2780   40.6520 C.3   1230  PTY1230     0.0000
     14  C15       64.7670   -3.1140   42.1670 C.3   1230  PTY1230     0.0000
     15  C16       63.6000   -3.9190   42.7370 C.3   1230  PTY1230     0.0000
     16  C17       62.3130   -3.0970   42.6930 C.3   1230  PTY1230     0.0000
     17  C18       61.1080   -3.8800   43.2000 C.3   1230  PTY1230     0.0000
     18  C19       59.9720   -2.9330   43.5700 C.3   1230  PTY1230     0.0000
     19  C20       58.8080   -3.0500   42.5880 C.3   1230  PTY1230     0.0000
     20  C21       58.6620   -1.8110   41.7100 C.3   1230  PTY1230     0.0000
     21  C22       57.8920   -0.7000   42.4220 C.3   1230  PTY1230     0.0000
     22  C23       56.4880   -0.5060   41.8560 C.3   1230  PTY1230     0.0000
     23  C24       56.4170    0.6760   40.8890 C.3   1230  PTY1230     0.0000
     24  C25       55.2340    0.4820   39.9460 C.3   1230  PTY1230     0.0000
     25  C26       55.2600    1.4210   38.7440 C.3   1230  PTY1230     0.0000
     26  C27       53.8900    1.3970   38.0830 C.3   1230  PTY1230     0.0000
     27  C28       53.5550    2.6760   37.3290 C.3   1230  PTY1230     0.0000
     28  C29       52.3320    2.4410   36.4640 C.3   1230  PTY1230     0.0000
     29  C30       67.0770   -8.6830   41.2940 C.2   1230  PTY1230     0.3171
     30  C31       67.6360   -7.4790   42.0240 C.3   1230  PTY1230     0.1096
     31  O30       66.5550   -9.5980   41.9090 O.2   1230  PTY1230    -0.2501
     32  C32       66.5130   -6.6240   42.6040 C.3   1230  PTY1230     0.0116
     33  C33       67.0510   -5.6870   43.6830 C.3   1230  PTY1230     0.0006
     34  C34       66.1750   -5.7040   44.9360 C.3   1230  PTY1230     0.0000
     35  C35       66.4740   -4.4940   45.8220 C.3   1230  PTY1230     0.0000
     36  C36       66.6210   -4.9110   47.2840 C.3   1230  PTY1230     0.0000
     37  C37       65.4430   -4.4280   48.1230 C.3   1230  PTY1230     0.0000
     38  C38       65.1460   -5.4000   49.2610 C.3   1230  PTY1230     0.0000
     39  C39       63.8130   -6.1190   49.0580 C.3   1230  PTY1230     0.0000
     40  C40       62.8120   -5.7700   50.1620 C.3   1230  PTY1230     0.0000
     41  C41       61.3730   -6.0130   49.7110 C.3   1230  PTY1230     0.0000
     42  C42       60.5820   -4.7080   49.6290 C.3   1230  PTY1230     0.0000
     43  C43       59.0960   -4.9430   49.8910 C.3   1230  PTY1230     0.0000
     44  C44       58.2360   -4.2500   48.8510 C.3   1230  PTY1230     0.0000
     45  P1        70.3380   -9.9970   36.0470 P.3   1230  PTY1230     0.2141
     46  O11       71.6370  -10.1520   35.0940 O.3   1230  PTY1230    -0.3125
     47  O12       69.1080  -10.2240   35.1970 O.2   1230  PTY1230    -0.5172
     48  O13       70.5490  -10.8620   37.2710 O.3   1230  PTY1230    -0.4373
     49  O14       70.3560   -8.4410   36.5070 O.3   1230  PTY1230    -0.3100
     50  N1        74.9610   -9.8960   35.4080 N.3   1230  PTY1230    -0.1286
@<TRIPOS>BOND
     1     3    46    1
     2     3     2    1
     3    46    45    1
     4    47    45    2
     5    50     2    1
     6    45    49    1
     7    45    48    1
     8    28    27    1
     9    49     5    1
    10     9     8    2
    11    27    26    1
    12     5     6    1
    13     8    10    1
    14     8     7    1
    15    26    25    1
    16     6     7    1
    17     6     1    1
    18    10    11    1
    19    25    24    1
    20     1     4    1
    21    11    12    1
    22     4    29    1
    23    24    23    1
    24    12    13    1
    25    13    14    1
    26    23    22    1
    27    29    31    2
    28    29    30    1
    29    20    21    1
    30    20    19    1
    31    22    21    1
    32    30    32    1
    33    14    15    1
    34    19    18    1
    35    32    33    1
    36    16    15    1
    37    16    17    1
    38    17    18    1
    39    33    34    1
    40    34    35    1
    41    35    36    1
    42    36    37    1
    43    37    38    1
    44    44    43    1
    45    39    38    1
    46    39    40    1
    47    42    41    1
    48    42    43    1
    49    41    40    1
