@<TRIPOS>MOLECULE
2vwb_ANP_A_1.pdb
 31 33 0 0 0
SMALL
GASTEIGER

@<TRIPOS>ATOM
      1  PG       -21.0960   62.3290   -1.6040 P.3   1531  ANP1531     0.4884
      2  O1G      -21.4750   63.3250   -2.6670 O.2   1531  ANP1531    -0.2331
      3  O2G      -22.2180   62.0000   -0.6220 O.3   1531  ANP1531    -0.1240
      4  O3G      -20.4000   61.1670   -2.2840 O.3   1531  ANP1531    -0.1240
      5  PB       -19.4210   62.4150    0.9840 P.3   1531  ANP1531     0.4669
      6  O1B      -18.7700   63.5020    1.8100 O.3   1531  ANP1531    -0.1253
      7  O2B      -20.6100   61.6700    1.5680 O.2   1531  ANP1531    -0.2351
      8  N3B      -19.8660   63.0790   -0.5850 N.3   1531  ANP1531    -0.0163
      9  PA       -17.2450   61.5030   -0.5570 P.3   1531  ANP1531     0.2220
     10  O1A      -16.4330   62.7550   -0.3530 O.3   1531  ANP1531    -0.4370
     11  O2A      -17.9450   61.2930   -1.8840 O.2   1531  ANP1531    -0.5170
     12  O3A      -18.2680   61.3350    0.6840 O.3   1531  ANP1531    -0.2360
     13  O5'      -16.2660   60.2740   -0.2470 O.3   1531  ANP1531    -0.3111
     14  C5'      -15.7820   60.1470    1.0810 C.3   1531  ANP1531     0.1813
     15  C4'      -16.1310   58.7800    1.6360 C.3   1531  ANP1531     0.1821
     16  O4'      -15.5060   57.8020    0.8080 O.3   1531  ANP1531    -0.3135
     17  C3'      -15.5830   58.6260    3.0450 C.3   1531  ANP1531     0.2184
     18  O3'      -16.5930   58.0880    3.9090 O.3   1531  ANP1531    -0.2174
     19  C2'      -14.4140   57.6700    2.8740 C.3   1531  ANP1531     0.2570
     20  O2'      -14.2420   56.8120    4.0110 O.3   1531  ANP1531    -0.2130
     21  C1'      -14.7410   56.8960    1.5970 C.3   1531  ANP1531     0.3186
     22  N9       -13.5030   56.4060    0.9130 N.pl3 1531  ANP1531    -0.1439
     23  C8       -12.5500   57.1680    0.3370 C.3   1531  ANP1531     0.3377
     24  N7       -11.5400   56.4130   -0.1830 N.2   1531  ANP1531    -0.2095
     25  C5       -11.8450   55.1320    0.0660 C.2   1531  ANP1531     0.2526
     26  C6       -11.2100   53.8250   -0.2070 C.2   1531  ANP1531     0.4393
     27  N6       -10.0310   53.7770   -0.8620 N.pl3 1531  ANP1531     0.2180
     28  N1       -11.8430   52.6990    0.2140 N.2   1531  ANP1531     0.0021
     29  C2       -13.0270   52.7700    0.8570 C.3   1531  ANP1531     0.5254
     30  N3       -13.6540   53.9310    1.1340 N.2   1531  ANP1531    -0.0055
     31  C4       -13.1300   55.1270    0.7800 C.2   1531  ANP1531     0.3518
@<TRIPOS>BOND
     1     2     1    2
     2     4     1    1
     3    11     9    2
     4     1     3    1
     5     1     8    1
     6    27    26    1
     7     8     5    1
     8     9    10    1
     9     9    13    1
    10     9    12    1
    11    13    14    1
    12    26    25    1
    13    26    28    2
    14    24    25    2
    15    24    23    1
    16    25    31    1
    17    28    29    1
    18    23    22    1
    19    12     5    1
    20    31    22    1
    21    31    30    2
    22    16    21    1
    23    16    15    1
    24    29    30    1
    25    22    21    1
    26     5     7    2
    27     5     6    1
    28    14    15    1
    29    21    19    1
    30    15    17    1
    31    19    17    1
    32    19    20    1
    33    17    18    1
