@<TRIPOS>MOLECULE
2vwc_BC2_A_1.pdb
 40 41 0 0 0
SMALL
GASTEIGER

@<TRIPOS>ATOM
      1  O23      -26.4460   34.5140   -3.4630 O.2   1215  BC21215    -0.2844
      2  C2       -25.8930   33.6480   -4.1770 C.2   1215  BC21215     0.2205
      3  C3       -25.3910   32.3660   -3.5240 C.2   1215  BC21215     0.1680
      4  C4       -24.8060   31.4320   -4.2890 C.3   1215  BC21215     0.1323
      5  C5       -24.6140   31.6580   -5.7960 C.2   1215  BC21215     0.1802
      6  O24      -24.0520   30.7790   -6.5010 O.2   1215  BC21215    -0.2909
      7  C6       -25.1020   32.9530   -6.4350 C.2   1215  BC21215     0.0392
      8  N22      -25.5610   32.1590   -2.1900 N.2   1215  BC21215    -0.3338
      9  C21      -25.0550   32.9260   -1.1950 C.1   1215  BC21215     0.2003
     10  O37      -25.2220   32.5990   -0.0230 O.2   1215  BC21215    -0.2096
     11  C20      -24.3100   34.1790   -1.4180 C.2   1215  BC21215     0.0728
     12  C36      -24.8420   35.4350   -0.7710 C.3   1215  BC21215     0.0447
     13  C19      -23.1680   34.1910   -2.1360 C.2   1215  BC21215     0.0080
     14  C18      -22.3940   35.4120   -2.4070 C.2   1215  BC21215    -0.0040
     15  C17      -21.0990   35.4660   -2.7310 C.2   1215  BC21215    -0.0225
     16  C16      -20.3170   34.1840   -2.7450 C.3   1215  BC21215     0.0662
     17  C35      -19.2660   34.1480   -1.6300 C.3   1215  BC21215     0.0088
     18  C1       -25.6990   33.8940   -5.6720 C.2   1215  BC21215     0.0486
     19  C7       -26.1810   35.1780   -6.2560 C.3   1215  BC21215     0.1407
     20  O38      -26.5670   34.9870   -7.6270 O.3   1215  BC21215    -0.3491
     21  C39      -27.9240   34.5370   -7.7490 C.3   1215  BC21215     0.1745
     22  C8       -25.1260   36.2950   -6.2000 C.3   1215  BC21215     0.0341
     23  C25      -24.5550   36.6200   -4.8160 C.3   1215  BC21215     0.0029
     24  C9       -24.0760   36.1920   -7.3110 C.3   1215  BC21215     0.0348
     25  C10      -22.6890   36.7020   -6.9670 C.3   1215  BC21215     0.1427
     26  O26      -22.8600   38.1010   -7.2780 O.3   1215  BC21215    -0.3511
     27  C27      -21.8710   39.0060   -6.7710 C.3   1215  BC21215     0.1741
     28  C11      -21.6100   36.3260   -7.9610 C.3   1215  BC21215     0.1462
     29  O28      -22.2180   36.1120   -9.2320 O.3   1215  BC21215    -0.3508
     30  C40      -21.7340   37.0370  -10.2280 C.3   1215  BC21215     0.1741
     31  C12      -20.9250   34.9900   -7.5790 C.3   1215  BC21215     0.0511
     32  C29      -19.8700   34.5870   -8.6070 C.3   1215  BC21215     0.0073
     33  C13      -20.2230   34.9200   -6.2300 C.2   1215  BC21215    -0.0290
     34  C14      -20.4220   33.8670   -5.4070 C.2   1215  BC21215    -0.0084
     35  C30      -21.3380   32.7340   -5.7820 C.3   1215  BC21215     0.0296
     36  C15      -19.7430   33.6930   -4.0860 C.3   1215  BC21215     0.1925
     37  O31      -18.7630   32.6480   -3.9900 O.3   1215  BC21215    -0.4316
     38  C32      -17.5420   32.6660   -4.7780 C.2   1215  BC21215     0.4413
     39  O33      -16.8250   31.6780   -4.6510 O.2   1215  BC21215    -0.2227
     40  N34      -17.2090   33.6770   -5.5730 N.am  1215  BC21215    -0.0475
@<TRIPOS>BOND
     1    30    29    1
     2    29    28    1
     3    32    31    1
     4    28    31    1
     5    28    25    1
     6    21    20    1
     7    20    19    1
     8    31    33    1
     9    24    25    1
    10    24    22    1
    11    26    25    1
    12    26    27    1
    13     6     5    2
    14     7     5    1
    15     7    18    2
    16    19    22    1
    17    19    18    1
    18    33    34    2
    19    22    23    1
    20     5     4    1
    21    35    34    1
    22    18     2    1
    23    40    38   am
    24    34    36    1
    25    38    39    2
    26    38    37    1
    27     4     3    1
    28     2     3    1
    29     2     1    2
    30    36    37    1
    31    36    16    1
    32     3     8    2
    33    16    15    1
    34    16    17    1
    35    15    14    2
    36    14    13    1
    37     8     9    2
    38    13    11    2
    39    11     9    1
    40    11    12    1
    41     9    10    2
