@<TRIPOS>MOLECULE
2vwg_LGC_A_1.pdb
 12 12 0 0 0
SMALL
GASTEIGER

@<TRIPOS>ATOM
      1  C1         8.3230   35.7910   19.0330 C.2   600  LGC600      0.3505
      2  C2         8.6880   37.2220   19.1900 C.3   600  LGC600      0.2823
      3  O5         8.8470   34.9950   17.9890 O.3   600  LGC600     -0.4450
      4  O1         7.5550   35.2740   19.8350 O.2   600  LGC600     -0.2472
      5  O2         7.5590   37.9490   19.6070 O.3   600  LGC600     -0.2082
      6  C3         9.2630   37.8540   17.9340 C.3   600  LGC600      0.2270
      7  O3         9.9770   39.0170   18.2930 O.3   600  LGC600     -0.2169
      8  C4        10.2030   36.9050   17.2060 C.3   600  LGC600      0.2276
      9  O4        10.6410   37.5530   16.0360 O.3   600  LGC600     -0.2163
     10  C5         9.4540   35.6140   16.8650 C.3   600  LGC600      0.2344
     11  C6        10.3680   34.6010   16.1720 C.3   600  LGC600      0.2281
     12  O6        11.3960   34.2170   17.0520 O.3   600  LGC600     -0.2163
@<TRIPOS>BOND
     1     9     8    1
     2    11    10    1
     3    11    12    1
     4    10     8    1
     5    10     3    1
     6     8     6    1
     7     6     7    1
     8     6     2    1
     9     3     1    1
    10     1     2    1
    11     1     4    2
    12     2     5    1
