@<TRIPOS>MOLECULE
2vwg_NAP_A_1.pdb
 48 52 0 0 0
SMALL
GASTEIGER

@<TRIPOS>ATOM
      1  PA         0.2560   29.1670   22.4140 P.3   500  NAP500      0.2189
      2  O1A        0.0030   29.7730   23.7380 O.3   500  NAP500     -0.4371
      3  O2A        0.8980   27.8650   22.3230 O.2   500  NAP500     -0.5170
      4  O5B       -1.1510   29.1640   21.6520 O.3   500  NAP500     -0.3112
      5  C5B       -1.3580   28.2930   20.5770 C.3   500  NAP500      0.1813
      6  C4B       -2.8040   27.8510   20.6520 C.3   500  NAP500      0.1820
      7  O4B       -3.1800   27.2470   19.4410 O.3   500  NAP500     -0.3136
      8  C3B       -3.0330   26.8460   21.7860 C.3   500  NAP500      0.2157
      9  O3B       -3.9560   27.3640   22.7180 O.3   500  NAP500     -0.2175
     10  C2B       -3.5590   25.6300   21.0580 C.3   500  NAP500      0.2314
     11  O2B       -4.5900   24.9960   21.7510 O.3   500  NAP500     -0.2630
     12  C1B       -4.0620   26.1980   19.7280 C.3   500  NAP500      0.3158
     13  N9A       -4.0630   25.1630   18.6890 N.pl3 500  NAP500     -0.1439
     14  C8A       -2.9940   24.4480   18.2130 C.3   500  NAP500      0.3377
     15  N7A       -3.4390   23.5970   17.2640 N.2   500  NAP500     -0.2095
     16  C5A       -4.7690   23.7570   17.1380 C.2   500  NAP500      0.2526
     17  C6A       -5.7160   23.1450   16.3340 C.2   500  NAP500      0.4393
     18  N6A       -5.3680   22.2010   15.4750 N.pl3 500  NAP500      0.2180
     19  N1A       -7.0290   23.5310   16.4370 N.2   500  NAP500      0.0021
     20  C2A       -7.4070   24.5280   17.3150 C.3   500  NAP500      0.5254
     21  N3A       -6.4630   25.1320   18.1160 N.2   500  NAP500     -0.0055
     22  C4A       -5.1720   24.7470   18.0240 C.2   500  NAP500      0.3518
     23  O3         1.1370   30.2030   21.5540 O.3   500  NAP500     -0.2703
     24  PN         1.0560   31.8000   21.4790 P.3   500  NAP500      0.2189
     25  O1N       -0.3540   32.2820   21.5090 O.2   500  NAP500     -0.5170
     26  O2N        2.0430   32.4030   22.4140 O.3   500  NAP500     -0.4371
     27  O5D        1.6070   31.9350   19.9730 O.3   500  NAP500     -0.3112
     28  C5D        0.9130   31.3110   18.9160 C.3   500  NAP500      0.1813
     29  C4D        1.8570   30.9950   17.7700 C.3   500  NAP500      0.1799
     30  O4D        2.3890   32.2070   17.2520 O.3   500  NAP500     -0.3327
     31  C3D        3.0570   30.1460   18.1750 C.3   500  NAP500      0.2158
     32  O3D        3.3760   29.3010   17.0930 O.3   500  NAP500     -0.2175
     33  C2D        4.1460   31.1700   18.3750 C.3   500  NAP500      0.2309
     34  O2D        5.4230   30.6340   18.2290 O.3   500  NAP500     -0.2158
     35  C1D        3.8030   32.1570   17.2650 C.3   500  NAP500      0.2263
     36  N1N        4.3170   33.5210   17.4430 N.pl3 500  NAP500     -0.2787
     37  C2N        4.8970   34.1100   16.3560 C.3   500  NAP500      0.1244
     38  C3N        5.3590   35.4030   16.4340 C.2   500  NAP500      0.0544
     39  C7N        5.7890   36.0770   15.1670 C.2   500  NAP500      0.2818
     40  O7N        6.6710   37.1330   15.2880 O.2   500  NAP500     -0.2670
     41  N7N        5.3580   35.6170   13.9880 N.am  500  NAP500     -0.0839
     42  C4N        5.2670   36.1020   17.6250 C.2   500  NAP500      0.0033
     43  C5N        4.6590   35.4880   18.7200 C.2   500  NAP500      0.0157
     44  C6N        4.1850   34.1900   18.6170 C.2   500  NAP500      0.0633
     45  P2B       -4.3130   23.8190   22.8290 P.3   500  NAP500      0.5328
     46  O1X       -3.7620   24.4620   24.0470 O.3   500  NAP500     -0.1145
     47  O2X       -3.3740   22.7950   22.2890 O.2   500  NAP500     -0.2224
     48  O3X       -5.6950   23.2710   23.0960 O.3   500  NAP500     -0.1145
@<TRIPOS>BOND
     1    41    39   am
     2    39    40    2
     3    39    38    1
     4    18    17    1
     5    17    19    2
     6    17    16    1
     7    37    38    1
     8    37    36    1
     9    38    42    2
    10    19    20    1
    11    32    31    1
    12    16    15    2
    13    16    22    1
    14    30    35    1
    15    30    29    1
    16    15    14    1
    17    35    36    1
    18    35    33    1
    19    20    21    1
    20    36    44    1
    21    42    43    1
    22    29    31    1
    23    29    28    1
    24    22    21    2
    25    22    13    1
    26    31    33    1
    27    14    13    1
    28    34    33    1
    29    44    43    2
    30    13    12    1
    31    28    27    1
    32     7    12    1
    33     7     6    1
    34    12    10    1
    35    27    24    1
    36     5     6    1
    37     5     4    1
    38     6     8    1
    39    10    11    1
    40    10     8    1
    41    24    25    2
    42    24    23    1
    43    24    26    1
    44    23     1    1
    45     4     1    1
    46    11    45    1
    47     8     9    1
    48    47    45    2
    49     3     1    2
    50     1     2    1
    51    45    48    1
    52    45    46    1
