@<TRIPOS>MOLECULE
2vwh_NAP_A_1.pdb
 48 52 0 0 0
SMALL
GASTEIGER

@<TRIPOS>ATOM
      1  PA         0.3100   29.3650   22.3220 P.3   500  NAP500      0.2189
      2  O1A        0.1080   29.7990   23.7160 O.3   500  NAP500     -0.4371
      3  O2A        0.9830   28.0890   22.1320 O.2   500  NAP500     -0.5170
      4  O5B       -1.1120   29.3690   21.5960 O.3   500  NAP500     -0.3112
      5  C5B       -1.3570   28.5300   20.4930 C.3   500  NAP500      0.1813
      6  C4B       -2.7910   28.0580   20.6200 C.3   500  NAP500      0.1820
      7  O4B       -3.1890   27.4430   19.4230 O.3   500  NAP500     -0.3136
      8  C3B       -2.9470   27.0370   21.7530 C.3   500  NAP500      0.2157
      9  O3B       -3.8060   27.5550   22.7420 O.3   500  NAP500     -0.2175
     10  C2B       -3.5180   25.8200   21.0590 C.3   500  NAP500      0.2314
     11  O2B       -4.5570   25.2290   21.7870 O.3   500  NAP500     -0.2630
     12  C1B       -4.0490   26.3830   19.7460 C.3   500  NAP500      0.3158
     13  N9A       -4.0860   25.3340   18.7210 N.pl3 500  NAP500     -0.1439
     14  C8A       -3.0310   24.5710   18.2640 C.3   500  NAP500      0.3377
     15  N7A       -3.4990   23.7170   17.3320 N.2   500  NAP500     -0.2095
     16  C5A       -4.8370   23.9100   17.2070 C.2   500  NAP500      0.2526
     17  C6A       -5.7940   23.3040   16.4060 C.2   500  NAP500      0.4393
     18  N6A       -5.4440   22.3280   15.5680 N.pl3 500  NAP500      0.2180
     19  N1A       -7.1050   23.7210   16.4900 N.2   500  NAP500      0.0021
     20  C2A       -7.4550   24.7460   17.3470 C.3   500  NAP500      0.5254
     21  N3A       -6.5040   25.3470   18.1420 N.2   500  NAP500     -0.0055
     22  C4A       -5.2150   24.9300   18.0670 C.2   500  NAP500      0.3518
     23  O3         1.1580   30.4980   21.5590 O.3   500  NAP500     -0.2703
     24  PN         1.0080   32.1030   21.5310 P.3   500  NAP500      0.2189
     25  O1N       -0.4200   32.5000   21.5470 O.2   500  NAP500     -0.5170
     26  O2N        1.9570   32.7160   22.4930 O.3   500  NAP500     -0.4371
     27  O5D        1.5710   32.3330   20.0360 O.3   500  NAP500     -0.3112
     28  C5D        0.9060   31.8120   18.9120 C.3   500  NAP500      0.1813
     29  C4D        1.8850   31.3410   17.8350 C.3   500  NAP500      0.1799
     30  O4D        2.5430   32.4640   17.2940 O.3   500  NAP500     -0.3327
     31  C3D        3.0050   30.4080   18.2940 C.3   500  NAP500      0.2158
     32  O3D        3.3450   29.5530   17.2170 O.3   500  NAP500     -0.2175
     33  C2D        4.1340   31.3630   18.6010 C.3   500  NAP500      0.2309
     34  O2D        5.4020   30.7840   18.5840 O.3   500  NAP500     -0.2158
     35  C1D        3.9560   32.3560   17.4700 C.3   500  NAP500      0.2263
     36  N1N        4.4480   33.7360   17.6800 N.pl3 500  NAP500     -0.2787
     37  C2N        5.0090   34.3370   16.5770 C.3   500  NAP500      0.1244
     38  C3N        5.4420   35.6460   16.6170 C.2   500  NAP500      0.0544
     39  C7N        5.8270   36.3040   15.3240 C.2   500  NAP500      0.2818
     40  O7N        6.5990   37.4650   15.4010 O.2   500  NAP500     -0.2670
     41  N7N        5.4720   35.7910   14.1300 N.am  500  NAP500     -0.0839
     42  C4N        5.3180   36.3720   17.8120 C.2   500  NAP500      0.0033
     43  C5N        4.7030   35.7530   18.9230 C.2   500  NAP500      0.0157
     44  C6N        4.2660   34.4270   18.8480 C.2   500  NAP500      0.0633
     45  P2B       -4.2760   24.0680   22.8830 P.3   500  NAP500      0.5328
     46  O1X       -3.7240   24.7120   24.1020 O.3   500  NAP500     -0.1145
     47  O2X       -3.3320   23.0550   22.3420 O.2   500  NAP500     -0.2224
     48  O3X       -5.6290   23.4700   23.1610 O.3   500  NAP500     -0.1145
@<TRIPOS>BOND
     1    41    39   am
     2    39    40    2
     3    39    38    1
     4    18    17    1
     5    17    19    2
     6    17    16    1
     7    19    20    1
     8    37    38    1
     9    37    36    1
    10    38    42    2
    11    16    15    2
    12    16    22    1
    13    32    31    1
    14    30    35    1
    15    30    29    1
    16    15    14    1
    17    20    21    1
    18    35    36    1
    19    35    33    1
    20    36    44    1
    21    42    43    1
    22    29    31    1
    23    29    28    1
    24    22    21    2
    25    22    13    1
    26    14    13    1
    27    31    33    1
    28    34    33    1
    29    13    12    1
    30    44    43    2
    31    28    27    1
    32     7    12    1
    33     7     6    1
    34    12    10    1
    35    27    24    1
    36     5     6    1
    37     5     4    1
    38     6     8    1
    39    10     8    1
    40    10    11    1
    41    24    25    2
    42    24    23    1
    43    24    26    1
    44    23     1    1
    45     4     1    1
    46     8     9    1
    47    11    45    1
    48     3     1    2
    49     1     2    1
    50    47    45    2
    51    45    48    1
    52    45    46    1
