@<TRIPOS>MOLECULE
2vwh_BGC_A_1.pdb
 12 12 0 0 0
SMALL
GASTEIGER

@<TRIPOS>ATOM
      1  C2         8.7100   37.3000   19.5120 C.3   600  BGC600      0.2434
      2  C3         9.1410   38.0310   18.2480 C.3   600  BGC600      0.2199
      3  C4         9.9910   37.0750   17.4280 C.3   600  BGC600      0.2144
      4  C5         9.2210   35.7580   17.1550 C.3   600  BGC600      0.1836
      5  C6        10.0850   34.7990   16.3310 C.3   600  BGC600      0.2142
      6  C1         8.0040   36.0050   19.1610 C.3   600  BGC600      0.3024
      7  O1         7.4830   35.4850   20.3540 O.3   600  BGC600     -0.1869
      8  O2         7.6910   38.0600   20.0960 O.3   600  BGC600     -0.2148
      9  O3         9.8690   39.1950   18.5900 O.3   600  BGC600     -0.2174
     10  O4        10.4340   37.7230   16.2610 O.3   600  BGC600     -0.2176
     11  O5         8.8130   35.1450   18.3970 O.3   600  BGC600     -0.3236
     12  O6        11.1540   34.3810   17.1400 O.3   600  BGC600     -0.2176
@<TRIPOS>BOND
     1    10     3    1
     2     5    12    1
     3     5     4    1
     4     4     3    1
     5     4    11    1
     6     3     2    1
     7     2     9    1
     8     2     1    1
     9    11     6    1
    10     6     1    1
    11     6     7    1
    12     1     8    1
