@<TRIPOS>MOLECULE
2vwi_ANP_A_1.pdb
 31 33 0 0 0
SMALL
GASTEIGER

@<TRIPOS>ATOM
      1  PG        86.6660  157.0470  -20.2800 P.3   1294  ANP1294     0.4884
      2  O1G       86.1200  158.5570  -20.0540 O.3   1294  ANP1294    -0.1240
      3  O2G       87.5780  156.7380  -18.9740 O.3   1294  ANP1294    -0.1240
      4  O3G       85.5670  156.0560  -20.4170 O.2   1294  ANP1294    -0.2331
      5  PB        87.0150  157.6590  -22.9170 P.3   1294  ANP1294     0.4669
      6  O1B       87.7310  157.0230  -24.0430 O.2   1294  ANP1294    -0.2351
      7  O2B       85.5390  157.5710  -22.8690 O.3   1294  ANP1294    -0.1253
      8  N3B       87.6900  157.0970  -21.5450 N.3   1294  ANP1294    -0.0163
      9  PA        88.6980  159.8320  -23.6150 P.3   1294  ANP1294     0.2220
     10  O1A       89.8610  158.9580  -23.3440 O.2   1294  ANP1294    -0.5170
     11  O2A       88.7920  161.2800  -23.3230 O.3   1294  ANP1294    -0.4370
     12  O3A       87.4020  159.2290  -22.8570 O.3   1294  ANP1294    -0.2360
     13  O5'       88.3280  159.6810  -25.1830 O.3   1294  ANP1294    -0.3111
     14  C5'       87.0140  159.9600  -25.7060 C.3   1294  ANP1294     0.1813
     15  C4'       86.8620  159.3930  -27.1300 C.3   1294  ANP1294     0.1821
     16  O4'       88.0250  159.8020  -27.9010 O.3   1294  ANP1294    -0.3135
     17  C3'       86.8500  157.8560  -27.1200 C.3   1294  ANP1294     0.2184
     18  O3'       85.7740  157.3830  -27.9390 O.3   1294  ANP1294    -0.2174
     19  C2'       88.2020  157.4650  -27.7190 C.3   1294  ANP1294     0.2570
     20  O2'       88.0810  156.2680  -28.4940 O.3   1294  ANP1294    -0.2130
     21  C1'       88.5060  158.6520  -28.6300 C.3   1294  ANP1294     0.3186
     22  N9        89.9640  158.8560  -28.8450 N.pl3 1294  ANP1294    -0.1439
     23  C8        90.8600  159.1770  -27.9080 C.3   1294  ANP1294     0.3377
     24  N7        92.0670  159.2860  -28.4620 N.2   1294  ANP1294    -0.2095
     25  C5        91.9410  159.0400  -29.7610 C.2   1294  ANP1294     0.2526
     26  C6        92.8370  159.0070  -30.8250 C.2   1294  ANP1294     0.4393
     27  N6        94.1260  159.2610  -30.6280 N.pl3 1294  ANP1294     0.2180
     28  N1        92.3790  158.7150  -32.0550 N.2   1294  ANP1294     0.0021
     29  C2        91.0920  158.4600  -32.2570 C.3   1294  ANP1294     0.5254
     30  N3        90.2120  158.4820  -31.2620 N.2   1294  ANP1294    -0.0055
     31  C4        90.6040  158.7680  -30.0080 C.2   1294  ANP1294     0.3518
@<TRIPOS>BOND
     1    29    28    1
     2    29    30    1
     3    28    26    2
     4    30    31    2
     5    26    27    1
     6    26    25    1
     7    31    25    1
     8    31    22    1
     9    25    24    2
    10    22    21    1
    11    22    23    1
    12    21    16    1
    13    21    19    1
    14    20    19    1
    15    24    23    1
    16    18    17    1
    17    16    15    1
    18    19    17    1
    19    15    17    1
    20    15    14    1
    21    14    13    1
    22    13     9    1
    23     6     5    2
    24     9    10    2
    25     9    11    1
    26     9    12    1
    27     5     7    1
    28     5    12    1
    29     5     8    1
    30     8     1    1
    31     4     1    2
    32     1     2    1
    33     1     3    1
