@<TRIPOS>MOLECULE
2vwl_LZH_A_1.pdb
 34 37 0 0 0
SMALL
GASTEIGER

@<TRIPOS>ATOM
      1  F32        9.3090   62.4460    1.4180 F     1246  LZH1246    -0.2027
      2  C17        8.4890   62.0100    2.3850 C.ar  1246  LZH1246     0.1568
      3  C11        8.1140   60.6540    2.3970 C.ar  1246  LZH1246     0.0486
      4  C9         7.2860   60.1820    3.4080 C.ar  1246  LZH1246     0.0692
      5  N1         6.8950   58.8150    3.3900 N.ar  1246  LZH1246    -0.2731
      6  C21        7.4050   57.9150    4.3220 C.ar  1246  LZH1246     0.0829
      7  C29        6.9470   56.6320    4.2620 C.ar  1246  LZH1246     0.0192
      8  C30        5.8900   56.2100    3.4090 C.ar  1246  LZH1246     0.0064
      9  C23        5.3310   57.1390    2.5710 C.ar  1246  LZH1246     0.0611
     10  C8         5.7930   58.4780    2.6040 C.ar  1246  LZH1246     0.2648
     11  O25        5.3170   59.3200    1.8040 O.2   1246  LZH1246    -0.2666
     12  C26        6.8530   61.0690    4.3830 C.ar  1246  LZH1246     0.0191
     13  C28        7.2380   62.4120    4.3660 C.ar  1246  LZH1246     0.0204
     14  C16        8.0590   62.9000    3.3580 C.ar  1246  LZH1246     0.1009
     15  N15        8.4370   64.2320    3.3170 N.am  1246  LZH1246    -0.1758
     16  C14        7.9930   64.9480    2.2560 C.2   1246  LZH1246     0.2620
     17  C13       11.5130   67.4080    3.6410 C.3   1246  LZH1246     0.1130
     18  O27        7.3690   64.4240    1.3470 O.2   1246  LZH1246    -0.2715
     19  C24       10.5140   68.3640    4.3180 C.3   1246  LZH1246     0.0417
     20  C22        8.2610   66.4340    2.1430 C.3   1246  LZH1246     0.1606
     21  N4         9.2650   66.8100    3.1410 N.3   1246  LZH1246    -0.2623
     22  C20       10.6690   66.4090    2.8620 C.3   1246  LZH1246     0.0944
     23  O33        8.1060   68.9770    1.5050 O.3   1246  LZH1246    -0.2189
     24  C34        9.2970   69.1600    2.2950 C.3   1246  LZH1246     0.1979
     25  N7        12.2000   66.7290    4.7560 N.am  1246  LZH1246    -0.2015
     26  C5        13.2590   65.9620    4.5230 C.2   1246  LZH1246     0.2708
     27  O24       13.6270   65.7850    3.3730 O.2   1246  LZH1246    -0.2678
     28  C2        14.0050   65.2960    5.6530 C.ar  1246  LZH1246     0.0853
     29  C12       14.0260   65.5450    7.0320 C.ar  1246  LZH1246     0.0125
     30  C19       14.8730   64.6860    7.7480 C.ar  1246  LZH1246     0.0186
     31  S3        15.0600   64.0330    5.0990 S.2   1246  LZH1246    -0.0709
     32  C10       15.4700   63.8930    6.7840 C.ar  1246  LZH1246     0.0871
     33 CL1        16.6630   62.6010    7.2050 Cl    1246  LZH1246    -0.0752
     34  C15        9.2360   68.2250    3.5100 C.3   1246  LZH1246     0.0928
@<TRIPOS>BOND
     1    18    16    2
     2     1     2    1
     3    23    24    1
     4    11    10    2
     5    20    16    1
     6    20    21    1
     7    16    15   am
     8    24    34    1
     9     2     3   ar
    10     2    14   ar
    11     3     4   ar
    12     9    10   ar
    13     9     8   ar
    14    10     5   ar
    15    22    21    1
    16    22    17    1
    17    21    34    1
    18    15    14    1
    19    14    13   ar
    20    27    26    2
    21     5     4    1
    22     5     6   ar
    23     4    12   ar
    24     8     7   ar
    25    34    19    1
    26    17    19    1
    27    17    25    1
    28     7     6   ar
    29    13    12   ar
    30    26    25   am
    31    26    28    1
    32    31    28   ar
    33    31    32   ar
    34    28    29   ar
    35    32    33    1
    36    32    30   ar
    37    29    30   ar
