@<TRIPOS>MOLECULE
2vwm_LZI_A_1.pdb
 39 43 0 0 0
SMALL
GASTEIGER

@<TRIPOS>ATOM
      1  O30       17.6140   10.9800   30.6350 O.2   1244  LZI1244    -0.2666
      2  C7        17.5410   10.5570   31.8190 C.ar  1244  LZI1244     0.2648
      3  C28       17.8390   11.3320   32.9910 C.ar  1244  LZI1244     0.0611
      4  C36       17.7470   10.7890   34.2380 C.ar  1244  LZI1244     0.0064
      5  C35       17.3270    9.4340   34.4020 C.ar  1244  LZI1244     0.0192
      6  C24       17.0580    8.6690   33.3140 C.ar  1244  LZI1244     0.0829
      7  N2        17.1380    9.2020   32.0090 N.ar  1244  LZI1244    -0.2731
      8  C8        16.8490    8.3830   30.8440 C.ar  1244  LZI1244     0.0692
      9  C11       17.8510    7.5080   30.4430 C.ar  1244  LZI1244     0.0486
     10  C19       17.6130    6.7460   29.3240 C.ar  1244  LZI1244     0.1568
     11  F39       18.5840    5.8730   28.9330 F     1244  LZI1244    -0.2027
     12  C31       15.6450    8.5050   30.1560 C.ar  1244  LZI1244     0.0191
     13  C34       15.4090    7.7010   29.0310 C.ar  1244  LZI1244     0.0204
     14  C18       16.4130    6.8230   28.6200 C.ar  1244  LZI1244     0.1009
     15  N15       16.1980    6.0120   27.4540 N.am  1244  LZI1244    -0.1758
     16  C12       15.6940    6.6550   26.2910 C.2   1244  LZI1244     0.2620
     17  O33       15.5460    7.8820   26.3200 O.2   1244  LZI1244    -0.2715
     18  C16       15.3470    5.8960   25.0490 C.3   1244  LZI1244     0.1609
     19  N1        15.1000    4.4530   25.2310 N.3   1244  LZI1244    -0.2571
     20  C5        15.5340    3.4960   24.1870 C.3   1244  LZI1244     0.1386
     21  C10       15.0200    3.9400   22.8610 C.2   1244  LZI1244     0.2559
     22  N23       15.8250    3.7220   21.7650 N.am  1244  LZI1244    -0.2043
     23  O32       13.9190    4.5020   22.7680 O.2   1244  LZI1244    -0.2719
     24  C21       14.0630    4.0360   25.9140 C.3   1244  LZI1244     0.0947
     25  C17       13.6530    2.6620   25.4530 C.3   1244  LZI1244     0.1134
     26  C20       14.7670    2.2680   24.5410 C.3   1244  LZI1244     0.0485
     27  N13       13.5740    1.7100   26.5520 N.am  1244  LZI1244    -0.2015
     28  C6        12.5700    1.8850   27.4530 C.2   1244  LZI1244     0.2708
     29  O29       11.7900    2.8330   27.3020 O.2   1244  LZI1244    -0.2678
     30  C3        12.4820    0.9510   28.5340 C.ar  1244  LZI1244     0.0853
     31  C14       13.2730   -0.1310   28.7780 C.ar  1244  LZI1244     0.0125
     32  C22       12.8670   -0.8090   29.9400 C.ar  1244  LZI1244     0.0186
     33  C9        11.8110   -0.1490   30.5140 C.ar  1244  LZI1244     0.0871
     34  S4        11.2280    1.2200   29.6860 S.2   1244  LZI1244    -0.0709
     35 CL3        11.0350   -0.5070   32.0180 Cl    1244  LZI1244    -0.0752
     36  C37       15.4560    4.0160   20.4000 C.3   1244  LZI1244     0.1151
     37  C25       16.6630    3.9330   19.4580 C.3   1244  LZI1244     0.0217
     38  C27       16.5000    3.1960   18.1580 C.3   1244  LZI1244     0.0018
     39  C26       17.3350    2.6030   19.2560 C.3   1244  LZI1244     0.0018
@<TRIPOS>BOND
     1    38    39    1
     2    38    37    1
     3    39    37    1
     4    37    36    1
     5    36    22    1
     6    22    21   am
     7    23    21    2
     8    21    20    1
     9    20    26    1
    10    20    19    1
    11    26    25    1
    12    18    19    1
    13    18    16    1
    14    19    24    1
    15    25    24    1
    16    25    27    1
    17    16    17    2
    18    16    15   am
    19    27    28   am
    20    29    28    2
    21    28    30    1
    22    15    14    1
    23    30    31   ar
    24    30    34   ar
    25    14    13   ar
    26    14    10   ar
    27    31    32   ar
    28    11    10    1
    29    13    12   ar
    30    10     9   ar
    31    34    33   ar
    32    32    33   ar
    33    12     8   ar
    34     9     8   ar
    35    33    35    1
    36     1     2    2
    37     8     7    1
    38     2     7   ar
    39     2     3   ar
    40     7     6   ar
    41     3     4   ar
    42     6     5   ar
    43     4     5   ar
