@<TRIPOS>MOLECULE
2vwn_H25_A_1.pdb
 33 36 0 0 0
SMALL
GASTEIGER

@<TRIPOS>ATOM
      1  F3         9.4660   62.1560    1.5430 F     1245  H251245    -0.2027
      2  C17        8.6290   61.6830    2.4620 C.ar  1245  H251245     0.1568
      3  C11        8.2220   60.3560    2.4230 C.ar  1245  H251245     0.0486
      4  C9         7.3740   59.8270    3.4000 C.ar  1245  H251245     0.0692
      5  N1         6.9120   58.5070    3.3490 N.ar  1245  H251245    -0.2731
      6  C21        7.3800   57.5420    4.1750 C.ar  1245  H251245     0.0829
      7  C29        6.8990   56.2550    4.1180 C.ar  1245  H251245     0.0192
      8  C30        5.9120   55.9170    3.2050 C.ar  1245  H251245     0.0064
      9  C23        5.4410   56.9150    2.3610 C.ar  1245  H251245     0.0611
     10  C8         5.9610   58.2020    2.4360 C.ar  1245  H251245     0.2648
     11  O25        5.5270   59.1220    1.6690 O.2   1245  H251245    -0.2666
     12  C26        6.9280   60.6930    4.4080 C.ar  1245  H251245     0.0191
     13  C28        7.3580   62.0290    4.4310 C.ar  1245  H251245     0.0204
     14  C16        8.2040   62.5390    3.4440 C.ar  1245  H251245     0.1009
     15  N15        8.6040   63.8850    3.3950 N.am  1245  H251245    -0.1758
     16  C14        8.1860   64.6220    2.3220 C.2   1245  H251245     0.2620
     17  O27        7.4990   64.1370    1.4050 O.2   1245  H251245    -0.2715
     18  C22        8.5450   66.0840    2.2280 C.3   1245  H251245     0.1607
     19  N4         9.4900   66.4220    3.2860 N.3   1245  H251245    -0.2612
     20  C31        9.5780   67.8770    3.5580 C.3   1245  H251245     0.1076
     21  C34       10.9370   67.9870    4.2490 C.3   1245  H251245     0.1890
     22  O33       11.5860   69.2280    3.9320 O.3   1245  H251245    -0.2198
     23  C20       10.8250   65.9640    2.8950 C.3   1245  H251245     0.0971
     24  C6        11.7810   66.8700    3.6420 C.3   1245  H251245     0.1432
     25  N7        12.4900   66.1690    4.7270 N.am  1245  H251245    -0.1989
     26  C5        13.4720   65.3160    4.4510 C.2   1245  H251245     0.2709
     27  O24       13.8010   65.0360    3.2910 O.2   1245  H251245    -0.2678
     28  C2        14.2070   64.6850    5.5920 C.ar  1245  H251245     0.0853
     29  C12       14.1630   64.9640    6.9750 C.ar  1245  H251245     0.0125
     30  C19       15.0340   64.1240    7.6740 C.ar  1245  H251245     0.0186
     31  S3        15.3070   63.4280    5.1330 S.2   1245  H251245    -0.0709
     32  C10       15.6940   63.2960    6.8000 C.ar  1245  H251245     0.0871
     33 CL1        16.9010   62.0400    7.2640 Cl    1245  H251245    -0.0752
@<TRIPOS>BOND
     1    17    16    2
     2     1     2    1
     3    11    10    2
     4    18    16    1
     5    18    19    1
     6    16    15   am
     7     9    10   ar
     8     9     8   ar
     9     3     2   ar
    10     3     4   ar
    11    10     5   ar
    12     2    14   ar
    13    23    19    1
    14    23    24    1
    15     8     7   ar
    16    19    20    1
    17    27    26    2
    18     5     4    1
    19     5     6   ar
    20    15    14    1
    21     4    12   ar
    22    14    13   ar
    23    20    21    1
    24    24    21    1
    25    24    25    1
    26    22    21    1
    27     7     6   ar
    28    12    13   ar
    29    26    25   am
    30    26    28    1
    31    31    28   ar
    32    31    32   ar
    33    28    29   ar
    34    32    33    1
    35    32    30   ar
    36    29    30   ar
