@<TRIPOS>MOLECULE
2vwo_LZG_A_1.pdb
 33 36 0 0 0
SMALL
GASTEIGER

@<TRIPOS>ATOM
      1 CL1        16.6220   62.1530    7.3300 Cl    1245  LZG1245    -0.0752
      2  C10       15.4580   63.3660    6.8870 C.ar  1245  LZG1245     0.0871
      3  C19       14.7860   64.2490    7.7050 C.ar  1245  LZG1245     0.0186
      4  C13       13.8940   65.0820    6.9710 C.ar  1245  LZG1245     0.0125
      5  S3        15.0160   63.5140    5.2220 S.2   1245  LZG1245    -0.0709
      6  C2        13.9170   64.7850    5.6120 C.ar  1245  LZG1245     0.0853
      7  C5        13.1840   65.4110    4.5230 C.2   1245  LZG1245     0.2709
      8  O24       13.4290   65.1770    3.3260 O.2   1245  LZG1245    -0.2678
      9  N7        12.1210   66.2290    4.8150 N.am  1245  LZG1245    -0.1987
     10  C6        11.3900   66.8730    3.7070 C.3   1245  LZG1245     0.1453
     11  C12       10.5040   67.9740    4.2880 C.3   1245  LZG1245     0.1979
     12  F32       11.0300   69.2260    4.0110 F     1245  LZG1245    -0.2339
     13  C20        9.1330   67.7430    3.6620 C.3   1245  LZG1245     0.1100
     14  C18       10.4640   65.9130    2.9740 C.3   1245  LZG1245     0.0973
     15  N4         9.1050   66.2950    3.4120 N.3   1245  LZG1245    -0.2610
     16  C22        8.1450   65.9950    2.3580 C.3   1245  LZG1245     0.1607
     17  C14        7.7980   64.5390    2.4250 C.2   1245  LZG1245     0.2620
     18  O27        7.1200   64.0050    1.5220 O.2   1245  LZG1245    -0.2715
     19  N15        8.2610   63.7760    3.5510 N.am  1245  LZG1245    -0.1758
     20  C16        7.9010   62.3730    3.6040 C.ar  1245  LZG1245     0.1009
     21  C17        8.3430   61.4990    2.6090 C.ar  1245  LZG1245     0.1568
     22  F33        9.1460   62.0020    1.6520 F     1245  LZG1245    -0.2027
     23  C28        7.0720   61.8810    4.6090 C.ar  1245  LZG1245     0.0204
     24  C26        6.6960   60.5390    4.6310 C.ar  1245  LZG1245     0.0191
     25  C9         7.1850   59.6930    3.6130 C.ar  1245  LZG1245     0.0692
     26  C11        8.0040   60.1480    2.5790 C.ar  1245  LZG1245     0.0486
     27  N1         6.7500   58.3330    3.5910 N.ar  1245  LZG1245    -0.2731
     28  C8         5.7430   57.9850    2.6490 C.ar  1245  LZG1245     0.2648
     29  O25        5.3210   58.9290    1.8740 O.2   1245  LZG1245    -0.2666
     30  C23        5.3100   56.6260    2.6330 C.ar  1245  LZG1245     0.0611
     31  C30        5.8160   55.6780    3.4780 C.ar  1245  LZG1245     0.0064
     32  C29        6.8320   56.0620    4.4100 C.ar  1245  LZG1245     0.0192
     33  C21        7.2720   57.3490    4.4780 C.ar  1245  LZG1245     0.0829
@<TRIPOS>BOND
     1    18    17    2
     2    22    21    1
     3    29    28    2
     4    16    17    1
     5    16    15    1
     6    17    19   am
     7    26    21   ar
     8    26    25   ar
     9    21    20   ar
    10    30    28   ar
    11    30    31   ar
    12    28    27   ar
    13    14    15    1
    14    14    10    1
    15     8     7    2
    16    15    13    1
    17    31    32   ar
    18    19    20    1
    19    27    25    1
    20    27    33   ar
    21    20    23   ar
    22    25    24   ar
    23    13    11    1
    24    10    11    1
    25    10     9    1
    26    12    11    1
    27    32    33   ar
    28     7     9   am
    29     7     6    1
    30    23    24   ar
    31     5     6   ar
    32     5     2   ar
    33     6     4   ar
    34     2     1    1
    35     2     3   ar
    36     4     3   ar
