@<TRIPOS>MOLECULE
2vwp_NDP_A_1.pdb
 48 52 0 0 0
SMALL
GASTEIGER

@<TRIPOS>ATOM
      1  PA         0.0640   26.4510   21.7070 P.3   500  NDP500      0.2189
      2  O1A       -0.0980   26.6970   23.1620 O.3   500  NDP500     -0.4371
      3  O2A        0.5960   25.0820   21.4130 O.2   500  NDP500     -0.5170
      4  O5B       -1.3470   26.6560   20.9720 O.3   500  NDP500     -0.3112
      5  C5B       -1.7450   25.7780   19.9570 C.3   500  NDP500      0.1813
      6  C4B       -3.1760   25.3970   20.2570 C.3   500  NDP500      0.1820
      7  O4B       -3.6840   24.7860   19.1010 O.3   500  NDP500     -0.3136
      8  C3B       -3.2880   24.4040   21.4170 C.3   500  NDP500      0.2157
      9  O3B       -4.1100   24.9390   22.4470 O.3   500  NDP500     -0.2175
     10  C2B       -3.8620   23.1530   20.7690 C.3   500  NDP500      0.2314
     11  O2B       -4.9140   22.5690   21.4990 O.3   500  NDP500     -0.2630
     12  C1B       -4.4550   23.6850   19.4730 C.3   500  NDP500      0.3158
     13  N9A       -4.4540   22.6720   18.4130 N.pl3 500  NDP500     -0.1439
     14  C8A       -3.3930   21.9690   17.8800 C.3   500  NDP500      0.3377
     15  N7A       -3.8880   21.1390   16.9230 N.2   500  NDP500     -0.2095
     16  C5A       -5.2400   21.3080   16.8620 C.2   500  NDP500      0.2526
     17  C6A       -6.2500   20.7340   16.0890 C.2   500  NDP500      0.4393
     18  N6A       -6.0020   19.6970   15.2760 N.pl3 500  NDP500      0.2180
     19  N1A       -7.5550   21.1520   16.2880 N.2   500  NDP500      0.0021
     20  C2A       -7.8780   22.1080   17.2240 C.3   500  NDP500      0.5254
     21  N3A       -6.8860   22.6730   17.9710 N.2   500  NDP500     -0.0055
     22  C4A       -5.5990   22.2760   17.7960 C.2   500  NDP500      0.3518
     23  O3         1.0350   27.6180   21.1100 O.3   500  NDP500     -0.2703
     24  PN         0.7590   29.2300   20.9740 P.3   500  NDP500      0.2189
     25  O1N       -0.6780   29.5890   20.9040 O.2   500  NDP500     -0.5170
     26  O2N        1.5880   29.9810   21.9540 O.3   500  NDP500     -0.4371
     27  O5D        1.4020   29.3560   19.4880 O.3   500  NDP500     -0.3112
     28  C5D        0.7140   28.7900   18.3770 C.3   500  NDP500      0.1813
     29  C4D        1.6290   28.3110   17.2390 C.3   500  NDP500      0.1799
     30  O4D        2.2770   29.4350   16.6690 O.3   500  NDP500     -0.3327
     31  C3D        2.7170   27.3100   17.6410 C.3   500  NDP500      0.2158
     32  O3D        2.9510   26.3770   16.5970 O.3   500  NDP500     -0.2175
     33  C2D        3.9540   28.1720   17.7800 C.3   500  NDP500      0.2309
     34  O2D        5.1270   27.4740   17.4390 O.3   500  NDP500     -0.2158
     35  C1D        3.6800   29.2710   16.7580 C.3   500  NDP500      0.2263
     36  N1N        4.2800   30.5570   17.1060 N.pl3 500  NDP500     -0.2787
     37  C2N        4.7680   31.2790   16.0590 C.3   500  NDP500      0.1244
     38  C3N        5.2060   32.5880   16.1860 C.2   500  NDP500      0.0544
     39  C7N        5.7290   33.2990   14.9560 C.2   500  NDP500      0.2818
     40  O7N        6.4060   34.5060   15.1410 O.2   500  NDP500     -0.2670
     41  N7N        5.5370   32.7810   13.7300 N.am  500  NDP500     -0.0839
     42  C4N        5.1780   33.2800   17.5410 C.2   500  NDP500      0.0033
     43  C5N        4.6090   32.3880   18.6240 C.2   500  NDP500      0.0157
     44  C6N        4.1860   31.0830   18.3670 C.2   500  NDP500      0.0633
     45  P2B       -4.6750   21.4550   22.6380 P.3   500  NDP500      0.5328
     46  O1X       -3.8620   22.0300   23.7740 O.3   500  NDP500     -0.1145
     47  O2X       -3.8760   20.2980   22.0740 O.2   500  NDP500     -0.2224
     48  O3X       -6.0980   21.1020   23.0320 O.3   500  NDP500     -0.1145
@<TRIPOS>BOND
     1    41    39   am
     2    39    40    2
     3    39    38    1
     4    18    17    1
     5    37    38    1
     6    37    36    1
     7    17    19    2
     8    17    16    1
     9    38    42    2
    10    19    20    1
    11    32    31    1
    12    30    35    1
    13    30    29    1
    14    35    36    1
    15    35    33    1
    16    16    15    2
    17    16    22    1
    18    15    14    1
    19    36    44    1
    20    20    21    1
    21    29    31    1
    22    29    28    1
    23    34    33    1
    24    42    43    1
    25    31    33    1
    26    22    21    2
    27    22    13    1
    28    14    13    1
    29    44    43    2
    30    28    27    1
    31    13    12    1
    32     7    12    1
    33     7     6    1
    34    12    10    1
    35    27    24    1
    36     5     6    1
    37     5     4    1
    38     6     8    1
    39    10     8    1
    40    10    11    1
    41    25    24    2
    42     4     1    1
    43    24    23    1
    44    24    26    1
    45    23     1    1
    46     3     1    2
    47     8     9    1
    48    11    45    1
    49     1     2    1
    50    47    45    2
    51    45    48    1
    52    45    46    1
