@<TRIPOS>MOLECULE
2vwq_NAP_A_1.pdb
 48 52 0 0 0
SMALL
GASTEIGER

@<TRIPOS>ATOM
      1  PA         0.2150   28.3820   22.1620 P.3   500  NAP500      0.2189
      2  O1A        0.1300   28.9000   23.5320 O.3   500  NAP500     -0.4371
      3  O2A        0.7730   27.0580   21.9360 O.2   500  NAP500     -0.5170
      4  O5B       -1.2280   28.4310   21.4980 O.3   500  NAP500     -0.3112
      5  C5B       -1.5200   27.5550   20.4370 C.3   500  NAP500      0.1813
      6  C4B       -2.9680   27.1790   20.5710 C.3   500  NAP500      0.1820
      7  O4B       -3.3670   26.5780   19.3640 O.3   500  NAP500     -0.3136
      8  C3B       -3.2090   26.1750   21.7070 C.3   500  NAP500      0.2157
      9  O3B       -4.1470   26.7060   22.6060 O.3   500  NAP500     -0.2175
     10  C2B       -3.7420   24.9490   20.9850 C.3   500  NAP500      0.2314
     11  O2B       -4.7820   24.2970   21.6740 O.3   500  NAP500     -0.2630
     12  C1B       -4.2440   25.5380   19.6700 C.3   500  NAP500      0.3158
     13  N9A       -4.2410   24.5300   18.6230 N.pl3 500  NAP500     -0.1439
     14  C8A       -3.1820   23.8060   18.1260 C.3   500  NAP500      0.3377
     15  N7A       -3.6520   22.9610   17.1880 N.2   500  NAP500     -0.2095
     16  C5A       -4.9950   23.1440   17.1000 C.2   500  NAP500      0.2526
     17  C6A       -5.9650   22.5660   16.3200 C.2   500  NAP500      0.4393
     18  N6A       -5.6320   21.6270   15.4410 N.pl3 500  NAP500      0.2180
     19  N1A       -7.2730   22.9700   16.4410 N.2   500  NAP500      0.0021
     20  C2A       -7.6220   23.9490   17.3390 C.3   500  NAP500      0.5254
     21  N3A       -6.6530   24.5240   18.1260 N.2   500  NAP500     -0.0055
     22  C4A       -5.3700   24.1260   17.9950 C.2   500  NAP500      0.3518
     23  O3         1.0930   29.4800   21.3910 O.3   500  NAP500     -0.2703
     24  PN         0.9480   31.0800   21.2960 P.3   500  NAP500      0.2189
     25  O1N       -0.4670   31.5410   21.2980 O.2   500  NAP500     -0.5170
     26  O2N        1.8820   31.7690   22.2260 O.3   500  NAP500     -0.4371
     27  O5D        1.5470   31.0910   19.7930 O.3   500  NAP500     -0.3112
     28  C5D        0.8100   30.4840   18.7480 C.3   500  NAP500      0.1813
     29  C4D        1.6920   30.1280   17.5560 C.3   500  NAP500      0.1799
     30  O4D        2.2750   31.3300   17.0770 O.3   500  NAP500     -0.3327
     31  C3D        2.8590   29.1890   17.8590 C.3   500  NAP500      0.2158
     32  O3D        3.1000   28.3350   16.7550 O.3   500  NAP500     -0.2175
     33  C2D        4.0440   30.1080   18.0210 C.3   500  NAP500      0.2309
     34  O2D        5.2460   29.5020   17.6390 O.3   500  NAP500     -0.2158
     35  C1D        3.6860   31.1890   17.0180 C.3   500  NAP500      0.2263
     36  N1N        4.2500   32.5160   17.2470 N.pl3 500  NAP500     -0.2787
     37  C2N        4.8030   33.1620   16.1700 C.3   500  NAP500      0.1244
     38  C3N        5.3110   34.4420   16.3310 C.2   500  NAP500      0.0544
     39  C7N        5.7440   35.2190   15.1140 C.2   500  NAP500      0.2818
     40  O7N        6.5020   36.3650   15.3070 O.2   500  NAP500     -0.2670
     41  N7N        5.3820   34.8250   13.8940 N.am  500  NAP500     -0.0839
     42  C4N        5.2320   35.0650   17.5720 C.2   500  NAP500      0.0033
     43  C5N        4.6320   34.4010   18.6360 C.2   500  NAP500      0.0157
     44  C6N        4.1400   33.1190   18.4620 C.2   500  NAP500      0.0633
     45  P2B       -4.4890   23.1210   22.7620 P.3   500  NAP500      0.5328
     46  O1X       -3.8080   23.7710   23.8980 O.3   500  NAP500     -0.1145
     47  O2X       -3.5830   22.0830   22.1670 O.2   500  NAP500     -0.2224
     48  O3X       -5.8490   22.5860   23.1150 O.3   500  NAP500     -0.1145
@<TRIPOS>BOND
     1    41    39   am
     2    39    40    2
     3    39    38    1
     4    18    17    1
     5    37    38    1
     6    37    36    1
     7    17    19    2
     8    17    16    1
     9    38    42    2
    10    19    20    1
    11    32    31    1
    12    35    30    1
    13    35    36    1
    14    35    33    1
    15    30    29    1
    16    16    15    2
    17    16    22    1
    18    15    14    1
    19    36    44    1
    20    20    21    1
    21    29    31    1
    22    29    28    1
    23    42    43    1
    24    34    33    1
    25    31    33    1
    26    22    21    2
    27    22    13    1
    28    14    13    1
    29    44    43    2
    30    13    12    1
    31    28    27    1
    32     7    12    1
    33     7     6    1
    34    12    10    1
    35    27    24    1
    36     5     6    1
    37     5     4    1
    38     6     8    1
    39    10    11    1
    40    10     8    1
    41    24    25    2
    42    24    23    1
    43    24    26    1
    44    23     1    1
    45     4     1    1
    46    11    45    1
    47     8     9    1
    48     3     1    2
    49     1     2    1
    50    47    45    2
    51    45    48    1
    52    45    46    1
