@<TRIPOS>MOLECULE
2vwu_7X1_A_1.pdb
 33 37 0 0 0
SMALL
GASTEIGER

@<TRIPOS>ATOM
      1  C1         9.5400   10.4300   10.6250 C.3   1888  7X11888     0.2526
      2  O2        10.9620   10.6640   10.7240 O.2   1888  7X11888    -0.4687
      3  C3        11.6500    9.5650   11.1600 C.2   1888  7X11888     0.1691
      4  C4        11.0830    8.3240   11.3970 C.2   1888  7X11888     0.0318
      5  C5        11.8870    7.2590   11.8640 C.3   1888  7X11888     0.1742
      6  C6        11.3790    5.9640   12.1570 C.2   1888  7X11888     0.3484
      7  N7        10.0200    5.7030   11.9640 N.pl3 1888  7X11888    -0.0052
      8  C8         9.3860    4.5130   12.3770 C.ar  1888  7X11888     0.2302
      9  C9         9.2710    4.2400   13.7200 C.ar  1888  7X11888     0.2178
     10  O10        9.7110    4.9620   14.7840 O.3   1888  7X11888    -0.4309
     11  C11        9.5060    4.1000   15.9150 C.3   1888  7X11888     0.4295
     12  O12        8.6340    3.0500   15.4800 O.3   1888  7X11888    -0.4345
     13  C13        8.6130    3.0780   14.1410 C.ar  1888  7X11888     0.1801
     14  C14        8.0790    2.1660   13.2390 C.ar  1888  7X11888     0.0413
     15  C15        8.2140    2.4310   11.8830 C.ar  1888  7X11888     0.0183
     16  C16        8.8460    3.6080   11.4700 C.ar  1888  7X11888     0.1018
     17 CL1         9.0240    3.9330    9.7830 Cl    1888  7X11888    -0.0784
     18  N18       12.2320    5.0140   12.6010 N.2   1888  7X11888    -0.0363
     19  C19       13.5310    5.2460   12.7510 C.3   1888  7X11888     0.3913
     20  N20       14.0540    6.4310   12.4770 N.2   1888  7X11888    -0.2220
     21  C21       13.2870    7.4600   12.0330 C.2   1888  7X11888     0.0769
     22  C22       13.8380    8.7270   11.7580 C.2   1888  7X11888     0.0553
     23  C23       13.0350    9.7530   11.3230 C.2   1888  7X11888     0.1731
     24  O24       13.4960   10.9990   11.0300 O.2   1888  7X11888    -0.4723
     25  C25       14.8550   11.2490   11.3560 C.3   1888  7X11888     0.2070
     26  C26       15.0160   12.7790   11.2970 C.3   1888  7X11888     0.0646
     27  C27       15.2680   13.2080    9.8540 C.3   1888  7X11888     0.0759
     28  N28       15.3730   14.6760    9.6880 N.3   1888  7X11888    -0.2726
     29  C29       16.7360   15.1620    9.9910 C.3   1888  7X11888     0.0721
     30  C30       16.7670   16.7010    9.9310 C.3   1888  7X11888     0.0174
     31  C31       16.2980   17.1820    8.5440 C.3   1888  7X11888     0.0029
     32  C32       14.9810   16.5020    8.1150 C.3   1888  7X11888     0.0174
     33  C33       15.0940   14.9700    8.2790 C.3   1888  7X11888     0.0721
@<TRIPOS>BOND
     1    32    33    1
     2    32    31    1
     3    33    28    1
     4    31    30    1
     5    28    27    1
     6    28    29    1
     7    17    16    1
     8    27    26    1
     9    30    29    1
    10     1     2    1
    11     2     3    1
    12    24    23    1
    13    24    25    1
    14     3    23    1
    15     3     4    2
    16    26    25    1
    17    23    22    2
    18     4     5    1
    19    16    15   ar
    20    16     8   ar
    21    22    21    1
    22     5    21    1
    23     5     6    1
    24    15    14   ar
    25     7     6    1
    26     7     8    1
    27    21    20    2
    28     6    18    2
    29     8     9   ar
    30    20    19    1
    31    18    19    1
    32    14    13   ar
    33     9    13   ar
    34     9    10    1
    35    13    12    1
    36    10    11    1
    37    12    11    1
