@<TRIPOS>MOLECULE
2vwv_7X3_A_1.pdb
 29 31 0 0 0
SMALL
GASTEIGER

@<TRIPOS>ATOM
      1  C1         4.6200    7.5380   10.2290 C.3   1888  7X31888     0.2525
      2  O2         5.8290    8.1920   10.6290 O.3   1888  7X31888    -0.4706
      3  C3         6.7650    7.2030   10.9290 C.ar  1888  7X31888     0.1492
      4  C4         6.5140    5.8460   10.7380 C.ar  1888  7X31888     0.0391
      5  C5         7.4760    4.9000   11.0700 C.ar  1888  7X31888     0.0205
      6  C6         8.6950    5.2970   11.5850 C.ar  1888  7X31888     0.0836
      7  N7         9.5950    4.2720   11.9100 N.pl3 1888  7X31888    -0.1354
      8  C8        10.9570    4.4250   12.0500 C.1   1888  7X31888     0.1781
      9  N9        11.6580    3.3300   12.4550 N.2   1888  7X31888    -0.1674
     10  C10       12.9590    3.3990   12.6130 C.3   1888  7X31888     0.2753
     11  N11       13.5870    4.5480   12.3580 N.2   1888  7X31888    -0.1674
     12  C12       12.9070    5.6320   11.9420 C.1   1888  7X31888     0.1781
     13  N13       13.6330    6.7920   11.6920 N.pl3 1888  7X31888    -0.1352
     14  C14       13.0710    7.9500   11.1280 C.ar  1888  7X31888     0.0888
     15  C15       11.9330    7.9350   10.2940 C.ar  1888  7X31888     0.0576
     16  C16       11.4880    9.1630    9.7780 C.ar  1888  7X31888     0.1768
     17  O17       10.3910    9.3030    8.9750 O.3   1888  7X31888    -0.4682
     18  C18        9.9090    8.1080    8.3260 C.3   1888  7X31888     0.2526
     19  C19       12.1810   10.3510   10.0890 C.ar  1888  7X31888     0.2061
     20  O20       11.8010   11.5740    9.5990 O.3   1888  7X31888    -0.4654
     21  C21       10.7570   12.0560   10.4620 C.3   1888  7X31888     0.2528
     22  C22       13.3130   10.3510   10.8950 C.ar  1888  7X31888     0.1768
     23  O23       13.9200   11.5750   11.1290 O.3   1888  7X31888    -0.4682
     24  C24       15.0100   11.5310   12.0760 C.3   1888  7X31888     0.2526
     25  C25       13.7450    9.1440   11.3970 C.ar  1888  7X31888     0.0576
     26  N26       11.5710    5.5910   11.7770 N.2   1888  7X31888    -0.2660
     27  C27        8.9680    6.6560   11.7840 C.ar  1888  7X31888     0.0318
     28  C28        7.9880    7.5750   11.4510 C.ar  1888  7X31888     0.0928
     29 CL1         8.2690    9.2510   11.6370 Cl    1888  7X31888    -0.0790
@<TRIPOS>BOND
     1    18    17    1
     2    17    16    1
     3    20    19    1
     4    20    21    1
     5    16    19   ar
     6    16    15   ar
     7    19    22   ar
     8     1     2    1
     9    15    14   ar
    10     2     3    1
    11     4     3   ar
    12     4     5   ar
    13    22    23    1
    14    22    25   ar
    15     3    28   ar
    16     5     6   ar
    17    14    25   ar
    18    14    13    1
    19    23    24    1
    20    28    29    1
    21    28    27   ar
    22     6    27   ar
    23     6     7    1
    24    13    12    1
    25    26    12    2
    26    26     8    2
    27     7     8    1
    28    12    11    2
    29     8     9    2
    30    11    10    1
    31     9    10    1
