@<TRIPOS>MOLECULE
2vww_7X2_A_1.pdb
 30 33 0 0 0
SMALL
GASTEIGER

@<TRIPOS>ATOM
      1  C1        15.6950   11.7760   11.0600 C.3   1888  7X21888     0.2526
      2  O2        14.4160   11.7710   10.4300 O.3   1888  7X21888    -0.4682
      3  C3        13.7440   10.5860   10.4780 C.ar  1888  7X21888     0.1768
      4  C4        14.2400    9.4250   11.0450 C.ar  1888  7X21888     0.0576
      5  C5        13.4570    8.2590   11.0250 C.ar  1888  7X21888     0.0888
      6  N6        13.9670    7.1030   11.6000 N.pl3 1888  7X21888    -0.1355
      7  C7        13.3060    5.9200   11.8610 C.1   1888  7X21888     0.1709
      8  N8        14.0650    4.9040   12.2790 N.2   1888  7X21888    -0.1683
      9  C9        13.5580    3.7250   12.5960 C.2   1888  7X21888     0.1158
     10  C10       12.2090    3.5540   12.4520 C.2   1888  7X21888     0.0720
     11  C11       11.4000    4.6260   12.0030 C.2   1888  7X21888     0.2179
     12  N12       10.0150    4.4780   11.8490 N.pl3 1888  7X21888    -0.1787
     13  C13        9.3310    3.3050   12.2410 C.ar  1888  7X21888     0.1206
     14  C14        9.2410    2.9390   13.5950 C.ar  1888  7X21888     0.1924
     15  O15        9.7160    3.5710   14.7100 O.3   1888  7X21888    -0.4333
     16  C16        9.6720    2.5690   15.7460 C.3   1888  7X21888     0.4294
     17  O17        8.6240    1.6570   15.3490 O.3   1888  7X21888    -0.4346
     18  C18        8.5800    1.7670   13.9770 C.ar  1888  7X21888     0.1778
     19  C19        8.0000    0.9390   13.0140 C.ar  1888  7X21888     0.0411
     20  C20        8.1100    1.2870   11.6550 C.ar  1888  7X21888     0.0160
     21  C21        8.7480    2.4680   11.2820 C.ar  1888  7X21888     0.0761
     22 CL1         8.8730    2.9070    9.6130 Cl    1888  7X21888    -0.0808
     23  N23       11.9860    5.7990   11.7290 N.2   1888  7X21888    -0.3189
     24  C24       12.2190    8.2220   10.4170 C.ar  1888  7X21888     0.0576
     25  C25       11.7210    9.3660    9.8370 C.ar  1888  7X21888     0.1768
     26  O26       10.4800    9.3140    9.2510 O.3   1888  7X21888    -0.4682
     27  C27       10.4990    8.5130    8.0780 C.3   1888  7X21888     0.2526
     28  C28       12.4820   10.5490    9.8740 C.ar  1888  7X21888     0.2061
     29  O29       12.0330   11.7060    9.3100 O.3   1888  7X21888    -0.4654
     30  C30       10.8320   12.0750    9.9840 C.3   1888  7X21888     0.2528
@<TRIPOS>BOND
     1    27    26    1
     2    26    25    1
     3    29    28    1
     4    29    30    1
     5    22    21    1
     6    25    28   ar
     7    25    24   ar
     8    28     3   ar
     9    24     5   ar
    10     2     3    1
    11     2     1    1
    12     3     4   ar
    13     5     4   ar
    14     5     6    1
    15    21    20   ar
    16    21    13   ar
    17     6     7    1
    18    20    19   ar
    19    23     7    2
    20    23    11    2
    21    12    11    1
    22    12    13    1
    23     7     8    2
    24    11    10    1
    25    13    14   ar
    26     8     9    1
    27    10     9    2
    28    19    18   ar
    29    14    18   ar
    30    14    15    1
    31    18    17    1
    32    15    16    1
    33    17    16    1
