@<TRIPOS>MOLECULE
2vwx_7X4_A_1.pdb
 28 31 0 0 0
SMALL
GASTEIGER

@<TRIPOS>ATOM
      1  C11       12.9970    6.3020   11.7750 C.1   1889  7X41889     0.1709
      2  N12       13.7700    5.2890   12.1410 N.2   1889  7X41889    -0.1683
      3  C13       13.2940    4.0690   12.4650 C.2   1889  7X41889     0.1158
      4  C14       11.9390    3.8910   12.3760 C.2   1889  7X41889     0.0720
      5  C15       11.1140    4.9740   11.9830 C.2   1889  7X41889     0.2179
      6  N16        9.7270    4.8120   11.9070 N.pl3 1889  7X41889    -0.1787
      7  C17        9.0770    3.6200   12.2740 C.ar  1889  7X41889     0.1206
      8  C18        9.0510    3.2020   13.6120 C.ar  1889  7X41889     0.1924
      9  O19        9.5940    3.8200   14.7130 O.3   1889  7X41889    -0.4333
     10  C20        9.5910    2.7890   15.7330 C.3   1889  7X41889     0.4294
     11  O21        8.5220    1.8730   15.3200 O.3   1889  7X41889    -0.4346
     12  C22        8.4030    2.0170   13.9740 C.ar  1889  7X41889     0.1778
     13  C23        7.7650    1.2030   13.0270 C.ar  1889  7X41889     0.0411
     14  C24        7.8440    1.6470   11.6930 C.ar  1889  7X41889     0.0160
     15  C25        8.4750    2.8400   11.3010 C.ar  1889  7X41889     0.0761
     16 CL2         8.5480    3.3740    9.6200 Cl    1889  7X41889    -0.0808
     17  N27       11.6620    6.1650   11.7000 N.2   1889  7X41889    -0.3189
     18  N1        15.5190   12.2480    9.5740 N.3   1889  7X41889     0.0392
     19  S2        14.6830   12.4160   10.9870 S.O2  1889  7X41889     0.0935
     20  O3        15.6060   12.1570   12.0490 O.2   1889  7X41889    -0.1503
     21  O4        13.9320   13.6460   10.9730 O.2   1889  7X41889    -0.1503
     22  C5        13.5240   11.0960   11.0400 C.ar  1889  7X41889     0.1264
     23  C6        12.1580   11.3120   10.9290 C.ar  1889  7X41889     0.0201
     24  C7        11.2720   10.2470   10.9780 C.ar  1889  7X41889     0.0027
     25  C8        11.7510    8.9500   11.1610 C.ar  1889  7X41889     0.0174
     26  C9        13.1240    8.7400   11.2790 C.ar  1889  7X41889     0.0839
     27  N10       13.6840    7.4780   11.4750 N.pl3 1889  7X41889    -0.1357
     28  C28       14.0120    9.8250   11.2270 C.ar  1889  7X41889     0.0373
@<TRIPOS>BOND
     1    18    19    1
     2    16    15    1
     3    23    24   ar
     4    23    22   ar
     5    21    19    2
     6    24    25   ar
     7    19    22    1
     8    19    20    2
     9    22    28   ar
    10    25    26   ar
    11    28    26   ar
    12    26    27    1
    13    15    14   ar
    14    15     7   ar
    15    27     1    1
    16    14    13   ar
    17    17     1    2
    18    17     5    2
    19     1     2    2
    20     6     5    1
    21     6     7    1
    22     5     4    1
    23     2     3    1
    24     7     8   ar
    25     4     3    2
    26    13    12   ar
    27     8    12   ar
    28     8     9    1
    29    12    11    1
    30     9    10    1
    31    11    10    1
