@<TRIPOS>MOLECULE
2vwy_7X5_A_1.pdb
 28 31 0 0 0
SMALL
GASTEIGER

@<TRIPOS>ATOM
      1  N1        13.7700    7.5110   11.5220 N.pl3 1889  7X51889    -0.1357
      2  C7        13.1190    6.3010   11.8330 C.1   1889  7X51889     0.1709
      3  N2        13.9870    5.3590   12.2370 N.2   1889  7X51889    -0.1683
      4  C8        13.4830    4.1580   12.5420 C.2   1889  7X51889     0.1158
      5  C9        12.1480    3.8860   12.4540 C.2   1889  7X51889     0.0720
      6  C10       11.3220    4.9190   12.0260 C.2   1889  7X51889     0.2179
      7  N3         9.9220    4.7170   11.9110 N.pl3 1889  7X51889    -0.1787
      8  C11        9.2720    3.5320   12.2780 C.ar  1889  7X51889     0.1206
      9  C12        9.1930    3.1180   13.5940 C.ar  1889  7X51889     0.1924
     10  O3         9.7500    3.7850   14.6630 O.3   1889  7X51889    -0.4333
     11  C13        9.5580    2.7950   15.6960 C.3   1889  7X51889     0.4294
     12  O4         8.5970    1.7730   15.3270 O.3   1889  7X51889    -0.4346
     13  C14        8.5420    1.9860   13.9670 C.ar  1889  7X51889     0.1778
     14  C15        7.9340    1.1670   13.0460 C.ar  1889  7X51889     0.0411
     15  C16        8.0080    1.5550   11.7220 C.ar  1889  7X51889     0.0160
     16  C17        8.6550    2.7210   11.3420 C.ar  1889  7X51889     0.0761
     17 CL1         8.7180    3.1820    9.6760 Cl    1889  7X51889    -0.0808
     18  N4        11.7910    6.1280   11.7170 N.2   1889  7X51889    -0.3189
     19  C1         9.4790    8.8260    8.1730 C.3   1889  7X51889     0.1816
     20  S1         9.4320    9.8170    9.6410 S.O2  1889  7X51889     0.0105
     21  O1         9.1170   11.1510    9.1760 O.2   1889  7X51889    -0.1686
     22  O2         8.5740    9.1340   10.5890 O.2   1889  7X51889    -0.1686
     23  C2        11.1450    9.7890   10.1520 C.ar  1889  7X51889     0.1070
     24  C3        11.8640   10.9590   10.0540 C.ar  1889  7X51889     0.0184
     25  C4        13.1870   10.9670   10.4360 C.ar  1889  7X51889     0.0027
     26  C5        13.7860    9.8220   10.9140 C.ar  1889  7X51889     0.0174
     27  C6        13.0790    8.6440   11.0200 C.ar  1889  7X51889     0.0839
     28  C18       11.7450    8.6360   10.6320 C.ar  1889  7X51889     0.0357
@<TRIPOS>BOND
     1    19    20    1
     2    21    20    2
     3    20    23    1
     4    20    22    2
     5    17    16    1
     6    24    23   ar
     7    24    25   ar
     8    23    28   ar
     9    25    26   ar
    10    28    27   ar
    11    26    27   ar
    12    27     1    1
    13    16    15   ar
    14    16     8   ar
    15     1     2    1
    16    18     2    2
    17    18     6    2
    18    15    14   ar
    19     2     3    2
    20     7     6    1
    21     7     8    1
    22     6     5    1
    23     3     4    1
    24     8     9   ar
    25     5     4    2
    26    14    13   ar
    27     9    13   ar
    28     9    10    1
    29    13    12    1
    30    10    11    1
    31    12    11    1
