@<TRIPOS>MOLECULE
2vwz_7X6_A_1.pdb
 29 32 0 0 0
SMALL
GASTEIGER

@<TRIPOS>ATOM
      1  N2        13.6440    7.4540   11.6170 N.pl3 1889  7X61889    -0.1357
      2  C7        13.0090    6.2490   11.8950 C.1   1889  7X61889     0.1709
      3  N3        13.8960    5.2800   12.1850 N.2   1889  7X61889    -0.1683
      4  C8        13.3820    4.0620   12.4540 C.2   1889  7X61889     0.1158
      5  C9        12.0160    3.8610   12.4040 C.2   1889  7X61889     0.0720
      6  C10       11.1920    4.9240   12.0710 C.2   1889  7X61889     0.2179
      7  N4         9.7940    4.7930   12.0020 N.pl3 1889  7X61889    -0.1787
      8  C11        9.1300    3.5770   12.3000 C.ar  1889  7X61889     0.1206
      9  C12        9.0560    3.1010   13.5970 C.ar  1889  7X61889     0.1924
     10  O3         9.6260    3.7260   14.6940 O.3   1889  7X61889    -0.4333
     11  C13        9.4080    2.7060   15.7110 C.3   1889  7X61889     0.4294
     12  O4         8.4610    1.7000   15.2850 O.3   1889  7X61889    -0.4346
     13  C14        8.3970    1.9480   13.9370 C.ar  1889  7X61889     0.1778
     14  C15        7.7790    1.1560   13.0030 C.ar  1889  7X61889     0.0411
     15  C16        7.8520    1.6090   11.6820 C.ar  1889  7X61889     0.0160
     16  C17        8.5030    2.8030   11.3300 C.ar  1889  7X61889     0.0761
     17 CL1         8.5590    3.3520    9.6570 Cl    1889  7X61889    -0.0808
     18  N5        11.6830    6.1270   11.8280 N.2   1889  7X61889    -0.3189
     19  C1         9.4280    8.4370    8.1980 C.3   1889  7X61889     0.2016
     20  S1         8.7140    9.0380    9.7100 S.O2  1889  7X61889     0.0750
     21  O1         8.6090    7.8620   10.5640 O.2   1889  7X61889    -0.1528
     22  O2         7.5060    9.7720    9.3450 O.2   1889  7X61889    -0.1528
     23  N1         9.8050   10.2680   10.2030 N.pl3 1889  7X61889    -0.1006
     24  C2        11.1830    9.9940   10.5020 C.ar  1889  7X61889     0.0920
     25  C3        12.0320   11.0760   10.3620 C.ar  1889  7X61889     0.0181
     26  C4        13.3790   10.9380   10.6190 C.ar  1889  7X61889     0.0027
     27  C5        13.8790    9.7270   11.0370 C.ar  1889  7X61889     0.0174
     28  C6        13.0190    8.6390   11.1860 C.ar  1889  7X61889     0.0839
     29  C18       11.6650    8.7590   10.9310 C.ar  1889  7X61889     0.0354
@<TRIPOS>BOND
     1    19    20    1
     2    22    20    2
     3    17    16    1
     4    20    23    1
     5    20    21    2
     6    23    24    1
     7    25    24   ar
     8    25    26   ar
     9    24    29   ar
    10    26    27   ar
    11    29    28   ar
    12    27    28   ar
    13    28     1    1
    14    16    15   ar
    15    16     8   ar
    16     1     2    1
    17    15    14   ar
    18    18     2    2
    19    18     6    2
    20     2     3    2
    21     7     6    1
    22     7     8    1
    23     6     5    1
    24     3     4    1
    25     8     9   ar
    26     5     4    2
    27    14    13   ar
    28     9    13   ar
    29     9    10    1
    30    13    12    1
    31    10    11    1
    32    12    11    1
