@<TRIPOS>MOLECULE
2vx0_7X7_A_1.pdb
 30 34 0 0 0
SMALL
GASTEIGER

@<TRIPOS>ATOM
      1 CL1         8.7820    3.2420    9.5940 Cl    1889  7X71889    -0.0808
      2  C1         8.6840    2.7470   11.2530 C.ar  1889  7X71889     0.0761
      3  C2         8.0450    1.5540   11.5940 C.ar  1889  7X71889     0.0160
      4  C3         7.9560    1.1520   12.9270 C.ar  1889  7X71889     0.0411
      5  C4         8.5420    1.9740   13.8680 C.ar  1889  7X71889     0.1778
      6  O1         8.5970    1.7850   15.2230 O.3   1889  7X71889    -0.4346
      7  C5         9.3990    2.8980   15.6520 C.3   1889  7X71889     0.4294
      8  O2         9.6930    3.8150   14.5900 O.3   1889  7X71889    -0.4333
      9  C6         9.1570    3.1440   13.5230 C.ar  1889  7X71889     0.1924
     10  C7         9.2410    3.5700   12.2190 C.ar  1889  7X71889     0.1206
     11  N1         9.8880    4.7770   11.9230 N.pl3 1889  7X71889    -0.1787
     12  C8        11.2780    4.9530   12.0470 C.2   1889  7X71889     0.2179
     13  C9        12.0640    3.8910   12.4910 C.2   1889  7X71889     0.0720
     14  C10       13.3960    4.1330   12.5900 C.2   1889  7X71889     0.1158
     15  N2        13.9280    5.3100   12.2620 N.2   1889  7X71889    -0.1683
     16  C11       13.1060    6.2770   11.8500 C.1   1889  7X71889     0.1709
     17  N3        13.7660    7.4890   11.5210 N.pl3 1889  7X71889    -0.1357
     18  C12       13.1550    8.7250   11.2730 C.ar  1889  7X71889     0.0838
     19  C13       11.7930    8.9010   11.3090 C.ar  1889  7X71889     0.0174
     20  C14       11.2440   10.1510   11.0740 C.ar  1889  7X71889     0.0026
     21  C15       12.0620   11.2180   10.7960 C.ar  1889  7X71889     0.0146
     22  C16       13.4290   11.0540   10.7500 C.ar  1889  7X71889     0.0493
     23  C17       13.9580    9.8090   10.9980 C.ar  1889  7X71889     0.0319
     24  N4        14.2400   12.1770   10.4660 N.pl3 1889  7X71889    -0.3027
     25  C18       15.6360   11.9280   10.2130 C.3   1889  7X71889     0.1231
     26  C19       16.3550   13.2800   10.1270 C.3   1889  7X71889     0.1636
     27  O3        15.7430   14.1220    9.1440 O.3   1889  7X71889    -0.3501
     28  C20       14.3950   14.3890    9.5440 C.3   1889  7X71889     0.1636
     29  C21       13.6260   13.0680    9.4760 C.3   1889  7X71889     0.1231
     30  N5        11.7730    6.1550   11.7350 N.2   1889  7X71889    -0.3189
@<TRIPOS>BOND
     1    27    28    1
     2    27    26    1
     3    29    28    1
     4    29    24    1
     5     1     2    1
     6    26    25    1
     7    25    24    1
     8    24    22    1
     9    22    21   ar
    10    22    23   ar
    11    21    20   ar
    12    23    18   ar
    13    20    19   ar
    14     2     3   ar
    15     2    10   ar
    16    18    19   ar
    17    18    17    1
    18    17    16    1
    19     3     4   ar
    20    30    16    2
    21    30    12    2
    22    16    15    2
    23    11    12    1
    24    11    10    1
    25    12    13    1
    26    10     9   ar
    27    15    14    1
    28    13    14    2
    29     4     5   ar
    30     9     5   ar
    31     9     8    1
    32     5     6    1
    33     8     7    1
    34     6     7    1
