@<TRIPOS>MOLECULE
2vx1_7X8_A_1.pdb
 27 30 0 0 0
SMALL
GASTEIGER

@<TRIPOS>ATOM
      1  N2        13.7070    7.4440   11.5360 N.pl3 1889  7X81889    -0.1357
      2  C7        13.0600    6.2240   11.8450 C.1   1889  7X81889     0.1709
      3  N3        13.9380    5.2740   12.1930 N.2   1889  7X81889    -0.1683
      4  C8        13.4410    4.0610   12.4820 C.2   1889  7X81889     0.1158
      5  C9        12.0940    3.7870   12.4290 C.2   1889  7X81889     0.0720
      6  C10       11.2630    4.8390   12.0520 C.2   1889  7X81889     0.2179
      7  N4         9.8770    4.6630   11.9630 N.pl3 1889  7X81889    -0.1787
      8  C11        9.2290    3.4730   12.3140 C.ar  1889  7X81889     0.1206
      9  C12        9.1620    3.0610   13.6330 C.ar  1889  7X81889     0.1924
     10  O2         9.7330    3.7180   14.7070 O.3   1889  7X81889    -0.4333
     11  C13        9.6080    2.6800   15.6890 C.3   1889  7X81889     0.4294
     12  O3         8.5880    1.7080   15.3520 O.3   1889  7X81889    -0.4346
     13  C14        8.5080    1.9160   13.9970 C.ar  1889  7X81889     0.1778
     14  C15        7.8920    1.1020   13.0770 C.ar  1889  7X81889     0.0411
     15  C16        7.9740    1.5000   11.7490 C.ar  1889  7X81889     0.0160
     16  C17        8.6170    2.6650   11.3670 C.ar  1889  7X81889     0.0761
     17 CL1         8.6910    3.1790    9.7030 Cl    1889  7X81889    -0.0808
     18  N5        11.7380    6.0490   11.7640 N.2   1889  7X81889    -0.3189
     19  N1         9.4380   10.6280    8.9260 N.am  1889  7X81889    -0.0837
     20  C1         9.7620    9.9730   10.0940 C.2   1889  7X81889     0.2842
     21  O1         8.9560    9.4620   10.8630 O.2   1889  7X81889    -0.2667
     22  C2        11.1970    9.9050   10.4050 C.ar  1889  7X81889     0.0580
     23  C3        11.9680   11.0430   10.3020 C.ar  1889  7X81889     0.0047
     24  C4        13.3100   10.9820   10.6080 C.ar  1889  7X81889     0.0015
     25  C5        13.8530    9.7840   11.0130 C.ar  1889  7X81889     0.0174
     26  C6        13.0770    8.6370   11.1110 C.ar  1889  7X81889     0.0827
     27  C18       11.7350    8.6920   10.8160 C.ar  1889  7X81889     0.0220
@<TRIPOS>BOND
     1    19    20   am
     2    17    16    1
     3    20    22    1
     4    20    21    2
     5    23    22   ar
     6    23    24   ar
     7    22    27   ar
     8    24    25   ar
     9    27    26   ar
    10    25    26   ar
    11    26     1    1
    12    16    15   ar
    13    16     8   ar
    14     1     2    1
    15    15    14   ar
    16    18     2    2
    17    18     6    2
    18     2     3    2
    19     7     6    1
    20     7     8    1
    21     6     5    1
    22     3     4    1
    23     8     9   ar
    24     5     4    2
    25    14    13   ar
    26     9    13   ar
    27     9    10    1
    28    13    12    1
    29    10    11    1
    30    12    11    1
