@<TRIPOS>MOLECULE
2vx3_D15_A_1.pdb
 32 35 0 0 0
SMALL
GASTEIGER

@<TRIPOS>ATOM
      1  CAO       39.2070   26.2760  -39.0710 C.ar  600  D15600      0.0076
      2  CAY       40.1920   27.2700  -39.1900 C.ar  600  D15600      0.0574
      3 CL1        40.0550   28.8550  -38.5250 Cl    600  D15600     -0.0823
      4  CAI       41.3690   27.0690  -39.8640 C.ar  600  D15600      0.0114
      5  CAH       41.6370   25.8750  -40.4650 C.ar  600  D15600      0.0006
      6  CAL       40.6900   24.8890  -40.3600 C.ar  600  D15600     -0.0038
      7  CBB       39.5080   25.0730  -39.6690 C.ar  600  D15600     -0.0129
      8  CBF       38.6200   23.8440  -39.6710 C.3   600  D15600      0.1023
      9  CAR       37.1810   24.2220  -39.9040 C.3   600  D15600      0.0340
     10  CAQ       37.2250   24.4650  -41.4030 C.3   600  D15600      0.1101
     11  NAA       35.9750   24.9760  -41.9250 N.3   600  D15600     -0.1314
     12  CAX       39.0250   22.8670  -38.5450 C.2   600  D15600      0.2492
     13  OAC       39.6790   21.8700  -38.8890 O.2   600  D15600     -0.2726
     14  NAT       38.7770   23.1550  -37.2610 N.am  600  D15600     -0.1793
     15  CAZ       39.2550   22.3040  -36.3070 C.2   600  D15600      0.0698
     16  CAP       40.3240   21.3460  -36.4650 C.2   600  D15600      0.0252
     17  CBE       40.7670   20.4990  -35.4050 C.2   600  D15600      0.1076
     18  CAM       38.6760   22.4030  -35.0690 C.2   600  D15600     -0.0031
     19  CAN       39.1230   21.5800  -34.0360 C.3   600  D15600      0.0773
     20  CBD       40.1350   20.6380  -34.1770 C.2   600  D15600      0.1171
     21  NAV       40.6690   19.7660  -33.3040 N.2   600  D15600     -0.0379
     22  NAS       41.5700   19.1190  -33.8580 N.2   600  D15600      0.0843
     23  CBC       41.7290   19.4950  -35.1150 C.2   600  D15600      0.3966
     24  NAU       42.6110   18.8540  -35.8780 N.am  600  D15600      0.0384
     25  CAW       43.1610   19.3750  -36.9720 C.2   600  D15600      0.3756
     26  OAB       43.0100   20.5410  -37.2890 O.2   600  D15600     -0.2377
     27  CBA       44.0490   18.4620  -37.8690 C.ar  600  D15600      0.0821
     28  CAJ       44.7460   19.0010  -38.9550 C.ar  600  D15600      0.0070
     29  CAF       45.5430   18.2020  -39.7780 C.ar  600  D15600      0.0002
     30  CAE       45.6660   16.8310  -39.5470 C.ar  600  D15600      0.0000
     31  CAG       44.9790   16.3190  -38.4630 C.ar  600  D15600      0.0002
     32  CAK       44.1730   17.1090  -37.6450 C.ar  600  D15600      0.0070
@<TRIPOS>BOND
     1    11    10    1
     2    10     9    1
     3     5     6   ar
     4     5     4   ar
     5     6     7   ar
     6     9     8    1
     7     4     2   ar
     8    29    30   ar
     9    29    28   ar
    10     8     7    1
    11     8    12    1
    12     7     1   ar
    13    30    31   ar
    14     2     1   ar
    15     2     3    1
    16    28    27   ar
    17    13    12    2
    18    12    14   am
    19    31    32   ar
    20    27    32   ar
    21    27    25    1
    22    26    25    2
    23    14    15    1
    24    25    24   am
    25    16    15    1
    26    16    17    2
    27    15    18    2
    28    24    23    1
    29    17    23    1
    30    17    20    1
    31    23    22    2
    32    18    19    1
    33    20    19    1
    34    20    21    2
    35    22    21    1
