@<TRIPOS>MOLECULE
2vx5_BMA_A_1.pdb
 12 12 0 0 0
SMALL
GASTEIGER

@<TRIPOS>ATOM
      1  C1        54.7390   53.0520  -15.2190 C.3   1420  BMA1420     0.3024
      2  C2        55.8340   53.4860  -16.1600 C.3   1420  BMA1420     0.2434
      3  C3        55.2530   53.3560  -17.5540 C.3   1420  BMA1420     0.2199
      4  C4        54.7850   51.9250  -17.8060 C.3   1420  BMA1420     0.2144
      5  C5        53.8330   51.4850  -16.6990 C.3   1420  BMA1420     0.1836
      6  C6        53.4450   50.0210  -16.8720 C.3   1420  BMA1420     0.2142
      7  O1        55.1910   53.2410  -13.8970 O.3   1420  BMA1420    -0.1869
      8  O2        56.9440   52.6370  -15.9740 O.3   1420  BMA1420    -0.2148
      9  O3        56.2190   53.7560  -18.5110 O.3   1420  BMA1420    -0.2174
     10  O4        54.1270   51.8110  -19.0560 O.3   1420  BMA1420    -0.2176
     11  O5        54.4370   51.6900  -15.4380 O.3   1420  BMA1420    -0.3236
     12  O6        54.5580   49.1700  -16.7270 O.3   1420  BMA1420    -0.2176
@<TRIPOS>BOND
     1    10     4    1
     2     9     3    1
     3     4     3    1
     4     4     5    1
     5     3     2    1
     6     6    12    1
     7     6     5    1
     8     5    11    1
     9     2     8    1
    10     2     1    1
    11    11     1    1
    12     1     7    1
