@<TRIPOS>MOLECULE
2vx6_BMA_A_1.pdb
 12 12 0 0 0
SMALL
GASTEIGER

@<TRIPOS>ATOM
      1  C1        50.9210   62.6240   -6.7120 C.3   1421  BMA1421     0.3024
      2  C2        50.8620   61.2130   -6.1710 C.3   1421  BMA1421     0.2434
      3  C3        51.2330   60.1990   -7.2520 C.3   1421  BMA1421     0.2199
      4  C4        50.3930   60.3940   -8.5290 C.3   1421  BMA1421     0.2144
      5  C5        50.3220   61.8840   -8.9020 C.3   1421  BMA1421     0.1836
      6  C6        49.2920   62.1090  -10.0150 C.3   1421  BMA1421     0.2142
      7  O1        50.5500   63.4980   -5.6670 O.3   1421  BMA1421    -0.1869
      8  O2        49.5470   60.9970   -5.6910 O.3   1421  BMA1421    -0.2148
      9  O3        51.0540   58.9150   -6.6920 O.3   1421  BMA1421    -0.2174
     10  O4        50.9200   59.7070   -9.6730 O.3   1421  BMA1421    -0.2176
     11  O5        50.0130   62.7230   -7.7940 O.3   1421  BMA1421    -0.3236
     12  O6        49.6360   63.2410  -10.7950 O.3   1421  BMA1421    -0.2176
@<TRIPOS>BOND
     1    12     6    1
     2     6     5    1
     3    10     4    1
     4     5     4    1
     5     5    11    1
     6     4     3    1
     7    11     1    1
     8     3     9    1
     9     3     2    1
    10     1     2    1
    11     1     7    1
    12     2     8    1
