@<TRIPOS>MOLECULE
2vx7_MAB_A_1.pdb
 23 24 0 0 0
SMALL
GASTEIGER

@<TRIPOS>ATOM
      1  C1A      -24.0220   -1.3850   91.4850 C.3   1420  MAB1420     0.3023
      2  C2A      -23.0660   -2.1430   92.3890 C.3   1420  MAB1420     0.2433
      3  C3A      -23.3080   -1.4820   93.7270 C.3   1420  MAB1420     0.2168
      4  C4A      -23.1380    0.0430   93.6290 C.3   1420  MAB1420     0.1804
      5  C5A      -23.8300    0.6070   92.3910 C.3   1420  MAB1420     0.1804
      6  C6A      -23.6260    2.1140   92.2380 C.3   1420  MAB1420     0.2141
      7  O2A      -21.7110   -1.9060   92.0400 O.3   1420  MAB1420    -0.2148
      8  O3A      -22.3470   -2.0170   94.6110 O.3   1420  MAB1420    -0.2175
      9  O4A      -23.7370    0.7820   94.6760 O.3   1420  MAB1420    -0.3257
     10  O5A      -23.4180   -0.1300   91.2630 O.3   1420  MAB1420    -0.3237
     11  O6A      -22.2640    2.4150   92.0920 O.3   1420  MAB1420    -0.2176
     12  C1B      -23.5940    0.2600   95.9980 C.3   1420  MAB1420     0.2695
     13  C2B      -23.7360    1.4630   96.9110 C.3   1420  MAB1420     0.2406
     14  C3B      -23.6300    1.0630   98.3760 C.3   1420  MAB1420     0.2198
     15  C4B      -24.6110   -0.0580   98.6830 C.3   1420  MAB1420     0.2144
     16  C5B      -24.5380   -1.1650   97.6330 C.3   1420  MAB1420     0.1835
     17  C6B      -25.6510   -2.2010   97.8390 C.3   1420  MAB1420     0.2142
     18  O2B      -25.0050    2.0330   96.6720 O.3   1420  MAB1420    -0.2149
     19  O3B      -23.9030    2.1910   99.1620 O.3   1420  MAB1420    -0.2174
     20  O4B      -24.3530   -0.5930   99.9720 O.3   1420  MAB1420    -0.2176
     21  O5B      -24.6170   -0.6630   96.3100 O.3   1420  MAB1420    -0.3256
     22  O6B      -26.9360   -1.6140   97.7450 O.3   1420  MAB1420    -0.2176
     23  O1A      -24.3240   -2.1000   90.3390 O.3   1420  MAB1420    -0.1869
@<TRIPOS>BOND
     1    23     1    1
     2    10     1    1
     3    10     5    1
     4     1     2    1
     5     7     2    1
     6    11     6    1
     7     6     5    1
     8     2     3    1
     9     5     4    1
    10     4     3    1
    11     4     9    1
    12     3     8    1
    13     9    12    1
    14    12    21    1
    15    12    13    1
    16    21    16    1
    17    18    13    1
    18    13    14    1
    19    16    17    1
    20    16    15    1
    21    22    17    1
    22    14    15    1
    23    14    19    1
    24    15    20    1
