@<TRIPOS>MOLECULE
2vx9_RBF_A_1.pdb
 27 29 0 0 0
SMALL
GASTEIGER

@<TRIPOS>ATOM
      1  N1        22.9590   74.4260   71.3190 N.2   1064  RBF1064    -0.2890
      2  C2        22.5310   75.5160   71.9860 C.1   1064  RBF1064     0.3669
      3  O2        23.4110   76.2870   72.4870 O.2   1064  RBF1064    -0.1744
      4  N3        21.2180   75.7920   72.1170 N.2   1064  RBF1064    -0.2300
      5  C4        20.2330   75.0320   71.6490 C.1   1064  RBF1064     0.2513
      6  O4        19.0160   75.3420   71.8070 O.2   1064  RBF1064    -0.2057
      7  C4A       20.6130   73.8160   70.8950 C.2   1064  RBF1064     0.2700
      8  N5        19.6900   72.9980   70.3620 N.2   1064  RBF1064    -0.3878
      9  C5A       20.1070   71.8950   69.6920 C.2   1064  RBF1064     0.1320
     10  C6        19.1500   71.0470   69.1650 C.2   1064  RBF1064     0.0250
     11  C7        19.5490   69.9140   68.4520 C.2   1064  RBF1064    -0.0238
     12  C7M       18.4760   69.0220   67.8660 C.3   1064  RBF1064     0.0308
     13  C8        20.9930   69.6030   68.2900 C.2   1064  RBF1064    -0.0280
     14  C8M       21.4090   68.3620   67.5350 C.3   1064  RBF1064     0.0304
     15  C9        21.9630   70.4390   68.8360 C.2   1064  RBF1064    -0.0041
     16  C9A       21.5480   71.5770   69.5350 C.3   1064  RBF1064     0.1497
     17  N10       22.5180   72.4470   70.0860 N.pl3 1064  RBF1064    -0.2691
     18  C10       22.0610   73.5640   70.7650 C.2   1064  RBF1064     0.2416
     19  C1'       23.9750   72.2100   69.9720 C.3   1064  RBF1064     0.1294
     20  C2'       24.6650   73.1470   68.9760 C.3   1064  RBF1064     0.2044
     21  O2'       24.3680   72.6770   67.6540 O.3   1064  RBF1064    -0.2185
     22  C3'       26.1900   73.1920   69.1660 C.3   1064  RBF1064     0.2166
     23  O3'       26.6940   71.8540   69.3040 O.3   1064  RBF1064    -0.2175
     24  C4'       26.6440   74.0040   70.3850 C.3   1064  RBF1064     0.2175
     25  O4'       26.1730   73.3910   71.5880 O.3   1064  RBF1064    -0.2175
     26  C5'       26.1940   75.4700   70.3040 C.3   1064  RBF1064     0.2175
     27  O5'       26.6670   75.9800   69.0520 O.3   1064  RBF1064    -0.2175
@<TRIPOS>BOND
     1    14    13    1
     2    21    20    1
     3    12    11    1
     4    13    11    1
     5    13    15    2
     6    11    10    2
     7    15    16    1
     8    20    22    1
     9    20    19    1
    10    27    26    1
    11    10     9    1
    12    22    23    1
    13    22    24    1
    14    16     9    1
    15    16    17    1
    16     9     8    2
    17    19    17    1
    18    17    18    1
    19    26    24    1
    20     8     7    2
    21    24    25    1
    22    18     7    1
    23    18     1    2
    24     7     5    1
    25     1     2    2
    26     5     6    2
    27     5     4    2
    28     2     4    2
    29     2     3    2
