@<TRIPOS>MOLECULE
2vxa_RBF_A_1.pdb
 27 29 0 0 0
SMALL
GASTEIGER

@<TRIPOS>ATOM
      1  N1       -25.9440  -39.1100    2.4940 N.2   200  RBF200     -0.2890
      2  C2       -27.0700  -38.9010    3.2140 C.1   200  RBF200      0.3669
      3  O2       -28.1500  -39.1510    2.6690 O.2   200  RBF200     -0.1744
      4  N3       -27.0550  -38.4210    4.4730 N.2   200  RBF200     -0.2300
      5  C4       -25.8950  -38.1270    5.0960 C.1   200  RBF200      0.2513
      6  O4       -25.8560  -37.6890    6.2610 O.2   200  RBF200     -0.2057
      7  C4A      -24.6280  -38.3190    4.3650 C.2   200  RBF200      0.2700
      8  N5       -23.4510  -38.0310    4.9140 N.2   200  RBF200     -0.3878
      9  C5A      -22.2970  -38.2030    4.2360 C.2   200  RBF200      0.1320
     10  C6       -21.0920  -37.8990    4.8420 C.2   200  RBF200      0.0250
     11  C7       -19.9040  -38.0670    4.1700 C.2   200  RBF200     -0.0238
     12  C7M      -18.6110  -37.7240    4.8540 C.3   200  RBF200      0.0308
     13  C8       -19.9200  -38.5650    2.7770 C.2   200  RBF200     -0.0280
     14  C8M      -18.6310  -38.7740    2.0220 C.3   200  RBF200      0.0304
     15  C9       -21.1210  -38.8830    2.1710 C.2   200  RBF200     -0.0041
     16  C9A      -22.3150  -38.7170    2.8580 C.3   200  RBF200      0.1497
     17  N10      -23.5570  -39.0090    2.2710 N.pl3 200  RBF200     -0.2691
     18  C10      -24.7230  -38.8280    3.0060 C.2   200  RBF200      0.2416
     19  C1'      -23.6590  -39.5590    0.9340 C.3   200  RBF200      0.1294
     20  C2'      -23.6110  -38.4940   -0.1220 C.3   200  RBF200      0.2044
     21  O2'      -24.9460  -38.0290   -0.3910 O.3   200  RBF200     -0.2185
     22  C3'      -22.8960  -39.2060   -1.2770 C.3   200  RBF200      0.2166
     23  O3'      -21.8440  -38.4110   -1.8410 O.3   200  RBF200     -0.2175
     24  C4'      -23.7940  -39.6010   -2.4120 C.3   200  RBF200      0.2175
     25  O4'      -24.9780  -40.1090   -1.8300 O.3   200  RBF200     -0.2175
     26  C5'      -23.0700  -40.6730   -3.2280 C.3   200  RBF200      0.2175
     27  O5'      -21.8480  -40.1040   -3.7420 O.3   200  RBF200     -0.2175
@<TRIPOS>BOND
     1    27    26    1
     2    26    24    1
     3    24    25    1
     4    24    22    1
     5    23    22    1
     6    22    20    1
     7    21    20    1
     8    20    19    1
     9    19    17    1
    10    14    13    1
    11    15    13    2
    12    15    16    1
    13    17    16    1
    14    17    18    1
    15     1    18    2
    16     1     2    2
    17     3     2    2
    18    13    11    1
    19    16     9    1
    20    18     7    1
    21     2     4    2
    22    11    10    2
    23    11    12    1
    24     9    10    1
    25     9     8    2
    26     7     8    2
    27     7     5    1
    28     4     5    2
    29     5     6    2
