@<TRIPOS>MOLECULE
2vxc_III_C_1.pdb
 37 36 0 0 0
SMALL
GASTEIGER

@<TRIPOS>ATOM
      1  N        -10.3960   18.0240    7.8540 N.3   139  SER139     -0.1203
      2  CA       -11.1350   17.2410    6.8650 C.3   139  SER139      0.1992
      3  CB       -12.0780   18.1380    6.0540 C.3   139  SER139      0.1820
      4  OG       -11.6540   19.4920    6.0750 O.3   139  SER139     -0.2682
      5  C        -10.2220   16.4350    5.9410 C.2   139  SER139      0.2618
      6  O        -10.4940   16.2950    4.7490 O.2   139  SER139     -0.2717
      7  P        -12.9190   20.4390    5.7710 P.3   139  SER139      0.5327
      8  O1P      -12.9080   21.6990    6.7930 O.3   139  SER139     -0.1145
      9  O2P      -14.2530   19.5560    5.9480 O.3   139  SER139     -0.1145
     10  O3P      -12.8530   20.9080    4.2360 O.2   139  SER139     -0.2224
     11  N         -9.1390   15.9220    6.5130 N.am  140  GLN140     -0.1965
     12  CA        -8.2240   14.9880    5.8460 C.3   140  GLN140      0.1733
     13  C         -6.8940   15.5620    5.3760 C.2   140  GLN140      0.2616
     14  O         -5.8550   15.3030    5.9840 O.2   140  GLN140     -0.2715
     15  CB        -8.8930   14.2120    4.7050 C.3   140  GLN140      0.0408
     16  CG        -9.2400   12.7730    5.0670 C.3   140  GLN140      0.0908
     17  CD        -8.0200   11.9420    5.4600 C.2   140  GLN140      0.2608
     18  OE1       -7.6480   11.0020    4.7580 O.2   140  GLN140     -0.2717
     19  NE2       -7.3980   12.2850    6.5840 N.am  140  GLN140     -0.0878
     20  N         -6.9180   16.3220    4.2890 N.am  141  GLU141     -0.1963
     21  CA        -5.6830   16.6530    3.5960 C.3   141  GLU141      0.1733
     22  C         -5.0970   15.3540    3.0500 C.2   141  GLU141      0.2617
     23  O         -5.3630   14.2760    3.5830 O.2   141  GLU141     -0.2715
     24  CB        -4.6900   17.3420    4.5330 C.3   141  GLU141      0.0429
     25  CG        -5.0010   18.8000    4.8010 C.3   141  GLU141      0.1163
     26  CD        -4.6560   19.7030    3.6240 C.2   141  GLU141      0.3649
     27  OE1       -4.8650   19.2970    2.4550 O.co2 141  GLU141     -0.2457
     28  OE2       -4.1750   20.8290    3.8750 O.co2 141  GLU141     -0.2457
     29  N         -4.3110   15.4540    1.9830 N.am  142  LEU142     -0.1942
     30  CA        -3.7990   14.2680    1.3020 C.3   142  LEU142      0.1978
     31  C         -2.3890   14.4880    0.7650 C.2   142  LEU142      0.3842
     32  O         -1.9700   13.8190   -0.1840 O.co2 142  LEU142     -0.2437
     33  CB        -4.7380   13.8500    0.1610 C.3   142  LEU142      0.0333
     34  CG        -5.8200   12.7870    0.4100 C.3   142  LEU142      0.0023
     35  CD1       -6.8680   13.2080    1.4450 C.3   142  LEU142      0.0001
     36  CD2       -6.4890   12.4180   -0.9080 C.3   142  LEU142      0.0001
     37  OXT       -1.6470   15.3380    1.2640 O.co2 142  LEU142     -0.2437
@<TRIPOS>BOND
     1    36    34    1
     2    32    31   ar
     3    33    34    1
     4    33    30    1
     5    34    35    1
     6    31    37   ar
     7    31    30    1
     8    30    29    1
     9    29    22   am
    10    27    26   ar
    11    22    23    2
    12    22    21    1
    13    21    20    1
    14    21    24    1
    15    26    28   ar
    16    26    25    1
    17    10     7    2
    18    20    13   am
    19    24    25    1
    20    15    16    1
    21    15    12    1
    22     6     5    2
    23    18    17    2
    24    16    17    1
    25    13    12    1
    26    13    14    2
    27    17    19   am
    28     7     9    1
    29     7     4    1
    30     7     8    1
    31    12    11    1
    32     5    11   am
    33     5     2    1
    34     3     4    1
    35     3     2    1
    36     2     1    1
