@<TRIPOS>MOLECULE
2vxh_HEM_A_1.pdb
 43 50 0 0 0
SMALL
GASTEIGER

@<TRIPOS>ATOM
      1 FE        128.0630   55.4440   38.8400 Fe    1001  HEM1001     0.0000
      2  CHA      124.9410   56.7080   39.5640 C.2   1001  HEM1001     0.0000
      3  CHB      129.5560   58.1160   40.4320 C.2   1001  HEM1001     0.0000
      4  CHC      131.2080   54.4470   37.6920 C.2   1001  HEM1001     0.0000
      5  CHD      126.6720   52.6230   37.4560 C.2   1001  HEM1001     0.0000
      6  NA       127.3760   57.1360   39.8020 N.2   1001  HEM1001     0.0000
      7  C1A      126.0440   57.4330   40.0250 C.2   1001  HEM1001     0.0000
      8  C2A      126.0290   58.6360   40.8410 C.2   1001  HEM1001     0.0000
      9  C3A      127.3000   59.0290   41.0550 C.2   1001  HEM1001     0.0000
     10  C4A      128.1720   58.0890   40.4030 C.2   1001  HEM1001     0.0000
     11  CMA      127.8170   60.2480   41.8540 C.3   1001  HEM1001     0.0000
     12  CAA      124.7440   59.3370   41.3440 C.3   1001  HEM1001     0.0000
     13  CBA      124.1390   60.2700   40.2990 C.3   1001  HEM1001     0.0000
     14  CGA      122.9770   60.9850   40.9740 C.2   1001  HEM1001     0.0000
     15  O1A      121.9070   61.2050   40.3400 O.co2 1001  HEM1001     0.0000
     16  O2A      123.1380   61.3430   42.1680 O.co2 1001  HEM1001     0.0000
     17  NB       130.0510   56.1480   39.0600 N.ar  1001  HEM1001     0.0000
     18  C1B      130.4100   57.2870   39.7340 C.ar  1001  HEM1001     0.0000
     19  C2B      131.8310   57.4630   39.5650 C.ar  1001  HEM1001     0.0000
     20  C3B      132.2890   56.4720   38.7890 C.ar  1001  HEM1001     0.0000
     21  C4B      131.1760   55.6110   38.4500 C.ar  1001  HEM1001     0.0000
     22  CMB      132.6610   58.6190   40.1570 C.3   1001  HEM1001     0.0000
     23  CAB      133.7540   56.2780   38.3260 C.2   1001  HEM1001     0.0000
     24  CBB      133.9710   56.2830   37.0050 C.2   1001  HEM1001     0.0000
     25  NC       128.8210   53.8140   37.7480 N.2   1001  HEM1001     0.0000
     26  C1C      130.1500   53.5890   37.4440 C.2   1001  HEM1001     0.0000
     27  C2C      130.2030   52.2990   36.8000 C.2   1001  HEM1001     0.0000
     28  C3C      128.9500   51.7970   36.7250 C.2   1001  HEM1001     0.0000
     29  C4C      128.0450   52.7470   37.3280 C.2   1001  HEM1001     0.0000
     30  CMC      131.5060   51.6490   36.2750 C.3   1001  HEM1001     0.0000
     31  CAC      128.5470   50.4230   36.1430 C.2   1001  HEM1001     0.0000
     32  CBC      127.8870   50.3070   35.0020 C.2   1001  HEM1001     0.0000
     33  ND       126.0770   54.7590   38.5640 N.ar  1001  HEM1001     0.0000
     34  C1D      125.7600   53.5620   37.9140 C.ar  1001  HEM1001     0.0000
     35  C2D      124.3150   53.4840   37.8050 C.ar  1001  HEM1001     0.0000
     36  C3D      123.7680   54.7450   38.4510 C.ar  1001  HEM1001     0.0000
     37  C4D      124.9320   55.4840   38.9130 C.ar  1001  HEM1001     0.0000
     38  CMD      123.4570   52.3540   37.1770 C.3   1001  HEM1001     0.0000
     39  CAD      122.2750   55.1050   38.6190 C.3   1001  HEM1001     0.0000
     40  CBD      121.9850   54.8280   40.1030 C.3   1001  HEM1001     0.0000
     41  CGD      120.5940   55.2440   40.5100 C.2   1001  HEM1001     0.0000
     42  O1D      120.2410   56.4340   40.3170 O.co2 1001  HEM1001     0.0000
     43  O2D      119.8400   54.3770   41.0310 O.co2 1001  HEM1001     0.0000
@<TRIPOS>BOND
     1    32    31    2
     2    31    28    1
     3    30    27    1
     4    28    27    2
     5    28    29    1
     6    27    26    1
     7    24    23    2
     8    38    35    1
     9    29     5    1
    10    29    25    2
    11    26     4    2
    12    26    25    1
    13     5    34    2
    14     4    21    1
    15    25     1    1
    16    35    34   ar
    17    35    36   ar
    18    34    33   ar
    19    23    20    1
    20    21    20   ar
    21    21    17   ar
    22    36    39    1
    23    36    37   ar
    24    33     1    1
    25    33    37   ar
    26    39    40    1
    27    20    19   ar
    28     1    17    1
    29     1     6    1
    30    37     2    2
    31    17    18   ar
    32     2     7    1
    33    19    18   ar
    34    19    22    1
    35    18     3    1
    36     6     7    2
    37     6    10    1
    38     7     8    1
    39    40    41    1
    40    13    14    1
    41    13    12    1
    42    42    41   ar
    43    15    14   ar
    44    10     3    2
    45    10     9    1
    46    41    43   ar
    47     8     9    2
    48     8    12    1
    49    14    16   ar
    50     9    11    1
