@<TRIPOS>MOLECULE
2vxi_HEM_A_1.pdb
 43 50 0 0 0
SMALL
GASTEIGER

@<TRIPOS>ATOM
      1 FE         71.7180  136.6180   29.8380 Fe    200  HEM200      0.0000
      2  CHA       70.0060  138.2230   27.4450 C.2   200  HEM200      0.0000
      3  CHB       74.5670  137.3390   28.2860 C.2   200  HEM200      0.0000
      4  CHC       73.3980  134.9710   32.2130 C.2   200  HEM200      0.0000
      5  CHD       68.7880  135.8600   31.4470 C.2   200  HEM200      0.0000
      6  NA        72.2120  137.5870   28.1050 N.ar  200  HEM200      0.0000
      7  C1A       71.3550  138.2410   27.3080 C.ar  200  HEM200      0.0000
      8  C2A       72.1520  138.9160   26.2990 C.ar  200  HEM200      0.0000
      9  C3A       73.4090  138.6800   26.5540 C.ar  200  HEM200      0.0000
     10  C4A       73.4620  137.8250   27.7080 C.ar  200  HEM200      0.0000
     11  CMA       74.6010  139.1940   25.7620 C.3   200  HEM200      0.0000
     12  CAA       71.6350  139.8150   25.1850 C.3   200  HEM200      0.0000
     13  CBA       71.4120  141.1900   25.7860 C.3   200  HEM200      0.0000
     14  CGA       71.0530  142.2550   24.7620 C.2   200  HEM200      0.0000
     15  O1A       71.8620  142.5810   23.9160 O.co2 200  HEM200      0.0000
     16  O2A       69.9460  142.7290   24.8070 O.co2 200  HEM200      0.0000
     17  NB        73.6050  136.2390   30.1870 N.2   200  HEM200      0.0000
     18  C1B       74.6490  136.6130   29.4190 C.2   200  HEM200      0.0000
     19  C2B       75.8720  136.1230   30.0030 C.2   200  HEM200      0.0000
     20  C3B       75.4940  135.4960   31.0690 C.2   200  HEM200      0.0000
     21  C4B       74.0930  135.5420   31.2130 C.2   200  HEM200      0.0000
     22  CMB       77.3400  136.2940   29.5500 C.3   200  HEM200      0.0000
     23  CAB       76.3850  134.7970   32.0540 C.2   200  HEM200      0.0000
     24  CBB       77.4930  134.3100   31.5610 C.2   200  HEM200      0.0000
     25  NC        71.1800  135.5900   31.5040 N.ar  200  HEM200      0.0000
     26  C1C       72.0500  135.0080   32.3700 C.ar  200  HEM200      0.0000
     27  C2C       71.2850  134.4460   33.4460 C.ar  200  HEM200      0.0000
     28  C3C       70.0410  134.7150   33.2020 C.ar  200  HEM200      0.0000
     29  C4C       69.9460  135.4490   31.9950 C.ar  200  HEM200      0.0000
     30  CMC       71.7780  133.6980   34.6870 C.3   200  HEM200      0.0000
     31  ND        69.6350  136.9960   29.5240 N.2   200  HEM200      0.0000
     32  C1D       68.6300  136.5460   30.3010 C.2   200  HEM200      0.0000
     33  C2D       67.3860  136.9370   29.6970 C.2   200  HEM200      0.0000
     34  C3D       67.7710  137.6920   28.4580 C.2   200  HEM200      0.0000
     35  C4D       69.2210  137.6620   28.4260 C.2   200  HEM200      0.0000
     36  CMD       65.9710  136.6700   30.1810 C.3   200  HEM200      0.0000
     37  CAD       66.8420  138.3130   27.4160 C.3   200  HEM200      0.0000
     38  CBD       66.4450  137.2370   26.4300 C.3   200  HEM200      0.0000
     39  CGD       65.4330  137.7060   25.4150 C.2   200  HEM200      0.0000
     40  O1D       65.8160  138.1110   24.3360 O.co2 200  HEM200      0.0000
     41  O2D       64.2550  137.6780   25.6690 O.co2 200  HEM200      0.0000
     42  CAC       69.1040  134.2670   34.2080 C.2   200  HEM200      0.0000
     43  CBC       67.8670  134.4020   33.9220 C.2   200  HEM200      0.0000
@<TRIPOS>BOND
     1    15    14   ar
     2    40    39   ar
     3    14    16   ar
     4    14    13    1
     5    12    13    1
     6    12     8    1
     7    39    41   ar
     8    39    38    1
     9    11     9    1
    10     8     9   ar
    11     8     7   ar
    12    38    37    1
    13     9    10   ar
    14     7     2    2
    15     7     6   ar
    16    37    34    1
    17     2    35    1
    18    10     6   ar
    19    10     3    2
    20     6     1    1
    21     3    18    1
    22    35    34    1
    23    35    31    2
    24    34    33    2
    25    18    19    1
    26    18    17    2
    27    31     1    1
    28    31    32    1
    29    22    19    1
    30    33    36    1
    31    33    32    1
    32     1    17    1
    33     1    25    1
    34    19    20    2
    35    17    21    1
    36    32     5    2
    37    20    21    1
    38    20    23    1
    39    21     4    2
    40     5    29    1
    41    25    29   ar
    42    25    26   ar
    43    24    23    2
    44    29    28   ar
    45     4    26    1
    46    26    27   ar
    47    28    27   ar
    48    28    42    1
    49    27    30    1
    50    43    42    2
