@<TRIPOS>MOLECULE
2vxj_GLA_A_1.pdb
 11 11 0 0 0
SMALL
GASTEIGER

@<TRIPOS>ATOM
      1  C1        17.5030  -26.7530  114.9340 C.3   201  GLA201      0.1777
      2  C2        17.2490  -25.4530  114.2370 C.3   201  GLA201      0.2141
      3  C3        17.2360  -25.6190  112.7100 C.3   201  GLA201      0.2173
      4  C4        18.5290  -26.2850  112.2230 C.3   201  GLA201      0.2142
      5  C5        18.7630  -27.5650  113.0480 C.3   201  GLA201      0.1810
      6  C6        20.0510  -28.2690  112.6570 C.3   201  GLA201      0.2141
      7  O2        16.0400  -24.9790  114.7490 O.3   201  GLA201     -0.2176
      8  O3        17.0790  -24.3870  112.1050 O.3   201  GLA201     -0.2175
      9  O4        19.5930  -25.3600  112.3180 O.3   201  GLA201     -0.2176
     10  O5        18.7130  -27.3180  114.4440 O.3   201  GLA201     -0.3481
     11  O6        20.1280  -29.5580  113.2190 O.3   201  GLA201     -0.2176
@<TRIPOS>BOND
     1     8     3    1
     2     4     9    1
     3     4     3    1
     4     4     5    1
     5     6     5    1
     6     6    11    1
     7     3     2    1
     8     5    10    1
     9     2     7    1
    10     2     1    1
    11    10     1    1
