@<TRIPOS>MOLECULE
2vxj_GLC_C_1.pdb
 12 12 0 0 0
SMALL
GASTEIGER

@<TRIPOS>ATOM
      1  C1       101.1410   -3.6240   99.0090 C.3   203  GLC203      0.3024
      2  C2       101.6070   -2.1810   99.2020 C.3   203  GLC203      0.2434
      3  C3       100.5860   -1.3140   99.9390 C.3   203  GLC203      0.2199
      4  C4        99.1480   -1.5670   99.4810 C.3   203  GLC203      0.2144
      5  C5        98.8280   -3.0540   99.4100 C.3   203  GLC203      0.1836
      6  C6        97.4310   -3.3050   98.8420 C.3   203  GLC203      0.2142
      7  O1       101.2640   -4.3410  100.2170 O.3   203  GLC203     -0.1869
      8  O2       102.8250   -2.1440   99.9250 O.3   203  GLC203     -0.2148
      9  O3       100.8620    0.0550   99.7120 O.3   203  GLC203     -0.2174
     10  O4        98.3080   -0.9530  100.4190 O.3   203  GLC203     -0.2176
     11  O5        99.7880   -3.6840   98.5770 O.3   203  GLC203     -0.3236
     12  O6        97.3380   -2.7840   97.5380 O.3   203  GLC203     -0.2176
@<TRIPOS>BOND
     1    12     6    1
     2    11     1    1
     3    11     5    1
     4     6     5    1
     5     1     2    1
     6     1     7    1
     7     2     8    1
     8     2     3    1
     9     5     4    1
    10     4     3    1
    11     4    10    1
    12     9     3    1
