@<TRIPOS>MOLECULE
2vxj_GAL_A_1.pdb
 11 11 0 0 0
SMALL
GASTEIGER

@<TRIPOS>ATOM
      1  C1        15.5400  -30.6020  117.0480 C.3   202  GAL202      0.1777
      2  C2        16.0930  -29.8150  115.8520 C.3   202  GAL202      0.2141
      3  C3        16.0590  -28.2890  116.0550 C.3   202  GAL202      0.2173
      4  C4        14.6940  -27.8700  116.6350 C.3   202  GAL202      0.2142
      5  C5        14.3880  -28.7620  117.8440 C.3   202  GAL202      0.1810
      6  C6        13.1620  -28.3200  118.6300 C.3   202  GAL202      0.2141
      7  O2        17.4220  -30.2340  115.5910 O.3   202  GAL202     -0.2176
      8  O3        16.3090  -27.5870  114.8340 O.3   202  GAL202     -0.2175
      9  O4        13.6960  -28.0490  115.6590 O.3   202  GAL202     -0.2176
     10  O5        14.2780  -30.1160  117.3960 O.3   202  GAL202     -0.3481
     11  O6        13.4370  -28.5440  120.0190 O.3   202  GAL202     -0.2176
@<TRIPOS>BOND
     1     8     3    1
     2     7     2    1
     3     9     4    1
     4     2     3    1
     5     2     1    1
     6     3     4    1
     7     4     5    1
     8     1    10    1
     9    10     5    1
    10     5     6    1
    11     6    11    1
