@<TRIPOS>MOLECULE
2vxj_BGC_A_1.pdb
 12 12 0 0 0
SMALL
GASTEIGER

@<TRIPOS>ATOM
      1  C2        13.8250  -34.6700  118.6510 C.3   203  BGC203      0.2434
      2  C3        14.0020  -33.6020  117.5660 C.3   203  BGC203      0.2199
      3  C4        15.2690  -32.7640  117.8430 C.3   203  BGC203      0.2144
      4  C5        16.5030  -33.6510  118.0630 C.3   203  BGC203      0.1836
      5  C6        17.8080  -32.9110  118.3760 C.3   203  BGC203      0.2142
      6  C1        15.1330  -35.4210  118.8470 C.3   203  BGC203      0.3024
      7  O1        14.9560  -36.2370  119.9940 O.3   203  BGC203     -0.1869
      8  O2        12.8280  -35.6240  118.3170 O.3   203  BGC203     -0.2148
      9  O3        12.8740  -32.7720  117.6010 O.3   203  BGC203     -0.2174
     10  O4        15.4920  -31.9800  116.7330 O.3   203  BGC203     -0.2176
     11  O5        16.2190  -34.5410  119.1100 O.3   203  BGC203     -0.3236
     12  O6        17.6410  -32.0530  119.4860 O.3   203  BGC203     -0.2176
@<TRIPOS>BOND
     1    10     3    1
     2     2     9    1
     3     2     3    1
     4     2     1    1
     5     3     4    1
     6     4     5    1
     7     4    11    1
     8     8     1    1
     9     5    12    1
    10     1     6    1
    11     6    11    1
    12     6     7    1
