@<TRIPOS>MOLECULE
2vxk_COA_A_1.pdb
 41 43 0 0 0
SMALL
GASTEIGER

@<TRIPOS>ATOM
      1  N1A      -25.1380    0.2250   -2.1670 N.2   1193  COA1193     0.0021
      2  C2A      -23.9410    0.6900   -2.5410 C.3   1193  COA1193     0.5254
      3  N3A      -22.8350   -0.0020   -2.2370 N.2   1193  COA1193    -0.0055
      4  C4A      -22.9090   -1.1700   -1.5180 C.2   1193  COA1193     0.3518
      5  C5A      -24.1530   -1.6490   -1.1030 C.2   1193  COA1193     0.2526
      6  C6A      -25.2850   -0.9060   -1.4280 C.2   1193  COA1193     0.4393
      7  N6A      -26.5200   -1.3400   -1.0630 N.pl3 1193  COA1193     0.2180
      8  N7A      -23.9620   -2.7820   -0.4120 N.2   1193  COA1193    -0.2095
      9  C8A      -22.6360   -3.0310   -0.4050 C.3   1193  COA1193     0.3377
     10  N9A      -22.0020   -2.0410   -1.0790 N.pl3 1193  COA1193    -0.1439
     11  C1B      -20.5040   -1.9310   -1.3380 C.3   1193  COA1193     0.3185
     12  C2B      -19.5490   -2.3350   -0.2230 C.3   1193  COA1193     0.2543
     13  O2B      -19.3590   -1.2790    0.6880 O.3   1193  COA1193    -0.2131
     14  C3B      -18.2900   -2.6010   -1.0650 C.3   1193  COA1193     0.1928
     15  O3B      -17.7920   -1.3930   -1.6070 O.3   1193  COA1193    -0.2673
     16  P3B      -16.1780   -1.1890   -1.8180 P.3   1193  COA1193     0.5327
     17  O7A      -15.9690    0.3370   -2.0160 O.3   1193  COA1193    -0.1145
     18  O8A      -15.6470   -1.6620   -0.4060 O.3   1193  COA1193    -0.1145
     19  O9A      -15.7040   -2.0520   -2.9350 O.2   1193  COA1193    -0.2224
     20  C4B      -18.8400   -3.3790   -2.2850 C.3   1193  COA1193     0.1795
     21  O4B      -20.2400   -2.8740   -2.4800 O.3   1193  COA1193    -0.3136
     22  C5B      -18.9090   -4.8960   -2.1680 C.3   1193  COA1193     0.1812
     23  O5B      -19.8350   -5.1810   -1.1110 O.3   1193  COA1193    -0.3112
     24  P1A      -19.6210   -6.3230   -0.0110 P.3   1193  COA1193     0.2189
     25  O1A      -18.7070   -5.8960    1.0290 O.3   1193  COA1193    -0.4371
     26  O2A      -19.3240   -7.5680   -0.7550 O.2   1193  COA1193    -0.5170
     27  O3A      -21.1240   -6.3920    0.4800 O.3   1193  COA1193    -0.2703
     28  P2A      -21.8570   -7.3890    1.5200 P.3   1193  COA1193     0.2188
     29  O4A      -22.3640   -6.5690    2.6160 O.3   1193  COA1193    -0.4371
     30  O5A      -20.9180   -8.5190    1.8090 O.2   1193  COA1193    -0.5170
     31  O6A      -23.0180   -7.9230    0.5920 O.3   1193  COA1193    -0.3138
     32  CBP      -25.3730   -7.5390    0.2420 C.3   1193  COA1193     0.0645
     33  CCP      -23.9600   -7.1010   -0.1060 C.3   1193  COA1193     0.1519
     34  CDP      -26.3550   -6.5960   -0.4950 C.3   1193  COA1193     0.0056
     35  CEP      -25.6000   -8.9760   -0.2640 C.3   1193  COA1193     0.0056
     36  CAP      -25.5510   -7.5320    1.8030 C.3   1193  COA1193     0.2312
     37  OAP      -25.2580   -6.2370    2.3460 O.3   1193  COA1193    -0.2131
     38  C9P      -26.9760   -7.9260    2.2080 C.2   1193  COA1193     0.2720
     39  O9P      -27.3370   -9.1060    2.2500 O.2   1193  COA1193    -0.2706
     40  N8P      -27.7580   -6.8810    2.4990 N.am  1193  COA1193    -0.2014
     41  C7P      -29.1680   -7.0950    2.8690 C.3   1193  COA1193     0.1386
@<TRIPOS>BOND
     1    19    16    2
     2     2     3    1
     3     2     1    1
     4    21    20    1
     5    21    11    1
     6    20    22    1
     7    20    14    1
     8     3     4    2
     9    22    23    1
    10     1     6    2
    11    17    16    1
    12    16    15    1
    13    16    18    1
    14    15    14    1
    15     4     5    1
    16     4    10    1
    17     6     5    1
    18     6     7    1
    19    11    10    1
    20    11    12    1
    21    23    24    1
    22     5     8    2
    23    10     9    1
    24    14    12    1
    25    26    24    2
    26    34    32    1
    27     8     9    1
    28    35    32    1
    29    12    13    1
    30    33    32    1
    31    33    31    1
    32    24    27    1
    33    24    25    1
    34    32    36    1
    35    27    28    1
    36    31    28    1
    37    28    30    2
    38    28    29    1
    39    36    38    1
    40    36    37    1
    41    38    39    2
    42    38    40   am
    43    40    41    1
