@<TRIPOS>MOLECULE
2vxk_16G_A_1.pdb
 19 19 0 0 0
SMALL
GASTEIGER

@<TRIPOS>ATOM
      1  C1       -34.2880  -10.2950   -4.8810 C.3   1191  16G1191     0.2917
      2  C2       -33.4550  -11.5500   -5.1750 C.3   1191  16G1191     0.1871
      3  C3       -34.3400  -12.6530   -5.7260 C.3   1191  16G1191     0.2095
      4  C4       -35.4420  -13.0430   -4.7230 C.3   1191  16G1191     0.2135
      5  C5       -36.1870  -11.7870   -4.2970 C.3   1191  16G1191     0.1807
      6  C6       -37.1060  -12.0890   -3.1390 C.3   1191  16G1191     0.1859
      7  C7       -31.0800  -11.1690   -5.5980 C.2   1191  16G1191     0.2421
      8  C8       -30.0410  -10.7760   -6.6430 C.3   1191  16G1191     0.0964
      9  N2       -32.3400  -11.2050   -6.0760 N.am  1191  16G1191    -0.1991
     10  O1       -34.8730   -9.8060   -6.0950 O.3   1191  16G1191    -0.1879
     11  O3       -33.5610  -13.7440   -5.8240 O.3   1191  16G1191    -0.2183
     12  O4       -36.3100  -14.0140   -5.3390 O.3   1191  16G1191    -0.2176
     13  O5       -35.2880  -10.6630   -3.8670 O.3   1191  16G1191    -0.3243
     14  O6       -37.9350  -10.9510   -2.9250 O.3   1191  16G1191    -0.2675
     15  O7       -30.7600  -11.4040   -4.4150 O.2   1191  16G1191    -0.2733
     16  P        -39.5350  -11.2270   -2.6500 P.3   1191  16G1191     0.5327
     17  O1P      -40.3470   -9.8530   -2.4730 O.3   1191  16G1191    -0.1145
     18  O2P      -39.6510  -11.8390   -1.1740 O.3   1191  16G1191    -0.1145
     19  O3P      -40.0640  -12.1720   -3.6890 O.2   1191  16G1191    -0.2224
@<TRIPOS>BOND
     1     8     7    1
     2    10     1    1
     3     9     7   am
     4     9     2    1
     5    11     3    1
     6     3     2    1
     7     3     4    1
     8     7    15    2
     9    12     4    1
    10     2     1    1
    11     1    13    1
    12     4     5    1
    13     5    13    1
    14     5     6    1
    15    19    16    2
    16     6    14    1
    17    14    16    1
    18    16    17    1
    19    16    18    1
