@<TRIPOS>MOLECULE
2vxl_UDP_A_1.pdb
 25 26 0 0 0
SMALL
GASTEIGER

@<TRIPOS>ATOM
      1  N1        -0.0010  -38.5260   25.3790 N.am  401  UDP401     -0.1766
      2  C2         1.3560  -38.7400   25.2150 C.1   401  UDP401      0.2845
      3  N3         1.8840  -40.0050   25.3740 N.2   401  UDP401     -0.2452
      4  C4         1.0540  -41.0590   25.6950 C.1   401  UDP401      0.2182
      5  C5        -0.3110  -40.8630   25.8630 C.2   401  UDP401      0.1242
      6  C6        -0.8230  -39.5820   25.7040 C.2   401  UDP401      0.0929
      7  O2         2.1050  -37.8130   24.9280 O.2   401  UDP401     -0.1918
      8  O4         1.5370  -42.1790   25.8330 O.2   401  UDP401     -0.2085
      9  C1'       -0.5760  -37.1760   25.2160 C.3   401  UDP401      0.2401
     10  C2'       -0.5320  -36.7330   23.7560 C.3   401  UDP401      0.2319
     11  O2'       -0.3470  -35.3330   23.6470 O.3   401  UDP401     -0.2157
     12  C3'       -1.9170  -37.1110   23.2830 C.3   401  UDP401      0.2158
     13  C4'       -2.7570  -36.7860   24.5160 C.3   401  UDP401      0.1799
     14  O4'       -1.9510  -37.2180   25.5980 O.3   401  UDP401     -0.3320
     15  O3'       -2.3280  -36.3920   22.1490 O.3   401  UDP401     -0.2175
     16  C5'       -4.1210  -37.4570   24.5480 C.3   401  UDP401      0.1813
     17  O5'       -3.9260  -38.8190   24.2700 O.3   401  UDP401     -0.3111
     18  PA        -4.5050  -39.4280   22.9030 P.3   401  UDP401      0.2231
     19  O1A       -4.1730  -38.6270   21.7060 O.2   401  UDP401     -0.5169
     20  O2A       -4.0070  -40.8150   22.8390 O.3   401  UDP401     -0.4370
     21  O3A       -6.0840  -39.2610   23.0790 O.3   401  UDP401     -0.2261
     22  PB        -7.0700  -39.8250   21.9550 P.3   401  UDP401      0.5373
     23  O1B       -6.6700  -41.2040   21.5870 O.3   401  UDP401     -0.1143
     24  O2B       -6.9090  -38.9370   20.7900 O.2   401  UDP401     -0.2221
     25  O3B       -8.4730  -39.7910   22.4300 O.3   401  UDP401     -0.1143
@<TRIPOS>BOND
     1    24    22    2
     2    23    22    1
     3    19    18    2
     4    22    25    1
     5    22    21    1
     6    15    12    1
     7    20    18    1
     8    18    21    1
     9    18    17    1
    10    12    10    1
    11    12    13    1
    12    11    10    1
    13    10     9    1
    14    17    16    1
    15    13    16    1
    16    13    14    1
    17     7     2    2
    18     2     3    2
    19     2     1   am
    20     9     1    1
    21     9    14    1
    22     3     4    2
    23     1     6    1
    24     4     8    2
    25     4     5    1
    26     6     5    2
