@<TRIPOS>MOLECULE
2vxn_PGH_A_1.pdb
 10 9 0 0 0
SMALL
GASTEIGER

@<TRIPOS>ATOM
      1  C1        26.4380   -2.5700   11.3190 C.2   1251  PGH1251     0.1177
      2  C2        26.2920   -2.4850    9.8050 C.3   1251  PGH1251     0.2044
      3  N2        25.5710   -1.9750   12.0050 N.am  1251  PGH1251    -0.2004
      4  O2        25.5300   -2.1400   13.3190 O.3   1251  PGH1251    -0.4026
      5  O1        27.3860   -3.2570   11.7500 O.2   1251  PGH1251    -0.5374
      6  O1P       27.6160   -2.2880    9.2480 O.3   1251  PGH1251    -0.2633
      7  O2P       29.1510   -1.5580    7.4350 O.3   1251  PGH1251    -0.1145
      8  O3P       27.3610   -3.3360    6.9070 O.2   1251  PGH1251    -0.2224
      9  O4P       26.6860   -0.9240    7.3470 O.3   1251  PGH1251    -0.1145
     10  P         27.6960   -2.0300    7.6410 P.3   1251  PGH1251     0.5330
@<TRIPOS>BOND
     1     8    10    2
     2     9    10    1
     3     7    10    1
     4    10     6    1
     5     6     2    1
     6     2     1    1
     7     1     5    2
     8     1     3   am
     9     3     4    1
