@<TRIPOS>MOLECULE
2vxo_XMP_A_1.pdb
 24 26 0 0 0
SMALL
GASTEIGER

@<TRIPOS>ATOM
      1  P         21.9810   -6.3250  -15.7420 P.3   1694  XMP1694     0.5327
      2  O1P       21.1590   -6.5260  -16.9800 O.2   1694  XMP1694    -0.2224
      3  O2P       21.4600   -7.0880  -14.5440 O.3   1694  XMP1694    -0.1145
      4  O5'       23.3480   -7.0780  -16.0830 O.3   1694  XMP1694    -0.2675
      5  O3P       22.3300   -4.8870  -15.4350 O.3   1694  XMP1694    -0.1145
      6  C5'       23.3720   -8.5120  -16.1970 C.3   1694  XMP1694     0.1859
      7  C4'       24.7990   -9.0480  -16.3940 C.3   1694  XMP1694     0.1801
      8  O4'       25.3030   -8.6720  -17.6830 O.3   1694  XMP1694    -0.3326
      9  C1'       26.3960   -7.7410  -17.5520 C.3   1694  XMP1694     0.2293
     10  N9        26.2380   -6.6550  -18.5400 N.pl3 1694  XMP1694    -0.2353
     11  C4        26.9480   -6.5970  -19.6630 C.2   1694  XMP1694     0.2316
     12  N3        27.9120   -7.3580  -20.2060 N.2   1694  XMP1694    -0.2901
     13  N1        28.0580   -5.9410  -22.1010 N.2   1694  XMP1694    -0.2311
     14  C2        28.4640   -7.0260  -21.3970 C.1   1694  XMP1694     0.3668
     15  O2        29.3690   -7.7520  -21.8710 O.2   1694  XMP1694    -0.1744
     16  C6        27.0990   -5.1060  -21.6680 C.1   1694  XMP1694     0.2388
     17  O6        26.7470   -4.0970  -22.3270 O.2   1694  XMP1694    -0.2068
     18  C5        26.4640   -5.4060  -20.3700 C.2   1694  XMP1694     0.2183
     19  N7        25.5140   -4.8470  -19.6160 N.2   1694  XMP1694    -0.2322
     20  C8        25.3710   -5.6170  -18.5080 C.3   1694  XMP1694     0.2246
     21  C2'       26.3500   -7.2420  -16.1360 C.3   1694  XMP1694     0.2310
     22  O2'       27.6680   -6.8730  -15.7660 O.3   1694  XMP1694    -0.2158
     23  C3'       25.8080   -8.4700  -15.4140 C.3   1694  XMP1694     0.2158
     24  O3'       26.8480   -9.4420  -15.2420 O.3   1694  XMP1694    -0.2175
@<TRIPOS>BOND
     1    17    16    2
     2    13    16    2
     3    13    14    2
     4    15    14    2
     5    16    18    1
     6    14    12    2
     7    18    11    1
     8    18    19    2
     9    12    11    2
    10    11    10    1
    11    19    20    1
    12    10    20    1
    13    10     9    1
    14     8     9    1
    15     8     7    1
    16     9    21    1
    17     2     1    2
    18     7     6    1
    19     7    23    1
    20     6     4    1
    21    21    22    1
    22    21    23    1
    23     4     1    1
    24     1     5    1
    25     1     3    1
    26    23    24    1
