@<TRIPOS>MOLECULE
2vya_PF7_A_1.pdb
 19 21 0 0 0
SMALL
GASTEIGER

@<TRIPOS>ATOM
      1  O19       50.9650  -15.1120  -34.6700 O.2   1578  PF71578    -0.2649
      2  C18       50.4400  -15.1340  -35.7980 C.2   1578  PF71578     0.3029
      3  N15       49.1250  -14.9500  -35.9470 N.am  1578  PF71578    -0.2724
      4  C16       48.2040  -14.7190  -34.8230 C.3   1578  PF71578     0.0939
      5  C17       47.1840  -15.8670  -34.9130 C.3   1578  PF71578     0.0219
      6  C12       46.4720  -15.9130  -36.2680 C.3   1578  PF71578     0.0078
      7  C13       47.5220  -16.0920  -37.3530 C.3   1578  PF71578     0.0219
      8  C14       48.5410  -14.9560  -37.2950 C.3   1578  PF71578     0.0939
      9  C11       45.4830  -17.0790  -36.3220 C.3   1578  PF71578     0.0280
     10  C9        44.1300  -16.6540  -35.8030 C.ar  1578  PF71578    -0.0030
     11  C10       43.7800  -16.8410  -34.4670 C.ar  1578  PF71578    -0.0012
     12  C3        42.5180  -16.4340  -34.0210 C.ar  1578  PF71578     0.0174
     13  C4        42.1610  -16.6060  -32.6850 C.ar  1578  PF71578     0.0015
     14  C5        40.9060  -16.1960  -32.2420 C.ar  1578  PF71578     0.0001
     15  C6        39.9910  -15.6040  -33.1310 C.ar  1578  PF71578     0.0015
     16  C1        40.3370  -15.4310  -34.4690 C.ar  1578  PF71578     0.0191
     17  C2        41.5990  -15.8510  -34.9120 C.ar  1578  PF71578     0.0813
     18  N7        41.9500  -15.6810  -36.2490 N.ar  1578  PF71578    -0.2442
     19  C8        43.2220  -16.0750  -36.6830 C.ar  1578  PF71578     0.0945
@<TRIPOS>BOND
     1     7     8    1
     2     7     6    1
     3     8     3    1
     4    19    18   ar
     5    19    10   ar
     6     9     6    1
     7     9    10    1
     8     6     5    1
     9    18    17   ar
    10     3     2   am
    11     3     4    1
    12    10    11   ar
    13     2     1    2
    14     5     4    1
    15    17    16   ar
    16    17    12   ar
    17    16    15   ar
    18    11    12   ar
    19    12    13   ar
    20    15    14   ar
    21    13    14   ar
