@<TRIPOS>MOLECULE
2vyn_NAD_A_1.pdb
 44 48 0 0 0
SMALL
GASTEIGER

@<TRIPOS>ATOM
      1  PA        10.0090   65.8510   27.6480 P.3   1335  NAD1335     0.2189
      2  O1A       11.2110   66.6190   27.2980 O.3   1335  NAD1335    -0.4371
      3  O2A        9.8250   64.6270   26.8370 O.2   1335  NAD1335    -0.5170
      4  O5B        8.6880   66.7800   27.5510 O.3   1335  NAD1335    -0.3112
      5  C5B        8.7130   68.1800   27.7170 C.3   1335  NAD1335     0.1813
      6  C4B        7.7530   68.7770   26.6830 C.3   1335  NAD1335     0.1821
      7  O4B        7.3410   70.0780   27.0680 O.3   1335  NAD1335    -0.3135
      8  C3B        8.4240   68.9010   25.3200 C.3   1335  NAD1335     0.2184
      9  O3B        7.5670   68.3540   24.3380 O.3   1335  NAD1335    -0.2174
     10  C2B        8.6120   70.3940   25.1230 C.3   1335  NAD1335     0.2570
     11  O2B        8.4920   70.7830   23.7740 O.3   1335  NAD1335    -0.2130
     12  C1B        7.4850   70.9650   25.9720 C.3   1335  NAD1335     0.3186
     13  N9A        7.6810   72.3450   26.4550 N.pl3 1335  NAD1335    -0.1439
     14  C8A        8.8510   72.9990   26.7750 C.3   1335  NAD1335     0.3377
     15  N7A        8.5400   74.2530   27.1930 N.2   1335  NAD1335    -0.2095
     16  C5A        7.1930   74.4110   27.1370 C.2   1335  NAD1335     0.2526
     17  C6A        6.3340   75.4680   27.4460 C.2   1335  NAD1335     0.4393
     18  N6A        6.7760   76.6040   28.0080 N.pl3 1335  NAD1335     0.2180
     19  N1A        4.9820   75.2950   27.2820 N.2   1335  NAD1335     0.0021
     20  C2A        4.4550   74.1120   26.8180 C.3   1335  NAD1335     0.5254
     21  N3A        5.3060   73.0730   26.5220 N.2   1335  NAD1335    -0.0055
     22  C4A        6.6480   73.2170   26.6720 C.2   1335  NAD1335     0.3518
     23  O3        10.0810   65.5530   29.2370 O.3   1335  NAD1335    -0.2703
     24  PN         9.2280   64.3840   29.9220 P.3   1335  NAD1335     0.2189
     25  O1N        7.9220   64.2970   29.2330 O.2   1335  NAD1335    -0.5170
     26  O2N       10.1020   63.2030   30.0710 O.3   1335  NAD1335    -0.4371
     27  O5D        8.9600   64.9860   31.3810 O.3   1335  NAD1335    -0.3112
     28  C5D        8.2170   66.1620   31.6240 C.3   1335  NAD1335     0.1813
     29  C4D        7.9100   66.1780   33.1240 C.3   1335  NAD1335     0.1799
     30  O4D        7.4650   64.9080   33.5920 O.3   1335  NAD1335    -0.3327
     31  C3D        9.1700   66.4970   33.9100 C.3   1335  NAD1335     0.2158
     32  O3D        8.7770   67.1880   35.0670 O.3   1335  NAD1335    -0.2175
     33  C2D        9.7050   65.1340   34.2860 C.3   1335  NAD1335     0.2309
     34  O2D       10.5530   65.1720   35.4150 O.3   1335  NAD1335    -0.2158
     35  C1D        8.4000   64.3970   34.5480 C.3   1335  NAD1335     0.2263
     36  N1N        8.4890   62.9230   34.4900 N.pl3 1335  NAD1335    -0.2787
     37  C2N        9.1650   62.2540   33.4930 C.3   1335  NAD1335     0.1244
     38  C3N        9.1810   60.8560   33.4880 C.2   1335  NAD1335     0.0544
     39  C7N        9.9110   60.0720   32.4380 C.2   1335  NAD1335     0.2818
     40  O7N       10.3290   58.7690   32.7570 O.2   1335  NAD1335    -0.2670
     41  N7N       10.1530   60.5960   31.2430 N.am  1335  NAD1335    -0.0839
     42  C4N        8.5330   60.1510   34.4960 C.2   1335  NAD1335     0.0033
     43  C5N        7.8550   60.8370   35.4940 C.2   1335  NAD1335     0.0157
     44  C6N        7.8400   62.2260   35.4780 C.2   1335  NAD1335     0.0633
@<TRIPOS>BOND
     1    11    10    1
     2     9     8    1
     3    10     8    1
     4    10    12    1
     5     8     6    1
     6    12    13    1
     7    12     7    1
     8    13    22    1
     9    13    14    1
    10    21    22    2
    11    21    20    1
    12    22    16    1
    13     6     7    1
    14     6     5    1
    15    14    15    1
    16    20    19    1
    17     3     1    2
    18    16    15    2
    19    16    17    1
    20    19    17    2
    21     2     1    1
    22    17    18    1
    23     4     1    1
    24     4     5    1
    25     1    23    1
    26    25    24    2
    27    23    24    1
    28    24    26    1
    29    24    27    1
    30    41    39   am
    31    27    28    1
    32    28    29    1
    33    39    40    2
    34    39    38    1
    35    29    30    1
    36    29    31    1
    37    38    37    1
    38    38    42    2
    39    37    36    1
    40    30    35    1
    41    31    33    1
    42    31    32    1
    43    33    35    1
    44    33    34    1
    45    36    35    1
    46    36    44    1
    47    42    43    1
    48    44    43    2
