@<TRIPOS>MOLECULE
2vyp_ATP_A_1.pdb
 31 33 0 0 0
SMALL
GASTEIGER

@<TRIPOS>ATOM
      1  PG        28.4400   34.6850    4.2530 P.3   1375  ATP1375     0.5373
      2  O1G       28.7850   33.2190    4.4760 O.3   1375  ATP1375    -0.1143
      3  O2G       28.5670   35.5970    5.4240 O.3   1375  ATP1375    -0.1143
      4  O3G       27.0220   34.7580    3.6500 O.2   1375  ATP1375    -0.2221
      5  PB        30.4200   34.5180    2.0940 P.3   1375  ATP1375     0.2277
      6  O1B       29.9800   33.0970    1.9680 O.3   1375  ATP1375    -0.4368
      7  O2B       30.4190   35.3460    0.8780 O.2   1375  ATP1375    -0.5168
      8  O3B       29.5110   35.3050    3.1970 O.3   1375  ATP1375    -0.2258
      9  PA        33.0840   33.6170    2.6570 P.3   1375  ATP1375     0.2189
     10  O1A       33.2120   33.3240    1.2040 O.2   1375  ATP1375    -0.5170
     11  O2A       33.1410   32.5630    3.6960 O.3   1375  ATP1375    -0.4371
     12  O3A       31.8420   34.6210    2.8260 O.3   1375  ATP1375    -0.2700
     13  O5'       34.3260   34.5740    3.0420 O.3   1375  ATP1375    -0.3112
     14  C5'       34.4530   35.9250    2.5830 C.3   1375  ATP1375     0.1813
     15  C4'       34.9600   36.8010    3.7410 C.3   1375  ATP1375     0.1821
     16  O4'       36.1520   36.1850    4.2570 O.3   1375  ATP1375    -0.3135
     17  C3'       35.3520   38.2390    3.3120 C.3   1375  ATP1375     0.2184
     18  O3'       35.0230   39.2180    4.2920 O.3   1375  ATP1375    -0.2174
     19  C2'       36.8460   38.1850    3.2250 C.3   1375  ATP1375     0.2570
     20  O2'       37.5490   39.4310    3.4390 O.3   1375  ATP1375    -0.2130
     21  C1'       37.1290   37.1890    4.3570 C.3   1375  ATP1375     0.3186
     22  N9        38.4470   36.6110    4.2100 N.pl3 1375  ATP1375    -0.1439
     23  C8        38.8830   35.8830    3.1640 C.3   1375  ATP1375     0.3377
     24  N7        40.1580   35.5000    3.3470 N.2   1375  ATP1375    -0.2095
     25  C5        40.5330   36.0030    4.5400 C.2   1375  ATP1375     0.2526
     26  C6        41.7680   36.0020    5.3490 C.2   1375  ATP1375     0.4393
     27  N6        42.8210   35.3520    4.8830 N.pl3 1375  ATP1375     0.2180
     28  N1        41.7760   36.6430    6.5460 N.2   1375  ATP1375     0.0021
     29  C2        40.6650   37.2790    6.9640 C.3   1375  ATP1375     0.5254
     30  N3        39.4950   37.3540    6.2860 N.2   1375  ATP1375    -0.0055
     31  C4        39.3910   36.7460    5.0950 C.2   1375  ATP1375     0.3518
@<TRIPOS>BOND
     1     7     5    2
     2    10     9    2
     3     6     5    1
     4     5    12    1
     5     5     8    1
     6    14    13    1
     7    14    15    1
     8     9    12    1
     9     9    13    1
    10     9    11    1
    11    23    24    1
    12    23    22    1
    13     8     1    1
    14    19    17    1
    15    19    20    1
    16    19    21    1
    17    17    15    1
    18    17    18    1
    19    24    25    2
    20     4     1    2
    21    15    16    1
    22    22    21    1
    23    22    31    1
    24     1     2    1
    25     1     3    1
    26    16    21    1
    27    25    31    1
    28    25    26    1
    29    27    26    1
    30    31    30    2
    31    26    28    2
    32    30    29    1
    33    28    29    1
