@<TRIPOS>MOLECULE
2vyt_MLZ_A_1.pdb
 11 10 0 0 0
SMALL
GASTEIGER

@<TRIPOS>ATOM
      1  N         17.6830   40.2970   48.9730 N.3   1244  MLZ1244    -0.1208
      2  CA        17.3700   41.6580   49.3880 C.3   1244  MLZ1244     0.1943
      3  CB        17.0690   41.6900   50.8880 C.3   1244  MLZ1244     0.0307
      4  CG        16.7250   43.0640   51.4300 C.3   1244  MLZ1244     0.0035
      5  CD        16.2240   42.9580   52.8560 C.3   1244  MLZ1244     0.0189
      6  CE        15.8760   44.3210   53.4210 C.3   1244  MLZ1244     0.0888
      7  NZ        15.3350   44.2160   54.8090 N.3   1244  MLZ1244    -0.2165
      8  CM        15.1190   45.6160   55.2690 C.3   1244  MLZ1244     0.1075
      9  C         18.5230   42.6010   49.0710 C.2   1244  MLZ1244     0.3819
     10  O         18.2460   43.7070   48.5550 O.co2 1244  MLZ1244    -0.2441
     11  OXT       19.6860   42.2240   49.3410 O.co2 1244  MLZ1244    -0.2441
@<TRIPOS>BOND
     1    10     9   ar
     2     1     2    1
     3     9    11   ar
     4     9     2    1
     5     2     3    1
     6     3     4    1
     7     4     5    1
     8     5     6    1
     9     6     7    1
    10     7     8    1
