@<TRIPOS>MOLECULE
2vyv_NAD_A_1.pdb
 44 48 0 0 0
SMALL
GASTEIGER

@<TRIPOS>ATOM
      1  PA        24.0900  -14.1920   27.5660 P.3   1333  NAD1333     0.2189
      2  O1A       22.8980  -14.9410   27.1130 O.3   1333  NAD1333    -0.4371
      3  O2A       24.3840  -13.0200   26.7010 O.2   1333  NAD1333    -0.5170
      4  O5B       25.3560  -15.1930   27.6790 O.3   1333  NAD1333    -0.3112
      5  C5B       25.2550  -16.6000   27.7760 C.3   1333  NAD1333     0.1813
      6  C4B       26.1820  -17.2110   26.7210 C.3   1333  NAD1333     0.1821
      7  O4B       26.5340  -18.5210   27.1030 O.3   1333  NAD1333    -0.3135
      8  C3B       25.5600  -17.3010   25.3240 C.3   1333  NAD1333     0.2184
      9  O3B       26.4120  -16.7140   24.3590 O.3   1333  NAD1333    -0.2174
     10  C2B       25.3690  -18.7900   25.0880 C.3   1333  NAD1333     0.2570
     11  O2B       25.5270  -19.1440   23.7270 O.3   1333  NAD1333    -0.2130
     12  C1B       26.4530  -19.3830   25.9880 C.3   1333  NAD1333     0.3186
     13  N9A       26.2550  -20.7660   26.4720 N.pl3 1333  NAD1333    -0.1439
     14  C8A       25.0950  -21.3820   26.8550 C.3   1333  NAD1333     0.3377
     15  N7A       25.3880  -22.6420   27.2520 N.2   1333  NAD1333    -0.2095
     16  C5A       26.7210  -22.8470   27.1340 C.2   1333  NAD1333     0.2526
     17  C6A       27.5440  -23.9500   27.4090 C.2   1333  NAD1333     0.4393
     18  N6A       27.1140  -24.9390   28.1990 N.pl3 1333  NAD1333     0.2180
     19  N1A       28.8990  -23.8270   27.1840 N.2   1333  NAD1333     0.0021
     20  C2A       29.4260  -22.6450   26.6930 C.3   1333  NAD1333     0.5254
     21  N3A       28.6080  -21.5660   26.4230 N.2   1333  NAD1333    -0.0055
     22  C4A       27.2750  -21.6660   26.6410 C.2   1333  NAD1333     0.3518
     23  O3        23.9060  -13.7810   29.1170 O.3   1333  NAD1333    -0.2703
     24  PN        24.8620  -12.7390   29.9060 P.3   1333  NAD1333     0.2189
     25  O1N       26.2200  -12.7030   29.3030 O.2   1333  NAD1333    -0.5170
     26  O2N       24.0550  -11.5000   30.0710 O.3   1333  NAD1333    -0.4371
     27  O5D       24.9690  -13.4160   31.3650 O.3   1333  NAD1333    -0.3112
     28  C5D       25.8440  -14.4790   31.6760 C.3   1333  NAD1333     0.1813
     29  C4D       26.0380  -14.4820   33.1830 C.3   1333  NAD1333     0.1799
     30  O4D       26.4540  -13.2000   33.6070 O.3   1333  NAD1333    -0.3327
     31  C3D       24.7450  -14.7840   33.9240 C.3   1333  NAD1333     0.2158
     32  O3D       25.0230  -15.6260   35.0210 O.3   1333  NAD1333    -0.2175
     33  C2D       24.2410  -13.4230   34.3810 C.3   1333  NAD1333     0.2309
     34  O2D       23.4640  -13.4790   35.5650 O.3   1333  NAD1333    -0.2158
     35  C1D       25.5570  -12.6820   34.5890 C.3   1333  NAD1333     0.2263
     36  N1N       25.4740  -11.1930   34.5610 N.pl3 1333  NAD1333    -0.2787
     37  C2N       24.9170  -10.5020   33.5030 C.3   1333  NAD1333     0.1244
     38  C3N       24.8790   -9.0980   33.5190 C.2   1333  NAD1333     0.0544
     39  C7N       24.3140   -8.2950   32.3700 C.2   1333  NAD1333     0.2818
     40  O7N       23.8770   -6.9640   32.5710 O.2   1333  NAD1333    -0.2670
     41  N7N       24.2240   -8.8420   31.1650 N.am  1333  NAD1333    -0.0839
     42  C4N       25.4040   -8.4130   34.6180 C.2   1333  NAD1333     0.0033
     43  C5N       25.9630   -9.1180   35.6770 C.2   1333  NAD1333     0.0157
     44  C6N       25.9920  -10.5120   35.6430 C.2   1333  NAD1333     0.0633
@<TRIPOS>BOND
     1    11    10    1
     2     9     8    1
     3    10     8    1
     4    10    12    1
     5     8     6    1
     6    12    13    1
     7    12     7    1
     8    21    22    2
     9    21    20    1
    10    13    22    1
    11    13    14    1
    12    22    16    1
    13    20    19    1
    14     3     1    2
    15     6     7    1
    16     6     5    1
    17    14    15    1
    18     2     1    1
    19    16    15    2
    20    16    17    1
    21    19    17    2
    22    17    18    1
    23     1     4    1
    24     1    23    1
    25     4     5    1
    26    23    24    1
    27    25    24    2
    28    24    26    1
    29    24    27    1
    30    41    39   am
    31    27    28    1
    32    28    29    1
    33    39    40    2
    34    39    38    1
    35    29    30    1
    36    29    31    1
    37    37    38    1
    38    37    36    1
    39    38    42    2
    40    30    35    1
    41    31    33    1
    42    31    32    1
    43    33    35    1
    44    33    34    1
    45    36    35    1
    46    36    44    1
    47    42    43    1
    48    44    43    2
