@<TRIPOS>MOLECULE
2vyv_1GP_D_1.pdb
 10 9 0 0 0
SMALL
GASTEIGER

@<TRIPOS>ATOM
      1  C3         6.9920  -14.2550    9.8250 C.3   1334  1GP1334     0.2174
      2  O3         5.7240  -13.5260   11.7880 O.3   1334  1GP1334    -0.2176
      3  C2         6.0180  -14.6360   10.9540 C.3   1334  1GP1334     0.2147
      4  O2         8.0580  -15.1690    9.6560 O.3   1334  1GP1334    -0.2175
      5  C1         6.4820  -15.8010   11.7970 C.3   1334  1GP1334     0.1892
      6  O1P        7.4330  -15.3390   12.7160 O.3   1334  1GP1334    -0.2674
      7  O2P        8.7660  -16.5050   14.4650 O.3   1334  1GP1334    -0.1145
      8  O3P        9.9760  -15.4560   12.5790 O.3   1334  1GP1334    -0.1145
      9  O4P        8.6560  -17.5370   12.2160 O.2   1334  1GP1334    -0.2224
     10  P          8.7380  -16.2250   12.9800 P.3   1334  1GP1334     0.5327
@<TRIPOS>BOND
     1     4     1    1
     2     1     3    1
     3     3     2    1
     4     3     5    1
     5     5     6    1
     6     9    10    2
     7     8    10    1
     8     6    10    1
     9    10     7    1
