@<TRIPOS>MOLECULE
2vyw_HEM_A_1.pdb
 43 50 0 0 0
SMALL
GASTEIGER

@<TRIPOS>ATOM
      1 FE          2.8230    5.9200    0.2860 Fe    149  HEM149      0.0000
      2  CHA        5.3190    7.6710   -1.3150 C.2   149  HEM149      0.0000
      3  CHB        5.0600    4.8170    2.5750 C.2   149  HEM149      0.0000
      4  CHC        0.2540    4.4380    2.1060 C.2   149  HEM149      0.0000
      5  CHD        0.5850    6.8350   -2.0870 C.2   149  HEM149      0.0000
      6  NA         4.8040    6.2220    0.5760 N.2   149  HEM149      0.0000
      7  C1A        5.6690    6.9080   -0.2320 C.2   149  HEM149      0.0000
      8  C2A        7.0160    6.6760    0.2470 C.2   149  HEM149      0.0000
      9  C3A        6.9470    5.8800    1.3160 C.2   149  HEM149      0.0000
     10  C4A        5.5490    5.5870    1.5520 C.2   149  HEM149      0.0000
     11  CMA        8.1180    5.3550    2.1840 C.3   149  HEM149      0.0000
     12  CAA        8.3000    7.2610   -0.3830 C.3   149  HEM149      0.0000
     13  CBA        8.6920    6.4280   -1.5930 C.3   149  HEM149      0.0000
     14  CGA        9.7850    7.1370   -2.3610 C.2   149  HEM149      0.0000
     15  O1A        9.5070    7.6830   -3.4640 O.co2 149  HEM149      0.0000
     16  O2A       10.9360    7.1390   -1.8580 O.co2 149  HEM149      0.0000
     17  NB         2.6690    4.8210    1.9700 N.ar  149  HEM149      0.0000
     18  C1B        3.7340    4.5580    2.8240 C.ar  149  HEM149      0.0000
     19  C2B        3.2230    3.9250    4.0180 C.ar  149  HEM149      0.0000
     20  C3B        1.8890    3.8290    3.9030 C.ar  149  HEM149      0.0000
     21  C4B        1.5280    4.3750    2.6130 C.ar  149  HEM149      0.0000
     22  CMB        4.1010    3.4840    5.2050 C.3   149  HEM149      0.0000
     23  CAB        0.8830    3.2190    4.9050 C.2   149  HEM149      0.0000
     24  CBB        1.0290    3.3410    6.2410 C.2   149  HEM149      0.0000
     25  NC         0.7960    5.6720    0.0650 N.2   149  HEM149      0.0000
     26  C1C       -0.0710    5.0010    0.8960 C.2   149  HEM149      0.0000
     27  C2C       -1.3860    5.0160    0.2870 C.2   149  HEM149      0.0000
     28  C3C       -1.2980    5.6520   -0.8820 C.2   149  HEM149      0.0000
     29  C4C        0.0810    6.0970   -1.0430 C.2   149  HEM149      0.0000
     30  CMC       -2.6530    4.3710    0.8850 C.3   149  HEM149      0.0000
     31  CAC       -2.4940    5.8750   -1.8430 C.2   149  HEM149      0.0000
     32  CBC       -2.3300    5.9470   -3.1730 C.2   149  HEM149      0.0000
     33  ND         2.9470    7.0740   -1.4290 N.ar  149  HEM149      0.0000
     34  C1D        1.8470    7.3520   -2.2370 C.ar  149  HEM149      0.0000
     35  C2D        2.2430    8.2440   -3.2980 C.ar  149  HEM149      0.0000
     36  C3D        3.7200    8.5040   -3.0590 C.ar  149  HEM149      0.0000
     37  C4D        4.0710    7.7270   -1.8890 C.ar  149  HEM149      0.0000
     38  CMD        1.3180    8.8010   -4.4130 C.3   149  HEM149      0.0000
     39  CAD        4.6720    9.3720   -3.8930 C.3   149  HEM149      0.0000
     40  CBD        5.3200    8.4230   -4.8900 C.3   149  HEM149      0.0000
     41  CGD        6.1830    9.1350   -5.9030 C.2   149  HEM149      0.0000
     42  O1D        7.3960    9.2680   -5.6560 O.co2 149  HEM149      0.0000
     43  O2D        5.6840    9.5490   -6.9730 O.co2 149  HEM149      0.0000
@<TRIPOS>BOND
     1    43    41   ar
     2    41    42   ar
     3    41    40    1
     4    40    39    1
     5    38    35    1
     6    39    36    1
     7    15    14   ar
     8    35    36   ar
     9    35    34   ar
    10    32    31    2
    11    36    37   ar
    12    14    16   ar
    13    14    13    1
    14    34     5    2
    15    34    33   ar
    16     5    29    1
    17    37    33   ar
    18    37     2    2
    19    31    28    1
    20    13    12    1
    21    33     1    1
    22     2     7    1
    23    29    28    1
    24    29    25    2
    25    28    27    2
    26    12     8    1
    27     7     8    1
    28     7     6    2
    29    25     1    1
    30    25    26    1
    31     8     9    2
    32     1     6    1
    33     1    17    1
    34    27    30    1
    35    27    26    1
    36     6    10    1
    37    26     4    2
    38     9    10    1
    39     9    11    1
    40    10     3    2
    41    17    21   ar
    42    17    18   ar
    43     4    21    1
    44     3    18    1
    45    21    20   ar
    46    18    19   ar
    47    20    19   ar
    48    20    23    1
    49    19    22    1
    50    23    24    2
