@<TRIPOS>MOLECULE
2vyx_FMN_A_1.pdb
 31 33 0 0 0
SMALL
GASTEIGER

@<TRIPOS>ATOM
      1  N1        35.0490    0.4720   41.3720 N.2   1070  FMN1070    -0.2890
      2  C2        34.9480    1.5830   42.1870 C.1   1070  FMN1070     0.3669
      3  O2        33.8690    2.1520   42.3090 O.2   1070  FMN1070    -0.1744
      4  N3        36.0360    2.0440   42.9050 N.2   1070  FMN1070    -0.2300
      5  C4        37.2540    1.3910   42.8040 C.1   1070  FMN1070     0.2513
      6  O4        38.2640    1.9950   43.1660 O.2   1070  FMN1070    -0.2057
      7  C4A       37.3730    0.2670   41.9840 C.2   1070  FMN1070     0.2700
      8  N5        38.5850   -0.3930   41.8810 N.2   1070  FMN1070    -0.3878
      9  C5A       38.6900   -1.5040   41.0630 C.2   1070  FMN1070     0.1320
     10  C6        39.9140   -2.1550   40.9740 C.2   1070  FMN1070     0.0250
     11  C7        40.0660   -3.2750   40.1550 C.2   1070  FMN1070    -0.0238
     12  C7M       41.2650   -4.1620   40.3230 C.3   1070  FMN1070     0.0308
     13  C8        38.9720   -3.7330   39.4220 C.2   1070  FMN1070    -0.0280
     14  C8M       39.1670   -4.8640   38.4540 C.3   1070  FMN1070     0.0304
     15  C9        37.7340   -3.1000   39.5070 C.2   1070  FMN1070    -0.0041
     16  C9A       37.5820   -1.9680   40.3320 C.3   1070  FMN1070     0.1497
     17  N10       36.3650   -1.2950   40.4450 N.pl3 1070  FMN1070    -0.2691
     18  C10       36.2610   -0.1850   41.2680 C.2   1070  FMN1070     0.2416
     19  C1'       35.1430   -1.6910   39.6620 C.3   1070  FMN1070     0.1294
     20  C2'       35.2830   -1.1450   38.2430 C.3   1070  FMN1070     0.2044
     21  O2'       35.2320    0.2570   38.2410 O.3   1070  FMN1070    -0.2185
     22  C3'       34.1870   -1.6510   37.3230 C.3   1070  FMN1070     0.2164
     23  O3'       32.9420   -1.1770   37.7780 O.3   1070  FMN1070    -0.2175
     24  C4'       34.1580   -3.1730   37.2460 C.3   1070  FMN1070     0.2147
     25  O4'       35.4470   -3.7070   37.0090 O.3   1070  FMN1070    -0.2176
     26  C5'       33.2670   -3.5950   36.1020 C.3   1070  FMN1070     0.1892
     27  O5'       33.8690   -3.0600   34.9620 O.3   1070  FMN1070    -0.2674
     28  P         33.4190   -3.5580   33.5090 P.3   1070  FMN1070     0.5327
     29  O1P       31.9180   -3.4290   33.4330 O.3   1070  FMN1070    -0.1145
     30  O2P       33.8610   -4.9940   33.3940 O.3   1070  FMN1070    -0.1145
     31  O3P       34.0830   -2.7340   32.4330 O.2   1070  FMN1070    -0.2224
@<TRIPOS>BOND
     1    31    28    2
     2    30    28    1
     3    29    28    1
     4    28    27    1
     5    27    26    1
     6    26    24    1
     7    25    24    1
     8    24    22    1
     9    22    23    1
    10    22    20    1
    11    21    20    1
    12    20    19    1
    13    14    13    1
    14    13    15    2
    15    13    11    1
    16    15    16    1
    17    19    17    1
    18    11    12    1
    19    11    10    2
    20    16    17    1
    21    16     9    1
    22    17    18    1
    23    10     9    1
    24     9     8    2
    25    18     1    2
    26    18     7    1
    27     1     2    2
    28     8     7    2
    29     7     5    1
    30     2     3    2
    31     2     4    2
    32     5     4    2
    33     5     6    2
