@<TRIPOS>MOLECULE
2vyx_COA_A_1.pdb
 48 50 0 0 0
SMALL
GASTEIGER

@<TRIPOS>ATOM
      1  N1A       40.4870   -2.7230   24.7170 N.2   1071  COA1071     0.0021
      2  C2A       41.3890   -2.9630   23.7010 C.3   1071  COA1071     0.5254
      3  N3A       41.8420   -1.9140   22.9250 N.2   1071  COA1071    -0.0055
      4  C4A       41.4020   -0.6610   23.1660 C.2   1071  COA1071     0.3518
      5  C5A       40.5030   -0.4090   24.1930 C.2   1071  COA1071     0.2526
      6  C6A       40.0380   -1.4520   24.9810 C.2   1071  COA1071     0.4393
      7  N6A       39.3000   -1.2160   26.0670 N.pl3 1071  COA1071     0.2180
      8  N7A       40.2560    0.9080   24.1960 N.2   1071  COA1071    -0.2095
      9  C8A       40.9650    1.4980   23.2080 C.3   1071  COA1071     0.3377
     10  N9A       41.6820    0.5270   22.5640 N.pl3 1071  COA1071    -0.1439
     11  C1B       42.6520    0.6900   21.4690 C.3   1071  COA1071     0.3185
     12  C2B       42.1850    1.6340   20.3710 C.3   1071  COA1071     0.2543
     13  O2B       41.3340    0.9930   19.4530 O.3   1071  COA1071    -0.2131
     14  C3B       43.5130    2.0330   19.7730 C.3   1071  COA1071     0.1928
     15  O3B       43.9830    1.0190   18.9120 O.3   1071  COA1071    -0.2673
     16  P3B       43.7910    1.0030   17.3070 P.3   1071  COA1071     0.5327
     17  O7A       44.3780   -0.3000   16.8150 O.3   1071  COA1071    -0.1145
     18  O8A       42.3290    1.0650   16.9230 O.3   1071  COA1071    -0.1145
     19  O9A       44.5120    2.1990   16.7300 O.2   1071  COA1071    -0.2224
     20  C4B       44.4300    2.1100   20.9890 C.3   1071  COA1071     0.1795
     21  O4B       43.8660    1.2330   21.9420 O.3   1071  COA1071    -0.3136
     22  C5B       44.5270    3.5010   21.5980 C.3   1071  COA1071     0.1812
     23  O5B       45.3080    4.3410   20.7730 O.3   1071  COA1071    -0.3112
     24  P1A       46.9020    4.4630   20.9380 P.3   1071  COA1071     0.2189
     25  O1A       47.5490    4.1300   19.6150 O.2   1071  COA1071    -0.5170
     26  O2A       47.4230    3.5620   22.0340 O.3   1071  COA1071    -0.4371
     27  O3A       47.1660    6.0110   21.2560 O.3   1071  COA1071    -0.2703
     28  P2A       47.1040    6.6240   22.7380 P.3   1071  COA1071     0.2188
     29  O4A       46.9790    8.1140   22.6030 O.2   1071  COA1071    -0.5170
     30  O5A       45.9720    6.0530   23.5570 O.3   1071  COA1071    -0.4371
     31  O6A       48.5470    6.2840   23.3420 O.3   1071  COA1071    -0.3138
     32  CBP       50.9370    6.1850   23.4620 C.3   1071  COA1071     0.0645
     33  CCP       49.7260    6.5870   22.6290 C.3   1071  COA1071     0.1519
     34  CDP       52.1990    6.8270   22.8950 C.3   1071  COA1071     0.0056
     35  CEP       50.7000    6.7240   24.8710 C.3   1071  COA1071     0.0056
     36  CAP       51.1460    4.6690   23.3840 C.3   1071  COA1071     0.2312
     37  OAP       49.9380    3.9770   23.1650 O.3   1071  COA1071    -0.2131
     38  C9P       51.8590    4.0540   24.5600 C.2   1071  COA1071     0.2719
     39  O9P       52.1860    4.7590   25.7370 O.2   1071  COA1071    -0.2706
     40  N8P       52.1820    2.7770   24.4050 N.am  1071  COA1071    -0.2028
     41  C7P       53.3540    2.2120   25.0450 C.3   1071  COA1071     0.1248
     42  C6P       54.6380    2.8720   24.5690 C.3   1071  COA1071     0.1102
     43  C5P       55.8450    2.1960   25.1790 C.2   1071  COA1071     0.2432
     44  O5P       55.8990    1.9380   26.3940 O.2   1071  COA1071    -0.2733
     45  N4P       56.8260    1.9260   24.3250 N.am  1071  COA1071    -0.2044
     46  C3P       58.0250    1.2130   24.7150 C.3   1071  COA1071     0.1276
     47  C2P       59.1680    2.2060   24.8090 C.3   1071  COA1071     0.0920
     48  S1P       60.7190    1.4200   25.2670 S.3   1071  COA1071    -0.0802
@<TRIPOS>BOND
     1    19    16    2
     2    17    16    1
     3    18    16    1
     4    16    15    1
     5    15    14    1
     6    13    12    1
     7    25    24    2
     8    14    12    1
     9    14    20    1
    10    12    11    1
    11    23    24    1
    12    23    22    1
    13    24    27    1
    14    24    26    1
    15    20    22    1
    16    20    21    1
    17    27    28    1
    18    11    21    1
    19    11    10    1
    20    10     4    1
    21    10     9    1
    22    29    28    2
    23    33    31    1
    24    33    32    1
    25    28    31    1
    26    28    30    1
    27    34    32    1
    28     3     4    2
    29     3     2    1
    30    37    36    1
    31     4     5    1
    32     9     8    1
    33    36    32    1
    34    36    38    1
    35    32    35    1
    36     2     1    1
    37     5     8    2
    38     5     6    1
    39    45    46    1
    40    45    43   am
    41    40    38   am
    42    40    41    1
    43    38    39    2
    44    42    41    1
    45    42    43    1
    46    46    47    1
    47     1     6    2
    48    47    48    1
    49     6     7    1
    50    43    44    2
