@<TRIPOS>MOLECULE
2vyy_HEM_A_1.pdb
 43 50 0 0 0
SMALL
GASTEIGER

@<TRIPOS>ATOM
      1 FE         28.1300   31.2730   10.1220 Fe    144  HEM144      0.0000
      2  CHA       24.9860   30.8710    8.7710 C.2   144  HEM144      0.0000
      3  CHB       26.9530   33.8640   12.0490 C.2   144  HEM144      0.0000
      4  CHC       31.2610   31.6240   11.5710 C.2   144  HEM144      0.0000
      5  CHD       29.3950   28.8500    8.0830 C.2   144  HEM144      0.0000
      6  NA        26.3170   32.1980   10.3670 N.2   144  HEM144      0.0000
      7  C1A       25.1530   31.8650    9.7100 C.2   144  HEM144      0.0000
      8  C2A       24.0980   32.7410   10.1980 C.2   144  HEM144      0.0000
      9  C3A       24.6510   33.5770   11.0970 C.2   144  HEM144      0.0000
     10  C4A       26.0480   33.2420   11.2210 C.2   144  HEM144      0.0000
     11  CMA       23.9750   34.7090   11.8960 C.3   144  HEM144      0.0000
     12  CAA       22.6300   32.6870    9.7230 C.3   144  HEM144      0.0000
     13  CBA       21.9080   31.6390   10.5880 C.3   144  HEM144      0.0000
     14  CGA       20.4150   31.6840   10.3480 C.2   144  HEM144      0.0000
     15  O1A       19.9730   32.2400    9.3080 O.co2 144  HEM144      0.0000
     16  O2A       19.6690   31.1430   11.2060 O.co2 144  HEM144      0.0000
     17  NB        28.9430   32.5120   11.5290 N.ar  144  HEM144      0.0000
     18  C1B       28.2680   33.5070   12.2220 C.ar  144  HEM144      0.0000
     19  C2B       29.2030   34.1390   13.1400 C.ar  144  HEM144      0.0000
     20  C3B       30.3840   33.5180   13.0160 C.ar  144  HEM144      0.0000
     21  C4B       30.2560   32.4840   11.9970 C.ar  144  HEM144      0.0000
     22  CMB       28.8520   35.2930   14.1120 C.3   144  HEM144      0.0000
     23  CAB       31.6850   33.8280   13.8130 C.2   144  HEM144      0.0000
     24  CBB       32.2380   35.0450   13.8120 C.2   144  HEM144      0.0000
     25  NC        30.0010   30.3960    9.8730 N.2   144  HEM144      0.0000
     26  C1C       31.1630   30.6910   10.5710 C.2   144  HEM144      0.0000
     27  C2C       32.2260   29.8560   10.0550 C.2   144  HEM144      0.0000
     28  C3C       31.7220   29.0910    9.0780 C.2   144  HEM144      0.0000
     29  C4C       30.3040   29.4060    8.9610 C.2   144  HEM144      0.0000
     30  CMC       33.6840   29.8740   10.5760 C.3   144  HEM144      0.0000
     31  CAC       32.5260   28.0520    8.2650 C.2   144  HEM144      0.0000
     32  CBC       32.1910   27.6670    7.0350 C.2   144  HEM144      0.0000
     33  ND        27.3090   30.0670    8.7000 N.ar  144  HEM144      0.0000
     34  C1D       28.0580   29.1450    7.9640 C.ar  144  HEM144      0.0000
     35  C2D       27.2120   28.5420    6.9590 C.ar  144  HEM144      0.0000
     36  C3D       25.8470   29.1600    7.1560 C.ar  144  HEM144      0.0000
     37  C4D       25.9930   30.0930    8.2560 C.ar  144  HEM144      0.0000
     38  CMD       27.5980   27.4720    5.9170 C.3   144  HEM144      0.0000
     39  CAD       24.5820   28.8470    6.3490 C.3   144  HEM144      0.0000
     40  CBD       24.5950   29.8360    5.1820 C.3   144  HEM144      0.0000
     41  CGD       23.4140   29.5710    4.2830 C.2   144  HEM144      0.0000
     42  O1D       23.5780   29.6150    3.0420 O.co2 144  HEM144      0.0000
     43  O2D       22.3000   29.3270    4.7980 O.co2 144  HEM144      0.0000
@<TRIPOS>BOND
     1    42    41   ar
     2    41    43   ar
     3    41    40    1
     4    40    39    1
     5    38    35    1
     6    39    36    1
     7    35    36   ar
     8    35    34   ar
     9    32    31    2
    10    36    37   ar
    11    34     5    2
    12    34    33   ar
    13     5    29    1
    14    37    33   ar
    15    37     2    2
    16    31    28    1
    17    33     1    1
    18     2     7    1
    19    29    28    1
    20    29    25    2
    21    28    27    2
    22    15    14   ar
    23     7     8    1
    24     7     6    2
    25    12     8    1
    26    12    13    1
    27    25     1    1
    28    25    26    1
    29    27    26    1
    30    27    30    1
    31     1     6    1
    32     1    17    1
    33     8     9    2
    34    14    13    1
    35    14    16   ar
    36     6    10    1
    37    26     4    2
    38     9    10    1
    39     9    11    1
    40    10     3    2
    41    17    21   ar
    42    17    18   ar
    43     4    21    1
    44    21    20   ar
    45     3    18    1
    46    18    19   ar
    47    20    19   ar
    48    20    23    1
    49    19    22    1
    50    24    23    2
