@<TRIPOS>MOLECULE
2vyz_HEM_A_1.pdb
 43 50 0 0 0
SMALL
GASTEIGER

@<TRIPOS>ATOM
      1 FE         28.2220   31.3350   10.0990 Fe    144  HEM144      0.0000
      2  CHA       25.0870   30.8750    8.8000 C.2   144  HEM144      0.0000
      3  CHB       27.0840   33.9060   12.0350 C.2   144  HEM144      0.0000
      4  CHC       31.3410   31.6610   11.5550 C.2   144  HEM144      0.0000
      5  CHD       29.4960   28.8910    8.0530 C.2   144  HEM144      0.0000
      6  NA        26.3990   32.2280   10.3720 N.2   144  HEM144      0.0000
      7  C1A       25.2230   31.8970    9.7260 C.2   144  HEM144      0.0000
      8  C2A       24.1760   32.7910   10.2090 C.2   144  HEM144      0.0000
      9  C3A       24.7440   33.6420   11.1000 C.2   144  HEM144      0.0000
     10  C4A       26.1640   33.2890   11.2180 C.2   144  HEM144      0.0000
     11  CMA       24.0580   34.7900   11.8780 C.3   144  HEM144      0.0000
     12  CAA       22.6980   32.7360    9.7390 C.3   144  HEM144      0.0000
     13  CBA       21.9870   31.7460   10.6610 C.3   144  HEM144      0.0000
     14  CGA       20.4830   31.7660   10.4710 C.2   144  HEM144      0.0000
     15  O1A       19.9860   32.2210    9.4180 O.co2 144  HEM144      0.0000
     16  O2A       19.7680   31.3070   11.3840 O.co2 144  HEM144      0.0000
     17  NB        29.0530   32.5650   11.5460 N.ar  144  HEM144      0.0000
     18  C1B       28.4030   33.5630   12.2400 C.ar  144  HEM144      0.0000
     19  C2B       29.3450   34.1790   13.1710 C.ar  144  HEM144      0.0000
     20  C3B       30.5410   33.5610   13.0120 C.ar  144  HEM144      0.0000
     21  C4B       30.3650   32.5260   12.0000 C.ar  144  HEM144      0.0000
     22  CMB       28.9800   35.3480   14.1110 C.3   144  HEM144      0.0000
     23  CAB       31.8870   33.7740   13.7630 C.2   144  HEM144      0.0000
     24  CBB       32.4550   34.9830   13.8530 C.2   144  HEM144      0.0000
     25  NC        30.0920   30.4240    9.8440 N.2   144  HEM144      0.0000
     26  C1C       31.2570   30.7280   10.5450 C.2   144  HEM144      0.0000
     27  C2C       32.3300   29.8560   10.0650 C.2   144  HEM144      0.0000
     28  C3C       31.8280   29.1040    9.0670 C.2   144  HEM144      0.0000
     29  C4C       30.4040   29.4350    8.9290 C.2   144  HEM144      0.0000
     30  CMC       33.8110   29.8490   10.5410 C.3   144  HEM144      0.0000
     31  CAC       32.6580   28.0430    8.2840 C.2   144  HEM144      0.0000
     32  CBC       32.3500   27.6200    7.0630 C.2   144  HEM144      0.0000
     33  ND        27.4170   30.0580    8.6610 N.ar  144  HEM144      0.0000
     34  C1D       28.1640   29.1590    7.9130 C.ar  144  HEM144      0.0000
     35  C2D       27.3060   28.5770    6.8910 C.ar  144  HEM144      0.0000
     36  C3D       25.9280   29.1900    7.1320 C.ar  144  HEM144      0.0000
     37  C4D       26.0900   30.0980    8.2470 C.ar  144  HEM144      0.0000
     38  CMD       27.6910   27.5150    5.8400 C.3   144  HEM144      0.0000
     39  CAD       24.6240   28.9290    6.3480 C.3   144  HEM144      0.0000
     40  CBD       24.6310   29.9060    5.1600 C.3   144  HEM144      0.0000
     41  CGD       23.4610   29.6470    4.2170 C.2   144  HEM144      0.0000
     42  O1D       23.7020   29.5920    2.9860 O.co2 144  HEM144      0.0000
     43  O2D       22.2900   29.5380    4.6960 O.co2 144  HEM144      0.0000
@<TRIPOS>BOND
     1    42    41   ar
     2    41    43   ar
     3    41    40    1
     4    40    39    1
     5    38    35    1
     6    39    36    1
     7    35    36   ar
     8    35    34   ar
     9    32    31    2
    10    36    37   ar
    11    34     5    2
    12    34    33   ar
    13     5    29    1
    14    37    33   ar
    15    37     2    2
    16    31    28    1
    17    33     1    1
    18     2     7    1
    19    29    28    1
    20    29    25    2
    21    28    27    2
    22    15    14   ar
    23     7     8    1
    24     7     6    2
    25    12     8    1
    26    12    13    1
    27    25     1    1
    28    25    26    1
    29    27    30    1
    30    27    26    1
    31     1     6    1
    32     1    17    1
    33     8     9    2
    34     6    10    1
    35    14    13    1
    36    14    16   ar
    37    26     4    2
    38     9    10    1
    39     9    11    1
    40    10     3    2
    41    17    21   ar
    42    17    18   ar
    43     4    21    1
    44    21    20   ar
    45     3    18    1
    46    18    19   ar
    47    20    19   ar
    48    20    23    1
    49    19    22    1
    50    23    24    2
