@<TRIPOS>MOLECULE
2vz0_NAP_A_1.pdb
 48 52 0 0 0
SMALL
GASTEIGER

@<TRIPOS>ATOM
      1  PA        14.0030  -12.7830   11.9330 P.3   269  NAP269      0.2189
      2  O1A       14.4070  -13.7750   10.9100 O.2   269  NAP269     -0.5170
      3  O2A       13.5590  -13.3950   13.2000 O.3   269  NAP269     -0.4371
      4  O5B       15.0970  -11.6470   12.1570 O.3   269  NAP269     -0.3112
      5  C5B       15.5310  -10.9210   11.0340 C.3   269  NAP269      0.1813
      6  C4B       16.9340  -10.4060   11.3370 C.3   269  NAP269      0.1820
      7  O4B       16.9790   -9.6070   12.5050 O.3   269  NAP269     -0.3136
      8  C3B       17.9750  -11.4770   11.6550 C.3   269  NAP269      0.2157
      9  O3B       18.3940  -12.0960   10.4610 O.3   269  NAP269     -0.2175
     10  C2B       19.0590  -10.6380   12.3520 C.3   269  NAP269      0.2314
     11  O2B       20.1940  -10.3350   11.5290 O.3   269  NAP269     -0.2630
     12  C1B       18.3090   -9.3430   12.7860 C.3   269  NAP269      0.3158
     13  N9A       18.6290   -9.1490   14.2160 N.pl3 269  NAP269     -0.1439
     14  C8A       18.2690   -9.9280   15.2960 C.3   269  NAP269      0.3377
     15  N7A       18.8880   -9.4490   16.3900 N.2   269  NAP269     -0.2095
     16  C5A       19.6800   -8.3910   16.0250 C.2   269  NAP269      0.2526
     17  C6A       20.5360   -7.5130   16.7130 C.2   269  NAP269      0.4393
     18  N6A       20.7410   -7.6060   18.0180 N.pl3 269  NAP269      0.2180
     19  N1A       21.2040   -6.5170   16.0270 N.2   269  NAP269      0.0021
     20  C2A       21.0200   -6.3690   14.6650 C.3   269  NAP269      0.5254
     21  N3A       20.1910   -7.2300   13.9780 N.2   269  NAP269     -0.0055
     22  C4A       19.5250   -8.2170   14.6470 C.2   269  NAP269      0.3518
     23  O3        12.7910  -11.9690   11.2420 O.3   269  NAP269     -0.2703
     24  PN        11.6680  -12.3950   10.2000 P.3   269  NAP269      0.2189
     25  O1N       12.2440  -12.4730    8.8300 O.2   269  NAP269     -0.5170
     26  O2N       10.9980  -13.5970   10.7650 O.3   269  NAP269     -0.4371
     27  O5D       10.5810  -11.2050   10.1900 O.3   269  NAP269     -0.3112
     28  C5D       10.9190   -9.8890    9.7660 C.3   269  NAP269      0.1813
     29  C4D       10.1090   -8.8290   10.5200 C.3   269  NAP269      0.1799
     30  O4D        8.7200   -9.1290   10.4320 O.3   269  NAP269     -0.3327
     31  C3D       10.4670   -8.6730   12.0030 C.3   269  NAP269      0.2158
     32  O3D       10.5030   -7.2900   12.3730 O.3   269  NAP269     -0.2175
     33  C2D        9.3270   -9.4160   12.6820 C.3   269  NAP269      0.2309
     34  O2D        9.1000   -9.0270   14.0200 O.3   269  NAP269     -0.2158
     35  C1D        8.1400   -9.2070   11.7360 C.3   269  NAP269      0.2263
     36  N1N        7.2200  -10.3520   11.8730 N.pl3 269  NAP269     -0.2787
     37  C2N        7.5710  -11.5720   11.3290 C.3   269  NAP269      0.1244
     38  C3N        6.7070  -12.6430   11.4870 C.2   269  NAP269      0.0544
     39  C7N        7.0700  -13.9890   10.9620 C.2   269  NAP269      0.2818
     40  O7N        6.0110  -14.8870   10.8500 O.2   269  NAP269     -0.2670
     41  N7N        8.3350  -14.2530   10.6400 N.am  269  NAP269     -0.0839
     42  C4N        5.5090  -12.4940   12.1870 C.2   269  NAP269      0.0033
     43  C5N        5.1900  -11.2540   12.7420 C.2   269  NAP269      0.0157
     44  C6N        6.0550  -10.1910   12.5720 C.2   269  NAP269      0.0633
     45  P2B       21.4500  -11.3670   11.3200 P.3   269  NAP269      0.5328
     46  O1X       22.3850  -10.6910   10.3370 O.2   269  NAP269     -0.2224
     47  O2X       20.8870  -12.6760   10.8070 O.3   269  NAP269     -0.1145
     48  O3X       22.1000  -11.5420   12.6680 O.3   269  NAP269     -0.1145
@<TRIPOS>BOND
     1    25    24    2
     2    28    27    1
     3    28    29    1
     4    27    24    1
     5    24    26    1
     6    24    23    1
     7    46    45    2
     8    30    29    1
     9    30    35    1
    10     9     8    1
    11    29    31    1
    12    41    39   am
    13    47    45    1
    14    40    39    2
    15     2     1    2
    16    39    38    1
    17     5     6    1
    18     5     4    1
    19    23     1    1
    20    45    11    1
    21    45    48    1
    22    37    38    1
    23    37    36    1
    24     6     8    1
    25     6     7    1
    26    38    42    2
    27    11    10    1
    28     8    10    1
    29    35    36    1
    30    35    33    1
    31    36    44    1
    32     1     4    1
    33     1     3    1
    34    31    32    1
    35    31    33    1
    36    42    43    1
    37    10    12    1
    38     7    12    1
    39    44    43    2
    40    33    34    1
    41    12    13    1
    42    21    22    2
    43    21    20    1
    44    13    22    1
    45    13    14    1
    46    22    16    1
    47    20    19    1
    48    14    15    1
    49    16    15    2
    50    16    17    1
    51    19    17    2
    52    17    18    1
