@<TRIPOS>MOLECULE
2vz0_D64_A_1.pdb
 19 21 0 0 0
SMALL
GASTEIGER

@<TRIPOS>ATOM
      1  C1        10.0000  -14.1290   14.1190 C.2   500  D64500      0.1483
      2  C2         8.7170  -13.7610   14.5300 C.2   500  D64500      0.0748
      3  C3         8.4870  -12.4440   14.9770 C.2   500  D64500      0.2349
      4  N4         9.5260  -11.5930   15.0150 N.2   500  D64500     -0.3072
      5  C5        10.7610  -11.9700   14.6120 C.1   500  D64500      0.2427
      6  N6        11.0020  -13.2320   14.1720 N.2   500  D64500     -0.3257
      7  N7         7.2490  -12.0290   15.3780 N.pl3 500  D64500     -0.0920
      8  C8        10.2520  -15.4360   13.6690 C.2   500  D64500      0.0293
      9  C9         9.2160  -16.3750   13.6320 C.2   500  D64500     -0.0150
     10  C12        7.9250  -16.0130   14.0340 C.3   500  D64500      0.0664
     11  C13        7.6870  -14.6990   14.4880 C.2   500  D64500     -0.0111
     12  N14       11.7560  -11.0830   14.6580 N.pl3 500  D64500     -0.0232
     13  C26        5.5510  -18.6540   15.3100 C.ar  500  D64500     -0.0046
     14  C27        4.7240  -18.8710   14.2050 C.ar  500  D64500     -0.0219
     15  C22        4.9320  -18.1790   13.0150 C.ar  500  D64500     -0.0046
     16  C23        5.9760  -17.2440   12.9340 C.ar  500  D64500     -0.0040
     17  CAP        6.8050  -17.0010   14.0300 C.ar  500  D64500     -0.0144
     18  C25        6.5840  -17.7140   15.2190 C.ar  500  D64500     -0.0040
     19  CAC        3.6120  -19.8920   14.2750 C.3   500  D64500      0.0310
@<TRIPOS>BOND
     1    16    15   ar
     2    16    17   ar
     3    15    14   ar
     4     9     8    2
     5     9    10    1
     6     8     1    1
     7    17    10    1
     8    17    18   ar
     9    10    11    1
    10     1     6    2
    11     1     2    1
    12     6     5    2
    13    14    19    1
    14    14    13   ar
    15    11     2    2
    16     2     3    1
    17     5    12    1
    18     5     4    2
    19     3     4    2
    20     3     7    1
    21    18    13   ar
