@<TRIPOS>MOLECULE
2vz2_C15_A_1.pdb
 22 21 0 0 0
SMALL
GASTEIGER

@<TRIPOS>ATOM
      1  C1        29.5580  154.1610   42.9830 C.3   1504  C151504     0.1031
      2  C2        29.6970  155.6650   42.7520 C.3   1504  C151504    -0.0007
      3  C3        29.1880  156.0710   41.3640 C.3   1504  C151504    -0.0715
      4  C5        24.1640  162.3220   51.6310 C.3   1504  C151504     0.0000
      5  C6        24.5570  161.2200   50.6710 C.3   1504  C151504     0.0000
      6  C7        23.3520  160.7310   49.8700 C.3   1504  C151504     0.0000
      7  C8        23.7710  160.2680   48.4770 C.3   1504  C151504     0.0000
      8  N1        29.2530  157.5240   41.0830 N.4   1504  C151504     0.3871
      9  C1N       30.6510  157.9730   41.0490 C.3   1504  C151504    -0.0959
     10  C2N       28.6910  157.7680   39.7460 C.3   1504  C151504    -0.0959
     11  C9        22.5650  159.8700   47.6300 C.3   1504  C151504     0.0000
     12  C10       22.7570  160.2510   46.1640 C.3   1504  C151504     0.0000
     13  C11       23.2950  159.0880   45.3320 C.3   1504  C151504    -0.0000
     14  C12       24.7370  159.3460   44.9080 C.3   1504  C151504    -0.0000
     15  C13       25.0100  158.7940   43.5150 C.3   1504  C151504    -0.0001
     16  C14       26.3830  159.2320   43.0170 C.3   1504  C151504    -0.0021
     17  C15       27.0290  158.1610   42.1460 C.3   1504  C151504    -0.0223
     18  C16       28.5480  158.3400   42.1020 C.3   1504  C151504    -0.0732
     19  S1        29.2260  153.8160   44.5830 S.3   1504  C151504    -0.1961
     20  O1S       29.1630  152.3460   44.7600 O.3   1504  C151504    -0.3075
     21  O2S       27.9270  154.4230   44.9640 O.3   1504  C151504    -0.3075
     22  O3S       30.2990  154.3560   45.4520 O.3   1504  C151504    -0.3075
@<TRIPOS>BOND
     1    10     8    1
     2     9     8    1
     3     8     3    1
     4     8    18    1
     5     3     2    1
     6    18    17    1
     7    17    16    1
     8     2     1    1
     9     1    19    1
    10    16    15    1
    11    15    14    1
    12    19    20    1
    13    19    21    1
    14    19    22    1
    15    14    13    1
    16    13    12    1
    17    12    11    1
    18    11     7    1
    19     7     6    1
    20     6     5    1
    21     5     4    1
