@<TRIPOS>MOLECULE
2vz2_MFG_A_1.pdb
 13 13 0 0 0
SMALL
GASTEIGER

@<TRIPOS>ATOM
      1  F1        51.6850  156.4680   29.3470 F     1503  MFG1503    -0.2042
      2  C2        52.0250  155.8130   28.2200 C.ar  1503  MFG1503     0.1401
      3  C3        51.8020  154.4400   28.1120 C.ar  1503  MFG1503     0.0293
      4  C4        52.1490  153.7740   26.9340 C.ar  1503  MFG1503    -0.0020
      5  C5        52.7300  154.4780   25.8730 C.ar  1503  MFG1503    -0.0217
      6  C6        53.1040  153.7760   24.5850 C.3   1503  MFG1503     0.0311
      7  C7        54.4180  153.0090   24.6850 C.3   1503  MFG1503     0.0327
      8  C8        54.3520  151.7220   23.8880 C.2   1503  MFG1503    -0.0009
      9  C9        54.4340  150.4350   24.6280 C.2   1503  MFG1503     0.1178
     10  N10       53.7720  149.4010   24.3200 N.2   1503  MFG1503    -0.1467
     11  C13       52.9460  155.8520   25.9840 C.ar  1503  MFG1503    -0.0020
     12  C14       52.5990  156.5190   27.1580 C.ar  1503  MFG1503     0.0293
     13  CAA       54.2350  151.7640   22.5430 C.2   1503  MFG1503    -0.0029
@<TRIPOS>BOND
     1    13     8    2
     2     8     9    1
     3     8     7    1
     4    10     9    2
     5     6     7    1
     6     6     5    1
     7     5    11   ar
     8     5     4   ar
     9    11    12   ar
    10     4     3   ar
    11    12     2   ar
    12     3     2   ar
    13     2     1    1
