@<TRIPOS>MOLECULE
2vz6_FEF_A_1.pdb
 27 30 0 0 0
SMALL
GASTEIGER

@<TRIPOS>ATOM
      1  OAV       53.5920   58.8730   20.6470 O.2   600  FEF600     -0.2092
      2  CAT       53.1460   60.0820   20.5750 C.1   600  FEF600      0.2073
      3  CAR       52.7440   60.7530   19.4110 C.2   600  FEF600      0.1282
      4  CAS       52.3980   62.0530   19.8700 C.ar  600  FEF600      0.0450
      5  CAX       51.9430   63.2550   19.2860 C.ar  600  FEF600      0.0034
      6  CAY       51.7280   64.3860   20.0450 C.ar  600  FEF600      0.0002
      7  CAZ       51.9660   64.3720   21.4090 C.ar  600  FEF600      0.0027
      8  CBA       52.4290   63.2120   22.0040 C.ar  600  FEF600      0.0331
      9  CAW       52.6340   62.0550   21.2560 C.ar  600  FEF600      0.1452
     10  NAU       53.1030   60.8550   21.6570 N.2   600  FEF600     -0.3328
     11  CAI       52.7070   60.1070   18.1820 C.2   600  FEF600      0.1640
     12  CAG       52.3220   60.4920   16.8930 C.2   600  FEF600      0.1516
     13  CAD       52.4860   59.4010   16.0390 C.2   600  FEF600      0.0490
     14  CAC       52.2740   59.1890   14.6750 C.2   600  FEF600     -0.0172
     15  CAA       52.5550   57.9390   14.1220 C.3   600  FEF600      0.0522
     16  CAB       53.0340   56.9040   14.9300 C.2   600  FEF600     -0.0188
     17  CAF       53.2310   57.1090   16.2930 C.2   600  FEF600      0.0279
     18  CAE       52.9690   58.3670   16.8420 C.2   600  FEF600      0.1325
     19  NAH       53.1010   58.8230   18.1080 N.2   600  FEF600     -0.3995
     20  NAJ       51.8840   61.7210   16.5380 N.2   600  FEF600     -0.0803
     21  OAK       51.5720   62.1850   15.2130 O.2   600  FEF600     -0.3772
     22  CAL       51.3840   63.5950   15.0100 C.3   600  FEF600      0.2412
     23  CAM       49.9550   64.0060   15.3690 C.3   600  FEF600      0.0859
     24  CAN       49.8430   65.2900   16.2080 C.3   600  FEF600      0.1886
     25  OAQ       51.0590   66.0520   16.1650 O.3   600  FEF600     -0.2202
     26  CAO       48.6770   66.1320   15.6740 C.3   600  FEF600      0.2148
     27  OAP       48.2920   67.2080   16.5500 O.3   600  FEF600     -0.2176
@<TRIPOS>BOND
     1    15    14    1
     2    15    16    1
     3    14    13    2
     4    16    17    2
     5    22    21    1
     6    22    23    1
     7    21    20    1
     8    23    24    1
     9    26    24    1
    10    26    27    1
    11    13    18    1
    12    13    12    1
    13    25    24    1
    14    17    18    1
    15    20    12    2
    16    18    19    2
    17    12    11    1
    18    19    11    2
    19    11     3    1
    20     5     4   ar
    21     5     6   ar
    22     3     4    2
    23     3     2    1
    24     4     9   ar
    25     6     7   ar
    26     2     1    2
    27     2    10    2
    28     9    10    2
    29     9     8   ar
    30     7     8   ar
