@<TRIPOS>MOLECULE
2vz7_HEM_A_1.pdb
 43 50 0 0 0
SMALL
GASTEIGER

@<TRIPOS>ATOM
      1 FE         51.0020   24.0130   64.1290 Fe    1407  HEM1407     0.0000
      2  CHA       50.2240   21.8440   66.6650 C.2   1407  HEM1407     0.0000
      3  CHB       48.1610   23.0140   62.4370 C.2   1407  HEM1407     0.0000
      4  CHC       51.8310   26.0630   61.5460 C.2   1407  HEM1407     0.0000
      5  CHD       54.1820   24.3260   65.3620 C.2   1407  HEM1407     0.0000
      6  NA        49.4650   22.8290   64.5250 N.ar  1407  HEM1407     0.0000
      7  C1A       49.2690   22.0320   65.6540 C.ar  1407  HEM1407     0.0000
      8  C2A       48.0580   21.2680   65.5500 C.ar  1407  HEM1407     0.0000
      9  C3A       47.5280   21.5560   64.3550 C.ar  1407  HEM1407     0.0000
     10  C4A       48.3730   22.5190   63.7180 C.ar  1407  HEM1407     0.0000
     11  CMA       46.3030   20.8970   63.7510 C.3   1407  HEM1407     0.0000
     12  CAA       47.5190   20.2440   66.5210 C.3   1407  HEM1407     0.0000
     13  CBA       47.6380   18.8490   65.9270 C.3   1407  HEM1407     0.0000
     14  CGA       46.9290   17.7850   66.7460 C.2   1407  HEM1407     0.0000
     15  O1A       46.7800   16.6600   66.2350 O.co2 1407  HEM1407     0.0000
     16  O2A       46.5230   18.0610   67.8930 O.co2 1407  HEM1407     0.0000
     17  NB        50.2210   24.4080   62.3590 N.2   1407  HEM1407     0.0000
     18  C1B       49.0320   23.9180   61.8060 C.2   1407  HEM1407     0.0000
     19  C2B       48.7290   24.5620   60.5500 C.2   1407  HEM1407     0.0000
     20  C3B       49.7120   25.4580   60.3380 C.2   1407  HEM1407     0.0000
     21  C4B       50.6540   25.3260   61.4260 C.2   1407  HEM1407     0.0000
     22  CMB       47.6510   24.1200   59.5710 C.3   1407  HEM1407     0.0000
     23  CAB       49.9030   26.2790   59.2410 C.3   1407  HEM1407     0.0000
     24  CBB       49.0030   26.5110   58.1340 C.3   1407  HEM1407     0.0000
     25  NC        52.5660   25.1340   63.7040 N.ar  1407  HEM1407     0.0000
     26  C1C       52.7020   26.0120   62.6340 C.ar  1407  HEM1407     0.0000
     27  C2C       53.9740   26.7130   62.6400 C.ar  1407  HEM1407     0.0000
     28  C3C       54.6770   26.1310   63.6710 C.ar  1407  HEM1407     0.0000
     29  C4C       53.8010   25.1720   64.3230 C.ar  1407  HEM1407     0.0000
     30  CMC       54.3850   27.8350   61.6600 C.3   1407  HEM1407     0.0000
     31  CAC       56.0260   26.2880   63.9620 C.3   1407  HEM1407     0.0000
     32  CBC       56.6870   27.5260   64.3010 C.3   1407  HEM1407     0.0000
     33  ND        51.9710   23.3050   65.7100 N.2   1407  HEM1407     0.0000
     34  C1D       53.3230   23.4340   65.9990 C.2   1407  HEM1407     0.0000
     35  C2D       53.6680   22.5930   67.1220 C.2   1407  HEM1407     0.0000
     36  C3D       52.5280   22.0700   67.6550 C.2   1407  HEM1407     0.0000
     37  C4D       51.4880   22.4400   66.7100 C.2   1407  HEM1407     0.0000
     38  CMD       55.0810   22.2130   67.5440 C.3   1407  HEM1407     0.0000
     39  CAD       52.4180   21.3910   69.0340 C.3   1407  HEM1407     0.0000
     40  CBD       51.2940   21.9420   69.9120 C.3   1407  HEM1407     0.0000
     41  CGD       51.2420   21.3130   71.2940 C.2   1407  HEM1407     0.0000
     42  O1D       51.1150   22.0740   72.2750 O.co2 1407  HEM1407     0.0000
     43  O2D       51.3140   20.0680   71.3980 O.co2 1407  HEM1407     0.0000
@<TRIPOS>BOND
     1    24    23    1
     2    23    20    1
     3    22    19    1
     4    20    19    2
     5    20    21    1
     6    19    18    1
     7    21     4    2
     8    21    17    1
     9     4    26    1
    10    30    27    1
    11    18    17    2
    12    18     3    1
    13    17     1    1
    14     3    10    2
    15    26    27   ar
    16    26    25   ar
    17    27    28   ar
    18    28    31    1
    19    28    29   ar
    20    25     1    1
    21    25    29   ar
    22    10     9   ar
    23    10     6   ar
    24    11     9    1
    25    31    32    1
    26     1     6    1
    27     1    33    1
    28    29     5    1
    29     9     8   ar
    30     6     7   ar
    31     5    34    2
    32     8     7   ar
    33     8    12    1
    34     7     2    2
    35    33    34    1
    36    33    37    2
    37    13    12    1
    38    13    14    1
    39    34    35    1
    40    15    14   ar
    41     2    37    1
    42    37    36    1
    43    14    16   ar
    44    35    38    1
    45    35    36    2
    46    36    39    1
    47    39    40    1
    48    40    41    1
    49    41    43   ar
    50    41    42   ar
