@<TRIPOS>MOLECULE
2vz7_PXI_A_1.pdb
 32 33 0 0 0
SMALL
GASTEIGER

@<TRIPOS>ATOM
      1  C1        51.0280   19.6020   62.9960 C.3   1408  PXI1408     0.0038
      2  C2        50.2540   18.7870   61.9550 C.3   1408  PXI1408     0.0440
      3  C3        51.1440   17.9370   60.9960 C.3   1408  PXI1408     0.1727
      4  O1        52.0530   16.9410   61.6930 O.3   1408  PXI1408    -0.4519
      5  C4        53.3030   17.2630   62.2020 C.2   1408  PXI1408     0.3187
      6  O2        53.6960   18.4120   62.1000 O.2   1408  PXI1408    -0.2500
      7  C5        54.2660   16.1740   62.9040 C.3   1408  PXI1408     0.1262
      8  C6        55.5720   16.8250   63.3750 C.3   1408  PXI1408     0.0142
      9  C7        54.6980   14.9400   61.9550 C.3   1408  PXI1408     0.1283
     10  O3        54.2230   13.7110   62.5250 O.3   1408  PXI1408    -0.3305
     11  C8        55.5120   13.1630   63.0430 C.3   1408  PXI1408     0.2679
     12  O4        56.4470   12.9780   61.9220 O.3   1408  PXI1408    -0.3311
     13  C9        57.7460   12.5000   62.3530 C.3   1408  PXI1408     0.1194
     14  C10       58.6610   12.3320   61.1520 C.3   1408  PXI1408     0.0322
     15  C11       57.6560   11.1620   63.0630 C.3   1408  PXI1408     0.0483
     16  C12       56.7370   11.3140   64.3010 C.3   1408  PXI1408     0.0957
     17  N1        56.7050    9.9710   65.0000 N.3   1408  PXI1408    -0.2691
     18  C13       58.0810    9.6830   65.4460 C.3   1408  PXI1408     0.0897
     19  C14       55.9250    9.9770   66.2210 C.3   1408  PXI1408     0.0897
     20  C15       55.3220   11.8070   63.7660 C.3   1408  PXI1408     0.2224
     21  O5        54.4080   12.0070   64.8520 O.3   1408  PXI1408    -0.2163
     22  C16       54.2500   15.1910   60.5100 C.3   1408  PXI1408     0.0283
     23  C17       54.9990   16.4360   59.9220 C.3   1408  PXI1408     0.0025
     24  C18       54.3940   14.0390   59.5130 C.3   1408  PXI1408     0.0101
     25  C19       54.0590   14.4640   58.0390 C.3   1408  PXI1408     0.0620
     26  C20       54.1350   13.2270   57.1400 C.3   1408  PXI1408     0.0081
     27  C21       52.6950   15.2460   57.7750 C.2   1408  PXI1408     0.1724
     28  O6        52.2860   15.3600   56.6380 O.2   1408  PXI1408    -0.2914
     29  C22       51.9390   15.8920   58.8730 C.2   1408  PXI1408     0.0330
     30  C23       50.8260   16.6050   58.7710 C.2   1408  PXI1408    -0.0199
     31  C24       50.1630   17.2160   60.0070 C.3   1408  PXI1408     0.0622
     32  C25       49.3680   16.1320   60.7530 C.3   1408  PXI1408     0.0084
@<TRIPOS>BOND
     1    28    27    2
     2    26    25    1
     3    27    25    1
     4    27    29    1
     5    25    24    1
     6    30    29    2
     7    30    31    1
     8    24    22    1
     9    23    22    1
    10    31    32    1
    11    31     3    1
    12    22     9    1
    13     3     4    1
    14     3     2    1
    15    14    13    1
    16     4     5    1
    17    12    13    1
    18    12    11    1
    19     2     1    1
    20     9    10    1
    21     9     7    1
    22     6     5    2
    23     5     7    1
    24    13    15    1
    25    10    11    1
    26     7     8    1
    27    11    20    1
    28    15    16    1
    29    20    16    1
    30    20    21    1
    31    16    17    1
    32    17    18    1
    33    17    19    1
