@<TRIPOS>MOLECULE
2vz9_NAP_A_1.pdb
 48 52 0 0 0
SMALL
GASTEIGER

@<TRIPOS>ATOM
      1  PA        37.9300  141.3780   82.0630 P.3   3001  NAP3001     0.2189
      2  O1A       39.3260  140.9890   82.3950 O.2   3001  NAP3001    -0.5170
      3  O2A       37.2830  142.0030   83.2350 O.3   3001  NAP3001    -0.4371
      4  O5B       37.1450  140.0460   81.6040 O.3   3001  NAP3001    -0.3112
      5  C5B       36.8210  139.8130   80.2560 C.3   3001  NAP3001     0.1813
      6  C4B       35.3140  139.6800   80.0940 C.3   3001  NAP3001     0.1820
      7  O4B       34.9790  138.6650   79.1620 O.3   3001  NAP3001    -0.3136
      8  C3B       34.6050  139.3390   81.3920 C.3   3001  NAP3001     0.2157
      9  O3B       34.0330  140.4940   81.9700 O.3   3001  NAP3001    -0.2175
     10  C2B       33.4960  138.4240   80.9490 C.3   3001  NAP3001     0.2314
     11  O2B       32.2960  139.1390   80.9370 O.3   3001  NAP3001    -0.2630
     12  C1B       33.7190  138.1210   79.4890 C.3   3001  NAP3001     0.3158
     13  N9A       33.7090  136.6630   79.4020 N.pl3 3001  NAP3001    -0.1439
     14  C8A       32.8500  135.8970   78.6610 C.3   3001  NAP3001     0.3377
     15  N7A       33.1540  134.5950   78.8680 N.2   3001  NAP3001    -0.2095
     16  C5A       34.1940  134.5270   79.7260 C.2   3001  NAP3001     0.2526
     17  C6A       34.8900  133.4470   80.2510 C.2   3001  NAP3001     0.4393
     18  N6A       34.5180  132.2100   79.9000 N.pl3 3001  NAP3001     0.2180
     19  N1A       35.9520  133.6890   81.1250 N.2   3001  NAP3001     0.0021
     20  C2A       36.3120  134.9900   81.4730 C.3   3001  NAP3001     0.5254
     21  N3A       35.5910  136.0650   80.9460 N.2   3001  NAP3001    -0.0055
     22  C4A       34.5530  135.8260   80.0860 C.2   3001  NAP3001     0.3518
     23  O3        37.9550  142.3400   80.7710 O.3   3001  NAP3001    -0.2703
     24  PN        39.0690  143.3770   80.2260 P.3   3001  NAP3001     0.2189
     25  O1N       38.3730  144.6640   80.0660 O.2   3001  NAP3001    -0.5170
     26  O2N       40.3080  143.2680   81.0380 O.3   3001  NAP3001    -0.4371
     27  O5D       39.4270  142.8370   78.7580 O.3   3001  NAP3001    -0.3112
     28  C5D       38.3920  142.4800   77.8670 C.3   3001  NAP3001     0.1813
     29  C4D       38.9730  141.8680   76.5940 C.3   3001  NAP3001     0.1799
     30  O4D       39.6370  142.8760   75.8680 O.3   3001  NAP3001    -0.3327
     31  C3D       40.0030  140.7860   76.8820 C.3   3001  NAP3001     0.2158
     32  O3D       39.6230  139.5960   76.2190 O.3   3001  NAP3001    -0.2175
     33  C2D       41.3320  141.3520   76.3850 C.3   3001  NAP3001     0.2309
     34  O2D       42.0930  140.4050   75.6690 O.3   3001  NAP3001    -0.2158
     35  C1D       40.9240  142.4720   75.4590 C.3   3001  NAP3001     0.2263
     36  N1N       41.7920  143.6370   75.6130 N.pl3 3001  NAP3001    -0.2787
     37  C2N       42.4580  144.1430   74.4920 C.3   3001  NAP3001     0.1244
     38  C3N       43.2900  145.2430   74.6100 C.2   3001  NAP3001     0.0544
     39  C7N       44.0330  145.7860   73.3950 C.2   3001  NAP3001     0.2818
     40  O7N       44.8340  146.7180   73.4880 O.2   3001  NAP3001    -0.2670
     41  N7N       43.7030  145.2410   72.2290 N.am  3001  NAP3001    -0.0839
     42  C4N       43.4020  145.8440   75.8650 C.2   3001  NAP3001     0.0033
     43  C5N       42.7250  145.3450   76.9820 C.2   3001  NAP3001     0.0157
     44  C6N       41.9060  144.2370   76.8630 C.2   3001  NAP3001     0.0633
     45  P2B       30.9000  138.3520   80.9060 P.3   3001  NAP3001     0.5328
     46  O1X       29.8690  139.3630   81.3760 O.3   3001  NAP3001    -0.1145
     47  O2X       30.6120  137.8630   79.5040 O.2   3001  NAP3001    -0.2224
     48  O3X       30.9590  137.1400   81.8100 O.3   3001  NAP3001    -0.1145
@<TRIPOS>BOND
     1    41    39   am
     2    39    40    2
     3    39    38    1
     4    37    38    1
     5    37    36    1
     6    38    42    2
     7    35    36    1
     8    35    30    1
     9    35    33    1
    10    36    44    1
    11    34    33    1
    12    42    43    1
    13    30    29    1
    14    32    31    1
    15    33    31    1
    16    29    31    1
    17    29    28    1
    18    44    43    2
    19    28    27    1
    20    14    15    1
    21    14    13    1
    22    27    24    1
    23    15    16    2
    24     7    12    1
    25     7     6    1
    26    13    12    1
    27    13    22    1
    28    12    10    1
    29    47    45    2
    30    16    22    1
    31    16    17    1
    32    18    17    1
    33    25    24    2
    34    22    21    2
    35     6     5    1
    36     6     8    1
    37    24    23    1
    38    24    26    1
    39    17    19    2
    40     5     4    1
    41    23     1    1
    42    45    11    1
    43    45    46    1
    44    45    48    1
    45    11    10    1
    46    21    20    1
    47    10     8    1
    48    19    20    1
    49     8     9    1
    50     4     1    1
    51     1     2    2
    52     1     3    1
