@<TRIPOS>MOLECULE
2vze_AMP_A_1.pdb
 23 25 0 0 0
SMALL
GASTEIGER

@<TRIPOS>ATOM
      1  P        -28.6170   34.4990   -0.3170 P.3   1570  AMP1570     0.5327
      2  O1P      -28.7390   33.4000    0.7040 O.3   1570  AMP1570    -0.1145
      3  O2P      -28.4240   34.0070   -1.7330 O.2   1570  AMP1570    -0.2224
      4  O3P      -29.6550   35.5840   -0.2520 O.3   1570  AMP1570    -0.1145
      5  O5'      -27.2500   35.2760    0.0290 O.3   1570  AMP1570    -0.2675
      6  C5'      -26.9830   36.4740   -0.6970 C.3   1570  AMP1570     0.1860
      7  C4'      -25.7250   37.1230   -0.1670 C.3   1570  AMP1570     0.1823
      8  O4'      -24.6820   36.2220   -0.4480 O.3   1570  AMP1570    -0.3135
      9  C3'      -25.3030   38.4580   -0.8150 C.3   1570  AMP1570     0.2184
     10  O3'      -25.9380   39.6480   -0.3050 O.3   1570  AMP1570    -0.2174
     11  C2'      -23.8340   38.4610   -0.5520 C.3   1570  AMP1570     0.2570
     12  O2'      -23.5630   38.9820    0.7470 O.3   1570  AMP1570    -0.2130
     13  C1'      -23.4990   36.9760   -0.6840 C.3   1570  AMP1570     0.3186
     14  N9       -22.9640   36.7160   -2.0560 N.pl3 1570  AMP1570    -0.1439
     15  C8       -23.6010   36.1760   -3.1030 C.3   1570  AMP1570     0.3377
     16  N7       -22.7890   36.1490   -4.2000 N.2   1570  AMP1570    -0.2095
     17  C5       -21.6000   36.6750   -3.8560 C.2   1570  AMP1570     0.2526
     18  C6       -20.2970   36.9400   -4.5080 C.2   1570  AMP1570     0.4393
     19  N6       -20.0700   36.6170   -5.7860 N.pl3 1570  AMP1570     0.2180
     20  N1       -19.3280   37.5140   -3.7710 N.2   1570  AMP1570     0.0021
     21  C2       -19.5250   37.8490   -2.4790 C.3   1570  AMP1570     0.5254
     22  N3       -20.6810   37.6450   -1.8240 N.2   1570  AMP1570    -0.0055
     23  C4       -21.7290   37.0560   -2.4410 C.2   1570  AMP1570     0.3518
@<TRIPOS>BOND
     1    19    18    1
     2    18    17    1
     3    18    20    2
     4    16    17    2
     5    16    15    1
     6    17    23    1
     7    20    21    1
     8    15    14    1
     9    21    22    1
    10    23    14    1
    11    23    22    2
    12    14    13    1
    13     3     1    2
    14     9    11    1
    15     9    10    1
    16     9     7    1
    17     6     7    1
    18     6     5    1
    19    13    11    1
    20    13     8    1
    21    11    12    1
    22     8     7    1
    23     1     4    1
    24     1     5    1
    25     1     2    1
