@<TRIPOS>MOLECULE
2vzh_FMN_A_1.pdb
 31 33 0 0 0
SMALL
GASTEIGER

@<TRIPOS>ATOM
      1  N1        65.0390    1.8160  -10.2000 N.2   500  FMN500     -0.2887
      2  C2        64.5670    1.8200   -8.9400 C.1   500  FMN500      0.3669
      3  O2        65.0420    1.1040   -8.0620 O.2   500  FMN500     -0.1744
      4  N3        63.4820    2.5750   -8.6390 N.2   500  FMN500     -0.2300
      5  C4        62.7970    3.3680   -9.5200 C.1   500  FMN500      0.2513
      6  O4        61.8090    4.0140   -9.1810 O.2   500  FMN500     -0.2057
      7  C4A       63.2820    3.3550  -10.9240 C.2   500  FMN500      0.2706
      8  N5        62.6650    4.0020  -11.8950 N.2   500  FMN500     -0.3841
      9  C5A       63.0290    3.8650  -13.1790 C.2   500  FMN500      0.1452
     10  C6        62.2720    4.5190  -14.1780 C.2   500  FMN500      0.0252
     11  C7        62.6420    4.3930  -15.4970 C.2   500  FMN500     -0.0375
     12  C7M       61.7760    5.0260  -16.5580 C.3   500  FMN500      0.0268
     13  C8        63.7660    3.6460  -15.8470 C.3   500  FMN500      0.0417
     14  C8M       64.1730    3.4550  -17.2790 C.3   500  FMN500      0.0091
     15  C9        64.5030    2.9920  -14.8740 C.2   500  FMN500     -0.0049
     16  C9A       64.1540    3.0550  -13.5260 C.2   500  FMN500      0.0795
     17  N10       64.8230    2.3690  -12.5200 N.pl3 500  FMN500     -0.2545
     18  C10       64.4540    2.4860  -11.2080 C.2   500  FMN500      0.2449
     19  C1'       65.9250    1.4500  -12.7860 C.3   500  FMN500      0.1336
     20  C2'       65.4280    0.0510  -13.1750 C.3   500  FMN500      0.2048
     21  O2'       64.4430   -0.5410  -12.3250 O.3   500  FMN500     -0.2185
     22  C3'       66.6410   -0.8590  -13.4710 C.3   500  FMN500      0.2165
     23  O3'       67.4040   -0.0650  -14.3560 O.3   500  FMN500     -0.2175
     24  C4'       65.9100   -2.0200  -14.1100 C.3   500  FMN500      0.2147
     25  O4'       66.8060   -2.9330  -13.4520 O.3   500  FMN500     -0.2176
     26  C5'       66.1540   -2.3830  -15.5570 C.3   500  FMN500      0.1892
     27  O5'       65.2480   -3.4510  -15.7770 O.3   500  FMN500     -0.2674
     28  P         65.4900   -4.0360  -17.2550 P.3   500  FMN500      0.5327
     29  O1P       64.7430   -3.0270  -18.0340 O.2   500  FMN500     -0.2224
     30  O2P       67.0170   -4.2000  -17.6860 O.3   500  FMN500     -0.1145
     31  O3P       64.7410   -5.4420  -17.3490 O.3   500  FMN500     -0.1145
@<TRIPOS>BOND
     1    29    28    2
     2    30    28    1
     3    31    28    1
     4    14    13    1
     5    28    27    1
     6    12    11    1
     7    13    11    1
     8    13    15    1
     9    27    26    1
    10    26    24    1
    11    11    10    2
    12    15    16    2
    13    23    22    1
    14    10     9    1
    15    24    22    1
    16    24    25    1
    17    16     9    1
    18    16    17    1
    19    22    20    1
    20     9     8    2
    21    20    19    1
    22    20    21    1
    23    19    17    1
    24    17    18    1
    25     8     7    2
    26    18     7    1
    27    18     1    2
    28     7     5    1
    29     1     2    2
    30     5     6    2
    31     5     4    2
    32     2     4    2
    33     2     3    2
