@<TRIPOS>MOLECULE
2vzj_NAD_A_1.pdb
 44 48 0 0 0
SMALL
GASTEIGER

@<TRIPOS>ATOM
      1  PA        70.8200    0.4070  -12.9560 P.3   501  NAD501      0.2189
      2  O1A       71.8990    0.5410  -11.9700 O.3   501  NAD501     -0.4371
      3  O2A       69.3400    0.7180  -12.8060 O.2   501  NAD501     -0.5170
      4  O5B       71.4260    0.4440  -14.4540 O.3   501  NAD501     -0.3112
      5  C5B       70.5690    0.3650  -15.5650 C.3   501  NAD501      0.1813
      6  C4B       70.3640   -1.0800  -16.0060 C.3   501  NAD501      0.1821
      7  O4B       69.4740   -0.9890  -17.0830 O.3   501  NAD501     -0.3135
      8  C3B       71.6200   -1.7670  -16.6020 C.3   501  NAD501      0.2184
      9  O3B       71.9930   -2.9390  -15.8810 O.3   501  NAD501     -0.2174
     10  C2B       71.2190   -2.0210  -18.0740 C.3   501  NAD501      0.2570
     11  O2B       71.8070   -3.1550  -18.7060 O.3   501  NAD501     -0.2130
     12  C1B       69.7180   -2.0860  -17.9030 C.3   501  NAD501      0.3186
     13  N9A       68.8350   -1.9240  -19.0770 N.pl3 501  NAD501     -0.1439
     14  C8A       68.2610   -2.8330  -19.9250 C.3   501  NAD501      0.3377
     15  N7A       67.5290   -2.1470  -20.8450 N.2   501  NAD501     -0.2095
     16  C5A       67.6310   -0.8110  -20.5920 C.2   501  NAD501      0.2526
     17  C6A       67.1120    0.3660  -21.1840 C.2   501  NAD501      0.4393
     18  N6A       66.3200    0.3240  -22.2480 N.pl3 501  NAD501      0.2180
     19  N1A       67.4350    1.6020  -20.6420 N.2   501  NAD501      0.0021
     20  C2A       68.2580    1.6810  -19.5320 C.3   501  NAD501      0.5254
     21  N3A       68.7680    0.5450  -18.9490 N.2   501  NAD501     -0.0055
     22  C4A       68.4510   -0.6740  -19.4800 C.2   501  NAD501      0.3518
     23  O3        70.8480    2.0260  -13.1480 O.3   501  NAD501     -0.2703
     24  PN        70.3980    3.2370  -12.1660 P.3   501  NAD501      0.2189
     25  O1N       69.0250    3.1030  -11.5880 O.3   501  NAD501     -0.4371
     26  O2N       71.0550    4.5560  -12.2710 O.2   501  NAD501     -0.5170
     27  O5D       69.5700    3.5910  -13.5200 O.3   501  NAD501     -0.3112
     28  C5D       70.2340    3.9010  -14.7440 C.3   501  NAD501      0.1813
     29  C4D       69.2390    4.2100  -15.8690 C.3   501  NAD501      0.1799
     30  O4D       67.9310    4.2790  -15.3340 O.3   501  NAD501     -0.3327
     31  C3D       69.4790    5.5500  -16.5490 C.3   501  NAD501      0.2158
     32  O3D       69.2440    5.4140  -17.9440 O.3   501  NAD501     -0.2175
     33  C2D       68.5060    6.4870  -15.8750 C.3   501  NAD501      0.2309
     34  O2D       68.2000    7.6310  -16.6470 O.3   501  NAD501     -0.2158
     35  C1D       67.3430    5.5420  -15.6020 C.3   501  NAD501      0.2263
     36  N1N       66.4980    5.8620  -14.4330 N.pl3 501  NAD501     -0.2787
     37  C2N       65.3270    6.5090  -14.6700 C.3   501  NAD501      0.1244
     38  C3N       64.4960    6.8130  -13.6090 C.2   501  NAD501      0.0544
     39  C7N       63.2260    7.5060  -13.8840 C.2   501  NAD501      0.2818
     40  O7N       62.4160    7.7810  -12.8120 O.2   501  NAD501     -0.2670
     41  N7N       62.8540    7.8500  -15.0960 N.am  501  NAD501     -0.0839
     42  C4N       64.8580    6.4610  -12.3080 C.2   501  NAD501      0.0033
     43  C5N       66.0640    5.8040  -12.0850 C.2   501  NAD501      0.0157
     44  C6N       66.8790    5.5060  -13.1640 C.2   501  NAD501      0.0633
@<TRIPOS>BOND
     1    18    17    1
     2    17    19    2
     3    17    16    1
     4    15    16    2
     5    15    14    1
     6    19    20    1
     7    16    22    1
     8    14    13    1
     9    20    21    1
    10    22    13    1
    11    22    21    2
    12    13    12    1
    13    11    10    1
    14    10    12    1
    15    10     8    1
    16    32    31    1
    17    12     7    1
    18     7     6    1
    19    34    33    1
    20     8     6    1
    21     8     9    1
    22    31    33    1
    23    31    29    1
    24     6     5    1
    25    33    35    1
    26    29    30    1
    27    29    28    1
    28    35    30    1
    29    35    36    1
    30     5     4    1
    31    41    39   am
    32    28    27    1
    33    37    36    1
    34    37    38    1
    35     4     1    1
    36    36    44    1
    37    39    38    1
    38    39    40    2
    39    38    42    2
    40    27    24    1
    41    44    43    2
    42    23     1    1
    43    23    24    1
    44     1     3    2
    45     1     2    1
    46    42    43    1
    47    26    24    2
    48    24    25    1
