@<TRIPOS>MOLECULE
2vzj_FMN_A_1.pdb
 31 33 0 0 0
SMALL
GASTEIGER

@<TRIPOS>ATOM
      1  N1        64.9640    1.8670  -10.1300 N.2   500  FMN500     -0.2890
      2  C2        64.4720    1.9220   -8.8890 C.1   500  FMN500      0.3669
      3  O2        64.9940    1.2490   -8.0250 O.2   500  FMN500     -0.1744
      4  N3        63.3640    2.6360   -8.5860 N.2   500  FMN500     -0.2300
      5  C4        62.6480    3.3540   -9.5070 C.1   500  FMN500      0.2513
      6  O4        61.6020    3.9440   -9.2620 O.2   500  FMN500     -0.2057
      7  C4A       63.1460    3.3170  -10.9030 C.2   500  FMN500      0.2700
      8  N5        62.4940    3.8980  -11.8900 N.2   500  FMN500     -0.3878
      9  C5A       62.8860    3.7570  -13.1660 C.2   500  FMN500      0.1320
     10  C6        62.1490    4.4170  -14.1820 C.2   500  FMN500      0.0250
     11  C7        62.5630    4.3360  -15.4940 C.2   500  FMN500     -0.0238
     12  C7M       61.6940    5.0020  -16.5280 C.3   500  FMN500      0.0308
     13  C8        63.7200    3.6180  -15.8240 C.2   500  FMN500     -0.0280
     14  C8M       64.2110    3.5380  -17.2400 C.3   500  FMN500      0.0304
     15  C9        64.4220    2.9190  -14.8490 C.2   500  FMN500     -0.0041
     16  C9A       64.0310    2.9570  -13.4970 C.3   500  FMN500      0.1497
     17  N10       64.6990    2.2930  -12.4670 N.pl3 500  FMN500     -0.2691
     18  C10       64.3480    2.4700  -11.1550 C.2   500  FMN500      0.2416
     19  C1'       65.8200    1.3990  -12.7330 C.3   500  FMN500      0.1294
     20  C2'       65.3460    0.0090  -13.1480 C.3   500  FMN500      0.2044
     21  O2'       64.4080   -0.5580  -12.2340 O.3   500  FMN500     -0.2185
     22  C3'       66.5670   -0.8740  -13.4480 C.3   500  FMN500      0.2164
     23  O3'       67.3280   -0.0870  -14.3150 O.3   500  FMN500     -0.2175
     24  C4'       65.8150   -1.9780  -14.1350 C.3   500  FMN500      0.2147
     25  O4'       66.6270   -2.8860  -13.3890 O.3   500  FMN500     -0.2176
     26  C5'       66.1320   -2.3150  -15.5720 C.3   500  FMN500      0.1892
     27  O5'       65.3490   -3.4950  -15.6990 O.3   500  FMN500     -0.2674
     28  P         65.5110   -4.0770  -17.1780 P.3   500  FMN500      0.5327
     29  O1P       64.7510   -3.1230  -18.0200 O.2   500  FMN500     -0.2224
     30  O2P       67.0640   -4.1560  -17.5240 O.3   500  FMN500     -0.1145
     31  O3P       64.8100   -5.4930  -17.2680 O.3   500  FMN500     -0.1145
@<TRIPOS>BOND
     1    29    28    2
     2    30    28    1
     3    31    28    1
     4    14    13    1
     5    28    27    1
     6    12    11    1
     7    13    11    1
     8    13    15    2
     9    27    26    1
    10    26    24    1
    11    11    10    2
    12    15    16    1
    13    23    22    1
    14    10     9    1
    15    24    22    1
    16    24    25    1
    17    16     9    1
    18    16    17    1
    19    22    20    1
    20     9     8    2
    21    20    19    1
    22    20    21    1
    23    19    17    1
    24    17    18    1
    25     8     7    2
    26    18     7    1
    27    18     1    2
    28     7     5    1
    29     1     2    2
    30     5     6    2
    31     5     4    2
    32     2     4    2
    33     2     3    2
