@<TRIPOS>MOLECULE
2vzl_NAD_A_1.pdb
 27 29 0 0 0
SMALL
GASTEIGER

@<TRIPOS>ATOM
      1  O5B      -18.9830   41.0480    2.6570 O.3   305  NAD305     -0.3111
      2  C5B      -18.8140   39.9030    3.4660 C.3   305  NAD305      0.1813
      3  C4B      -19.3600   38.6950    2.7170 C.3   305  NAD305      0.1821
      4  O4B      -18.5780   38.4520    1.5610 O.3   305  NAD305     -0.3135
      5  C3B      -19.3280   37.3990    3.5170 C.3   305  NAD305      0.2184
      6  O3B      -20.4500   37.2220    4.3510 O.3   305  NAD305     -0.2174
      7  C2B      -19.2410   36.3490    2.4300 C.3   305  NAD305      0.2570
      8  O2B      -20.5190   35.9310    2.0020 O.3   305  NAD305     -0.2130
      9  C1B      -18.4820   37.0630    1.3140 C.3   305  NAD305      0.3186
     10  N9A      -17.0880   36.5880    1.3680 N.pl3 305  NAD305     -0.1439
     11  C8A      -16.0370   37.1250    2.0670 C.3   305  NAD305      0.3377
     12  N7A      -14.9400   36.3500    1.8590 N.2   305  NAD305     -0.2095
     13  C5A      -15.2830   35.3250    1.0480 C.2   305  NAD305      0.2526
     14  C6A      -14.5730   34.2510    0.5180 C.2   305  NAD305      0.4393
     15  N6A      -13.3550   33.9430    0.9710 N.pl3 305  NAD305      0.2180
     16  N1A      -15.2350   33.3600   -0.2980 N.2   305  NAD305      0.0021
     17  C2A      -16.5800   33.5160   -0.5830 C.3   305  NAD305      0.5254
     18  N3A      -17.2680   34.5840   -0.0620 N.2   305  NAD305     -0.0055
     19  C4A      -16.6340   35.4660    0.7410 C.2   305  NAD305      0.3518
     20  PA       -18.2420   42.4270    3.0420 P.3   305  NAD305      0.2231
     21  O1A      -18.4810   43.4390    1.9880 O.2   305  NAD305     -0.5169
     22  O2A      -16.7330   42.1980    3.2570 O.3   305  NAD305     -0.4370
     23  O3       -18.9740   42.8650    4.4080 O.3   305  NAD305     -0.2261
     24  PN       -19.3160   44.4040    4.7420 P.3   305  NAD305      0.5373
     25  O1N      -18.0610   45.1040    5.0930 O.3   305  NAD305     -0.1143
     26  O2N      -19.9610   45.0770    3.5160 O.2   305  NAD305     -0.2221
     27  O5D      -20.2880   44.4520    5.9360 O.3   305  NAD305     -0.1143
@<TRIPOS>BOND
     1    17    16    1
     2    17    18    1
     3    16    14    2
     4    18    19    2
     5    14    15    1
     6    14    13    1
     7    19    13    1
     8    19    10    1
     9    13    12    2
    10     9    10    1
    11     9     4    1
    12     9     7    1
    13    10    11    1
    14     4     3    1
    15    12    11    1
    16    21    20    2
    17     8     7    1
    18     7     5    1
    19     1    20    1
    20     1     2    1
    21     3     2    1
    22     3     5    1
    23    20    22    1
    24    20    23    1
    25    26    24    2
    26     5     6    1
    27    23    24    1
    28    24    25    1
    29    24    27    1
