@<TRIPOS>MOLECULE
2vzm_HEM_A_1.pdb
 43 50 0 0 0
SMALL
GASTEIGER

@<TRIPOS>ATOM
      1 FE         51.2110   24.0910   64.1030 Fe    1407  HEM1407     0.0000
      2  CHA       50.4230   21.9040   66.7050 C.2   1407  HEM1407     0.0000
      3  CHB       48.4020   23.0420   62.4650 C.2   1407  HEM1407     0.0000
      4  CHC       52.0730   26.0680   61.4560 C.2   1407  HEM1407     0.0000
      5  CHD       54.4120   24.4400   65.3800 C.2   1407  HEM1407     0.0000
      6  NA        49.7130   22.7040   64.4850 N.ar  1407  HEM1407     0.0000
      7  C1A       49.5330   21.9560   65.6460 C.ar  1407  HEM1407     0.0000
      8  C2A       48.2770   21.2260   65.5270 C.ar  1407  HEM1407     0.0000
      9  C3A       47.7290   21.5440   64.3530 C.ar  1407  HEM1407     0.0000
     10  C4A       48.6340   22.4740   63.6850 C.ar  1407  HEM1407     0.0000
     11  CMA       46.3840   21.0210   63.7430 C.3   1407  HEM1407     0.0000
     12  CAA       47.6530   20.2740   66.5700 C.3   1407  HEM1407     0.0000
     13  CBA       47.8320   18.8190   66.0830 C.3   1407  HEM1407     0.0000
     14  CGA       47.0430   17.8540   66.9430 C.2   1407  HEM1407     0.0000
     15  O1A       47.0680   16.6270   66.6800 O.co2 1407  HEM1407     0.0000
     16  O2A       46.4260   18.2730   67.9470 O.co2 1407  HEM1407     0.0000
     17  NB        50.3970   24.4540   62.2420 N.2   1407  HEM1407     0.0000
     18  C1B       49.1770   24.0060   61.8130 C.2   1407  HEM1407     0.0000
     19  C2B       48.8740   24.6770   60.5800 C.2   1407  HEM1407     0.0000
     20  C3B       49.8930   25.5250   60.2990 C.2   1407  HEM1407     0.0000
     21  C4B       50.8840   25.3860   61.3500 C.2   1407  HEM1407     0.0000
     22  CMB       47.5830   24.5070   59.7430 C.3   1407  HEM1407     0.0000
     23  CAB       50.0830   26.4450   59.0750 C.2   1407  HEM1407     0.0000
     24  CBB       49.0860   27.0670   58.4530 C.2   1407  HEM1407     0.0000
     25  NC        52.9810   25.0750   63.4970 N.ar  1407  HEM1407     0.0000
     26  C1C       53.0540   25.9620   62.4480 C.ar  1407  HEM1407     0.0000
     27  C2C       54.3090   26.7350   62.5830 C.ar  1407  HEM1407     0.0000
     28  C3C       54.9520   26.2710   63.7020 C.ar  1407  HEM1407     0.0000
     29  C4C       54.1220   25.1960   64.2610 C.ar  1407  HEM1407     0.0000
     30  CMC       54.7290   27.8860   61.6370 C.3   1407  HEM1407     0.0000
     31  CAC       56.3160   26.6470   64.3470 C.2   1407  HEM1407     0.0000
     32  CBC       56.9450   27.7760   64.0640 C.2   1407  HEM1407     0.0000
     33  ND        52.2490   23.3000   65.7580 N.2   1407  HEM1407     0.0000
     34  C1D       53.5910   23.6050   66.0650 C.2   1407  HEM1407     0.0000
     35  C2D       53.9580   22.8980   67.2780 C.2   1407  HEM1407     0.0000
     36  C3D       52.7090   22.1190   67.6590 C.2   1407  HEM1407     0.0000
     37  C4D       51.7120   22.4220   66.6830 C.2   1407  HEM1407     0.0000
     38  CMD       55.3290   22.8900   68.0080 C.3   1407  HEM1407     0.0000
     39  CAD       52.5350   21.2240   68.9030 C.3   1407  HEM1407     0.0000
     40  CBD       51.9290   22.1550   70.0000 C.3   1407  HEM1407     0.0000
     41  CGD       51.6310   21.3990   71.2690 C.2   1407  HEM1407     0.0000
     42  O1D       51.6560   20.1440   71.2340 O.co2 1407  HEM1407     0.0000
     43  O2D       51.4000   22.0370   72.3230 O.co2 1407  HEM1407     0.0000
@<TRIPOS>BOND
     1    24    23    2
     2    23    20    1
     3    22    19    1
     4    20    19    2
     5    20    21    1
     6    19    18    1
     7    21     4    2
     8    21    17    1
     9     4    26    1
    10    30    27    1
    11    18    17    2
    12    18     3    1
    13    17     1    1
    14    26    27   ar
    15    26    25   ar
    16     3    10    2
    17    27    28   ar
    18    25     1    1
    19    25    29   ar
    20    10     9   ar
    21    10     6   ar
    22    28    29   ar
    23    28    31    1
    24    11     9    1
    25    32    31    2
    26     1     6    1
    27     1    33    1
    28    29     5    1
    29     9     8   ar
    30     6     7   ar
    31     5    34    2
    32     8     7   ar
    33     8    12    1
    34     7     2    2
    35    33    34    1
    36    33    37    2
    37    34    35    1
    38    13    12    1
    39    13    14    1
    40    15    14   ar
    41    37     2    1
    42    37    36    1
    43    14    16   ar
    44    35    36    2
    45    35    38    1
    46    36    39    1
    47    39    40    1
    48    40    41    1
    49    42    41   ar
    50    41    43   ar
