@<TRIPOS>MOLECULE
2vzm_NRB_A_1.pdb
 36 37 0 0 0
SMALL
GASTEIGER

@<TRIPOS>ATOM
      1  C1        50.9710   19.9740   62.4940 C.3   1408  NRB1408     0.0038
      2  C2        51.4900   18.6240   62.9250 C.3   1408  NRB1408     0.0440
      3  C3        52.5040   18.0910   61.9050 C.3   1408  NRB1408     0.1727
      4  O1        52.8430   16.7230   62.1520 O.3   1408  NRB1408    -0.4517
      5  C4        53.7960   16.5110   63.2340 C.2   1408  NRB1408     0.3234
      6  O2        54.3620   17.4590   63.7650 O.2   1408  NRB1408    -0.2496
      7  C5        54.0620   15.1060   63.6910 C.3   1408  NRB1408     0.1563
      8  C6        54.8870   15.1640   64.9690 C.3   1408  NRB1408     0.0196
      9  C7        54.8560   14.2480   62.7420 C.2   1408  NRB1408     0.1628
     10  O3        56.0030   14.5660   62.5260 O.2   1408  NRB1408    -0.2954
     11  C8        54.3170   12.9590   62.1780 C.3   1408  NRB1408     0.0854
     12  C9        52.8170   12.9440   61.9290 C.3   1408  NRB1408     0.0103
     13  C10       55.0540   12.5290   60.9170 C.3   1408  NRB1408     0.1246
     14  O4        54.3930   11.3250   60.5160 O.3   1408  NRB1408    -0.3307
     15  C11       55.1330   10.1410   60.7440 C.3   1408  NRB1408     0.2679
     16  O5        56.2820   10.2350   59.9260 O.3   1408  NRB1408    -0.3311
     17  C12       57.0800    9.0540   59.8130 C.3   1408  NRB1408     0.1194
     18  C13       58.0310    9.2740   58.6380 C.3   1408  NRB1408     0.0322
     19  C14       56.2850    7.7570   59.6120 C.3   1408  NRB1408     0.0483
     20  C15       55.0690    7.6780   60.5290 C.3   1408  NRB1408     0.0957
     21  N1        54.3040    6.5120   60.0840 N.3   1408  NRB1408    -0.2691
     22  C16       53.7500    6.6810   58.7470 C.3   1408  NRB1408     0.0897
     23  C17       53.2420    6.1790   61.0160 C.3   1408  NRB1408     0.0897
     24  C18       54.2820    8.9620   60.2800 C.3   1408  NRB1408     0.2224
     25  O6        53.0250    8.9850   60.9520 O.3   1408  NRB1408    -0.2163
     26  C19       55.1270   13.6290   59.8260 C.3   1408  NRB1408     0.0282
     27  C20       56.5820   13.7940   59.3660 C.3   1408  NRB1408     0.0025
     28  C21       54.1330   13.4850   58.6490 C.3   1408  NRB1408     0.0101
     29  C22       54.2290   14.5900   57.5730 C.3   1408  NRB1408     0.0620
     30  C23       53.1530   14.5080   56.4880 C.3   1408  NRB1408     0.0081
     31  C24       54.1400   15.9910   58.1210 C.2   1408  NRB1408     0.1724
     32  O7        55.0020   16.7770   57.8100 O.2   1408  NRB1408    -0.2914
     33  C25       53.0470   16.4320   59.0230 C.2   1408  NRB1408     0.0330
     34  C26       53.0910   17.6600   59.5420 C.2   1408  NRB1408    -0.0199
     35  C27       51.9970   18.1710   60.4670 C.3   1408  NRB1408     0.0622
     36  C28       50.7130   17.3610   60.2530 C.3   1408  NRB1408     0.0084
@<TRIPOS>BOND
     1    30    29    1
     2    29    31    1
     3    29    28    1
     4    32    31    2
     5    31    33    1
     6    18    17    1
     7    28    26    1
     8    22    21    1
     9    33    34    2
    10    27    26    1
    11    34    35    1
    12    19    17    1
    13    19    20    1
    14    17    16    1
    15    26    13    1
    16    16    15    1
    17    21    20    1
    18    21    23    1
    19    36    35    1
    20    24    20    1
    21    24    15    1
    22    24    25    1
    23    35     3    1
    24    14    15    1
    25    14    13    1
    26    13    11    1
    27     3     4    1
    28     3     2    1
    29    12    11    1
    30     4     5    1
    31    11     9    1
    32     1     2    1
    33    10     9    2
    34     9     7    1
    35     5     7    1
    36     5     6    2
    37     7     8    1
