@<TRIPOS>MOLECULE
2vzq_UNF_A_1.pdb
 24 25 0 0 0
SMALL
GASTEIGER

@<TRIPOS>ATOM
      1  C1        -2.8500    2.7460   54.3950 C.3   1128  UNF1128     0.2698
      2  C2        -1.6100    3.4720   53.8660 C.3   1128  UNF1128     0.2380
      3  C3        -1.7760    3.8500   52.3720 C.3   1128  UNF1128     0.1902
      4  C4        -2.1650    2.6420   51.5310 C.3   1128  UNF1128     0.0771
      5  C5        -2.6870    1.4800   52.3400 C.3   1128  UNF1128     0.2227
      6  C6        -3.0330    0.1700   51.6610 C.2   1128  UNF1128     0.3915
      7  O1        -3.9800    3.5800   54.0730 O.3   1128  UNF1128    -0.3252
      8  O2        -1.4080    4.6620   54.6140 O.3   1128  UNF1128    -0.2150
      9  O3        -0.5450    4.3550   51.8530 O.3   1128  UNF1128    -0.2201
     10  O5        -2.9030    1.4950   53.6960 O.3   1128  UNF1128    -0.3193
     11  O6        -2.9040    0.0280   50.4280 O.co2 1128  UNF1128    -0.2430
     12  C1'       -7.0190    5.5590   53.5500 C.3   1128  UNF1128     0.3028
     13  C2'       -6.4270    4.5870   52.5010 C.3   1128  UNF1128     0.2434
     14  C3'       -6.2570    3.1450   53.0890 C.3   1128  UNF1128     0.2173
     15  C4'       -5.3790    3.1610   54.3540 C.3   1128  UNF1128     0.1889
     16  C5'       -5.9460    4.2390   55.3240 C.3   1128  UNF1128     0.2498
     17  C6'       -5.0100    4.4440   56.5130 C.2   1128  UNF1128     0.3940
     18  O1'       -7.2330    6.8690   52.9600 O.3   1128  UNF1128    -0.1869
     19  O2'       -7.2370    4.6310   51.3350 O.3   1128  UNF1128    -0.2148
     20  O3'       -5.7080    2.2310   52.0930 O.3   1128  UNF1128    -0.2175
     21  O5'       -6.1190    5.5710   54.7100 O.3   1128  UNF1128    -0.3149
     22  O6'       -4.7190    3.4470   57.2260 O.co2 1128  UNF1128    -0.2429
     23  OAC       -4.5730    5.6100   56.6790 O.co2 1128  UNF1128    -0.2429
     24  OAN       -3.4180   -0.7300   52.4420 O.co2 1128  UNF1128    -0.2430
@<TRIPOS>BOND
     1    11     6   ar
     2    19    13    1
     3     4     5    1
     4     4     3    1
     5     6     5    1
     6     6    24   ar
     7     9     3    1
     8    20    14    1
     9     5    10    1
    10     3     2    1
    11    13    14    1
    12    13    12    1
    13    18    12    1
    14    14    15    1
    15    12    21    1
    16    10     1    1
    17     2     1    1
    18     2     8    1
    19     7    15    1
    20     7     1    1
    21    15    16    1
    22    21    16    1
    23    16    17    1
    24    17    23   ar
    25    17    22   ar
