@<TRIPOS>MOLECULE
2vzr_GCU_A_1.pdb
 13 13 0 0 0
SMALL
GASTEIGER

@<TRIPOS>ATOM
      1  C1        18.1230    7.6630   54.1910 C.3   1129  GCU1129     0.3028
      2  C2        18.9430    6.6720   53.3530 C.3   1129  GCU1129     0.2435
      3  C3        19.1000    7.1960   51.9290 C.3   1129  GCU1129     0.2204
      4  C4        17.7280    7.4440   51.3270 C.3   1129  GCU1129     0.2229
      5  C5        16.9280    8.4340   52.1910 C.3   1129  GCU1129     0.2530
      6  C6        15.5060    8.6150   51.6540 C.2   1129  GCU1129     0.3941
      7  O1        18.8820    8.8400   54.3660 O.3   1129  GCU1129    -0.1869
      8  O2        20.2170    6.4440   53.9160 O.3   1129  GCU1129    -0.2148
      9  O3        19.8240    6.2730   51.1420 O.3   1129  GCU1129    -0.2174
     10  O4        17.8760    7.8940   49.9960 O.3   1129  GCU1129    -0.2171
     11  O5        16.8800    7.9730   53.5480 O.3   1129  GCU1129    -0.3149
     12  O6A       15.3140    8.8920   50.4400 O.co2 1129  GCU1129    -0.2429
     13  O6B       14.5580    8.4550   52.4490 O.co2 1129  GCU1129    -0.2429
@<TRIPOS>BOND
     1    10     4    1
     2    12     6   ar
     3     9     3    1
     4     4     3    1
     5     4     5    1
     6     6     5    1
     7     6    13   ar
     8     3     2    1
     9     5    11    1
    10     2     8    1
    11     2     1    1
    12    11     1    1
    13     1     7    1
