@<TRIPOS>MOLECULE
2vzs_GCS_A_1.pdb
 12 12 0 0 0
SMALL
GASTEIGER

@<TRIPOS>ATOM
      1  C1        50.7570   40.5200   71.0470 C.3   1902  GCS1902     0.2893
      2  C2        50.1920   40.6630   72.4810 C.3   1902  GCS1902     0.1836
      3  C3        49.1330   41.7880   72.6070 C.3   1902  GCS1902     0.2071
      4  C4        49.6420   43.0220   71.8600 C.3   1902  GCS1902     0.2133
      5  C5        49.8900   42.6750   70.3630 C.3   1902  GCS1902     0.1835
      6  C6        50.3900   43.8630   69.5560 C.3   1902  GCS1902     0.2142
      7  N2        49.7500   39.3440   73.0080 N.3   1902  GCS1902    -0.1247
      8  O1        52.1090   40.1220   71.2450 O.3   1902  GCS1902    -0.1882
      9  O3        48.8740   42.1530   73.9880 O.3   1902  GCS1902    -0.2186
     10  O4        48.7460   44.1120   71.9890 O.3   1902  GCS1902    -0.2176
     11  O5        51.0150   41.7520   70.3920 O.3   1902  GCS1902    -0.3244
     12  O6        51.6750   44.2450   70.0660 O.3   1902  GCS1902    -0.2176
@<TRIPOS>BOND
     1     6    12    1
     2     6     5    1
     3     5    11    1
     4     5     4    1
     5    11     1    1
     6     1     8    1
     7     1     2    1
     8     4    10    1
     9     4     3    1
    10     2     3    1
    11     2     7    1
    12     3     9    1
