@<TRIPOS>MOLECULE
2vzt_PNJ_A_1.pdb
 21 22 0 0 0
SMALL
GASTEIGER

@<TRIPOS>ATOM
      1  C1        50.3620   40.4360   70.9250 C.3   1901  PNJ1901     0.3084
      2  C2        50.0070   40.6390   72.3890 C.3   1901  PNJ1901     0.1944
      3  C4        49.5250   43.0180   71.8790 C.3   1901  PNJ1901     0.2134
      4  C5        49.8040   42.6720   70.3900 C.3   1901  PNJ1901     0.1845
      5  C6        50.2260   43.8420   69.4950 C.3   1901  PNJ1901     0.2142
      6  C7        51.9720   39.1740   69.7810 C.ar  1901  PNJ1901     0.1415
      7  C8        53.1730   38.5010   69.7910 C.ar  1901  PNJ1901     0.0387
      8  C9        53.7990   38.1580   68.5980 C.ar  1901  PNJ1901     0.0272
      9  C10       53.2330   38.5090   67.3890 C.ar  1901  PNJ1901     0.1431
     10  C11       52.0050   39.1900   67.3570 C.ar  1901  PNJ1901     0.0272
     11  C12       51.3870   39.5220   68.5600 C.ar  1901  PNJ1901     0.0387
     12  N1        53.9030   38.1580   66.2760 N.pl3 1901  PNJ1901     0.0577
     13  O1        51.4230   39.5010   71.0030 O.3   1901  PNJ1901    -0.4512
     14  O3        48.7260   42.1300   73.9190 O.3   1901  PNJ1901    -0.2185
     15  O4        48.6050   44.0970   72.0370 O.3   1901  PNJ1901    -0.2176
     16  C3        48.9640   41.7690   72.5510 C.3   1901  PNJ1901     0.2083
     17  O5        50.8320   41.6400   70.3980 O.3   1901  PNJ1901    -0.3165
     18  O6        51.4650   44.3260   70.0040 O.3   1901  PNJ1901    -0.2176
     19  O7        53.4500   38.4440   64.9950 O.2   1901  PNJ1901    -0.1261
     20  N2        49.6260   39.3270   72.9410 N.3   1901  PNJ1901    -0.1234
     21  O8        55.0820   37.4720   66.4520 O.2   1901  PNJ1901    -0.1261
@<TRIPOS>BOND
     1    19    12    2
     2    12    21    2
     3    12     9    1
     4    10     9   ar
     5    10    11   ar
     6     9     8   ar
     7    11     6   ar
     8     8     7   ar
     9     5    18    1
    10     5     4    1
    11     6     7   ar
    12     6    13    1
    13     4    17    1
    14     4     3    1
    15    17     1    1
    16     1    13    1
    17     1     2    1
    18     3    15    1
    19     3    16    1
    20     2    16    1
    21     2    20    1
    22    16    14    1
