@<TRIPOS>MOLECULE
2vzu_PNJ_A_1.pdb
 21 22 0 0 0
SMALL
GASTEIGER

@<TRIPOS>ATOM
      1  C1        50.8360   40.6120   71.1240 C.3   1901  PNJ1901     0.3084
      2  C2        50.1500   40.7490   72.5110 C.3   1901  PNJ1901     0.1944
      3  C4        49.6810   43.1270   71.8800 C.3   1901  PNJ1901     0.2134
      4  C5        50.0720   42.7470   70.4240 C.3   1901  PNJ1901     0.1845
      5  C6        50.4800   43.9030   69.4720 C.3   1901  PNJ1901     0.2142
      6  C7        52.9340   39.6810   70.4590 C.ar  1901  PNJ1901     0.1415
      7  C8        54.2430   39.3030   70.8010 C.ar  1901  PNJ1901     0.0387
      8  C9        55.1340   38.9660   69.7810 C.ar  1901  PNJ1901     0.0272
      9  C10       54.7070   38.9950   68.4420 C.ar  1901  PNJ1901     0.1431
     10  C11       53.4160   39.3700   68.1230 C.ar  1901  PNJ1901     0.0272
     11  C12       52.5340   39.7050   69.1260 C.ar  1901  PNJ1901     0.0387
     12  N1        55.5440   38.6780   67.4300 N.pl3 1901  PNJ1901     0.0577
     13  O1        52.0760   40.0230   71.4470 O.3   1901  PNJ1901    -0.4512
     14  O3        48.7330   42.2100   73.8850 O.3   1901  PNJ1901    -0.2185
     15  O4        48.7530   44.1570   71.8800 O.3   1901  PNJ1901    -0.2176
     16  C3        49.0820   41.8750   72.5570 C.3   1901  PNJ1901     0.2083
     17  O5        51.1900   41.8760   70.5910 O.3   1901  PNJ1901    -0.3165
     18  O6        51.6900   44.4540   69.9580 O.3   1901  PNJ1901    -0.2176
     19  O7        55.0290   38.4060   66.1270 O.2   1901  PNJ1901    -0.1261
     20  N2        49.7110   39.4280   73.0070 N.3   1901  PNJ1901    -0.1234
     21  O8        56.9420   38.6770   67.6680 O.2   1901  PNJ1901    -0.1261
@<TRIPOS>BOND
     1    19    12    2
     2    12    21    2
     3    12     9    1
     4    10     9   ar
     5    10    11   ar
     6     9     8   ar
     7    11     6   ar
     8     5    18    1
     9     5     4    1
    10     8     7   ar
    11     4    17    1
    12     4     3    1
    13     6     7   ar
    14     6    13    1
    15    17     1    1
    16     1    13    1
    17     1     2    1
    18    15     3    1
    19     3    16    1
    20     2    16    1
    21     2    20    1
    22    16    14    1
