@<TRIPOS>MOLECULE
2vzv_GCS_A_1.pdb
 11 11 0 0 0
SMALL
GASTEIGER

@<TRIPOS>ATOM
      1  O3         7.4480   28.9870  -27.4280 O.3   1899  GCS1899    -0.2187
      2  O4         7.0250   27.0890  -25.4030 O.3   1899  GCS1899    -0.2176
      3  O5         9.3360   29.4130  -23.8170 O.3   1899  GCS1899    -0.3492
      4  O6        10.3380   27.1070  -23.4990 O.3   1899  GCS1899    -0.2176
      5  C1         9.0340   30.6580  -24.4100 C.3   1899  GCS1899     0.1638
      6  C2         8.6280   30.4630  -25.8710 C.3   1899  GCS1899     0.1542
      7  C3         7.6080   29.3300  -26.0480 C.3   1899  GCS1899     0.2045
      8  C4         8.0460   28.0790  -25.3000 C.3   1899  GCS1899     0.2131
      9  C5         8.3240   28.4320  -23.8330 C.3   1899  GCS1899     0.1809
     10  C6         8.9880   27.2940  -23.0530 C.3   1899  GCS1899     0.2141
     11  N2         8.0810   31.7290  -26.3720 N.3   1899  GCS1899    -0.1275
@<TRIPOS>BOND
     1     1     7    1
     2    11     6    1
     3     7     6    1
     4     7     8    1
     5     6     5    1
     6     2     8    1
     7     8     9    1
     8     5     3    1
     9     9     3    1
    10     9    10    1
    11     4    10    1
