@<TRIPOS>MOLECULE
2vzw_HEM_A_1.pdb
 43 50 0 0 0
SMALL
GASTEIGER

@<TRIPOS>ATOM
      1  CHA       -9.8340    9.2500   54.4100 C.2   1206  HEM1206     0.0000
      2  CHB      -13.1590   11.6540   57.1710 C.2   1206  HEM1206     0.0000
      3  CHC      -12.4730    8.2960   60.5330 C.2   1206  HEM1206     0.0000
      4  CHD       -8.1590    7.1810   58.5060 C.2   1206  HEM1206     0.0000
      5  NA       -11.4100   10.2170   56.0520 N.ar  1206  HEM1206     0.0000
      6  C1A      -10.8620   10.1200   54.7750 C.ar  1206  HEM1206     0.0000
      7  C2A      -11.4830   11.1780   53.9940 C.ar  1206  HEM1206     0.0000
      8  C3A      -12.3620   11.8150   54.7650 C.ar  1206  HEM1206     0.0000
      9  C4A      -12.3600   11.2300   56.0880 C.ar  1206  HEM1206     0.0000
     10  CMA      -13.3020   12.9650   54.3170 C.3   1206  HEM1206     0.0000
     11  CAA      -11.3120   11.5850   52.5190 C.3   1206  HEM1206     0.0000
     12  CBA       -9.9010   11.5240   51.9910 C.3   1206  HEM1206     0.0000
     13  CGA       -9.8510   12.2310   50.6590 C.2   1206  HEM1206     0.0000
     14  O1A       -9.0260   13.2070   50.6130 O.co2 1206  HEM1206     0.0000
     15  O2A      -10.5840   11.8190   49.6870 O.co2 1206  HEM1206     0.0000
     16  NB       -12.5990    9.8710   58.7120 N.2   1206  HEM1206     0.0000
     17  C1B      -13.3720   10.9490   58.3380 C.2   1206  HEM1206     0.0000
     18  C2B      -14.3980   11.1220   59.3120 C.2   1206  HEM1206     0.0000
     19  C3B      -14.2410   10.1420   60.2330 C.2   1206  HEM1206     0.0000
     20  C4B      -13.0630    9.3720   59.8870 C.2   1206  HEM1206     0.0000
     21  CMB      -15.4550   12.2610   59.2760 C.3   1206  HEM1206     0.0000
     22  CAB      -15.1050    9.9440   61.5210 C.2   1206  HEM1206     0.0000
     23  CBB      -15.1870    8.7880   62.2260 C.2   1206  HEM1206     0.0000
     24  NC       -10.4240    7.9630   59.2230 N.ar  1206  HEM1206     0.0000
     25  C1C      -11.1940    7.7940   60.3570 C.ar  1206  HEM1206     0.0000
     26  C2C      -10.4180    6.9450   61.2550 C.ar  1206  HEM1206     0.0000
     27  C3C       -9.2230    6.6520   60.6450 C.ar  1206  HEM1206     0.0000
     28  C4C       -9.2040    7.3190   59.3990 C.ar  1206  HEM1206     0.0000
     29  CMC      -10.9090    6.4520   62.6290 C.3   1206  HEM1206     0.0000
     30  CAC       -7.9840    5.7920   60.9950 C.2   1206  HEM1206     0.0000
     31  CBC       -7.6310    5.3890   62.2040 C.2   1206  HEM1206     0.0000
     32  ND        -9.2530    8.2850   56.6170 N.2   1206  HEM1206     0.0000
     33  C1D       -8.2100    7.5630   57.1800 C.2   1206  HEM1206     0.0000
     34  C2D       -7.1760    7.2930   56.2130 C.2   1206  HEM1206     0.0000
     35  C3D       -7.6750    7.9350   54.9540 C.2   1206  HEM1206     0.0000
     36  C4D       -8.9670    8.5670   55.2740 C.2   1206  HEM1206     0.0000
     37  CMD       -5.8260    6.5390   56.4030 C.3   1206  HEM1206     0.0000
     38  CAD       -6.8420    7.9320   53.6750 C.3   1206  HEM1206     0.0000
     39  CBD       -6.4660    9.3770   53.4520 C.3   1206  HEM1206     0.0000
     40  CGD       -5.3710   10.0250   54.3070 C.2   1206  HEM1206     0.0000
     41  O1D       -4.3730    9.4050   54.6980 O.co2 1206  HEM1206     0.0000
     42  O2D       -5.4980   11.2490   54.5810 O.co2 1206  HEM1206     0.0000
     43 FE        -10.9420    8.9890   57.6010 Fe    1206  HEM1206     0.0000
@<TRIPOS>BOND
     1    15    13   ar
     2    14    13   ar
     3    13    12    1
     4    12    11    1
     5    11     7    1
     6    39    38    1
     7    39    40    1
     8    38    35    1
     9     7     8   ar
    10     7     6   ar
    11    40    42   ar
    12    40    41   ar
    13    10     8    1
    14     1     6    2
    15     1    36    1
    16     8     9   ar
    17     6     5   ar
    18    35    36    1
    19    35    34    2
    20    36    32    2
    21     5     9   ar
    22     5    43    1
    23     9     2    2
    24    34    37    1
    25    34    33    1
    26    32    33    1
    27    32    43    1
    28     2    17    1
    29    33     4    2
    30    43    16    1
    31    43    24    1
    32    17    16    2
    33    17    18    1
    34     4    28    1
    35    16    20    1
    36    24    28   ar
    37    24    25   ar
    38    21    18    1
    39    18    19    2
    40    28    27   ar
    41    20    19    1
    42    20     3    2
    43    19    22    1
    44    25     3    1
    45    25    26   ar
    46    27    30    1
    47    27    26   ar
    48    30    31    2
    49    26    29    1
    50    22    23    2
