@<TRIPOS>MOLECULE
2w00_ATP_A_1.pdb
 31 33 0 0 0
SMALL
GASTEIGER

@<TRIPOS>ATOM
      1  PG        60.7990   30.4460   28.4130 P.3   1886  ATP1886     0.5373
      2  O1G       61.6860   31.4740   27.7780 O.3   1886  ATP1886    -0.1143
      3  O2G       61.3180   29.8960   29.7130 O.3   1886  ATP1886    -0.1143
      4  O3G       60.2530   29.3830   27.4840 O.2   1886  ATP1886    -0.2221
      5  PB        58.4550   32.0290   27.9000 P.3   1886  ATP1886     0.2277
      6  O1B       58.0150   30.8870   26.9640 O.2   1886  ATP1886    -0.5168
      7  O2B       58.9970   33.3150   27.3430 O.3   1886  ATP1886    -0.4368
      8  O3B       59.5790   31.4370   28.9080 O.3   1886  ATP1886    -0.2258
      9  PA        55.8840   31.5030   29.1480 P.3   1886  ATP1886     0.2189
     10  O1A       56.3300   30.2090   29.7590 O.3   1886  ATP1886    -0.4371
     11  O2A       55.0170   31.5060   27.8980 O.2   1886  ATP1886    -0.5170
     12  O3A       57.2190   32.4090   28.8740 O.3   1886  ATP1886    -0.2700
     13  O5'       55.1600   32.3460   30.3190 O.3   1886  ATP1886    -0.3112
     14  C5'       55.8760   32.6420   31.5290 C.3   1886  ATP1886     0.1813
     15  C4'       54.9080   32.7990   32.6890 C.3   1886  ATP1886     0.1821
     16  O4'       54.3430   34.1240   32.6760 O.3   1886  ATP1886    -0.3135
     17  C3'       53.7560   31.8160   32.5320 C.3   1886  ATP1886     0.2184
     18  O3'       53.3200   31.3760   33.8300 O.3   1886  ATP1886    -0.2174
     19  C2'       52.6910   32.6750   31.8960 C.3   1886  ATP1886     0.2570
     20  O2'       51.3650   32.1730   32.1090 O.3   1886  ATP1886    -0.2130
     21  C1'       52.9260   34.0180   32.5580 C.3   1886  ATP1886     0.3186
     22  N9        52.4690   35.0180   31.6060 N.pl3 1886  ATP1886    -0.1439
     23  C8        53.0590   35.2650   30.4210 C.3   1886  ATP1886     0.3377
     24  N7        52.3790   36.2400   29.7720 N.2   1886  ATP1886    -0.2095
     25  C5        51.3320   36.6130   30.5480 C.2   1886  ATP1886     0.2526
     26  C6        50.2250   37.5830   30.4570 C.2   1886  ATP1886     0.4393
     27  N6        50.0730   38.4000   29.3760 N.pl3 1886  ATP1886     0.2180
     28  N1        49.3620   37.6170   31.4860 N.2   1886  ATP1886     0.0021
     29  C2        49.4830   36.8410   32.5700 C.3   1886  ATP1886     0.5254
     30  N3        50.4500   35.9560   32.7120 N.2   1886  ATP1886    -0.0055
     31  C4        51.3920   35.7950   31.7570 C.2   1886  ATP1886     0.3518
@<TRIPOS>BOND
     1     6     5    2
     2     7     5    1
     3     4     1    2
     4     2     1    1
     5    11     9    2
     6     5    12    1
     7     5     8    1
     8     1     8    1
     9     1     3    1
    10    12     9    1
    11     9    10    1
    12     9    13    1
    13    27    26    1
    14    24    23    1
    15    24    25    2
    16    13    14    1
    17    23    22    1
    18    26    25    1
    19    26    28    2
    20    25    31    1
    21    28    29    1
    22    14    15    1
    23    22    31    1
    24    22    21    1
    25    31    30    2
    26    19    20    1
    27    19    17    1
    28    19    21    1
    29    17    15    1
    30    17    18    1
    31    21    16    1
    32    29    30    1
    33    16    15    1
