@<TRIPOS>MOLECULE
2w02_ATP_A_1.pdb
 31 33 0 0 0
SMALL
GASTEIGER

@<TRIPOS>ATOM
      1  PG       -24.4260   51.1080  -36.5130 P.3   1588  ATP1588     0.5373
      2  O1G      -24.9830   51.6550  -35.2300 O.3   1588  ATP1588    -0.1143
      3  O2G      -24.8740   51.8230  -37.7710 O.2   1588  ATP1588    -0.2221
      4  O3G      -24.5320   49.6120  -36.6600 O.3   1588  ATP1588    -0.1143
      5  PB       -21.7950   50.9320  -37.5190 P.3   1588  ATP1588     0.2277
      6  O1B      -22.3740   51.1260  -38.8850 O.2   1588  ATP1588    -0.5168
      7  O2B      -20.4350   51.5060  -37.2190 O.3   1588  ATP1588    -0.4368
      8  O3B      -22.8500   51.3970  -36.3930 O.3   1588  ATP1588    -0.2258
      9  PA       -20.9810   48.3970  -38.3270 P.3   1588  ATP1588     0.2189
     10  O1A      -22.0660   47.6260  -39.0270 O.3   1588  ATP1588    -0.4371
     11  O2A      -19.9920   49.2080  -39.1260 O.2   1588  ATP1588    -0.5170
     12  O3A      -21.6840   49.3650  -37.2550 O.3   1588  ATP1588    -0.2700
     13  O5'      -20.1440   47.4210  -37.3680 O.3   1588  ATP1588    -0.3112
     14  C5'      -20.8360   46.5660  -36.4750 C.3   1588  ATP1588     0.1813
     15  C4'      -20.0970   46.5040  -35.1470 C.3   1588  ATP1588     0.1821
     16  O4'      -20.6860   45.4570  -34.3820 O.3   1588  ATP1588    -0.3135
     17  C3'      -18.6400   46.1330  -35.3600 C.3   1588  ATP1588     0.2184
     18  O3'      -17.8130   46.7680  -34.3930 O.3   1588  ATP1588    -0.2174
     19  C2'      -18.6090   44.6450  -35.1310 C.3   1588  ATP1588     0.2570
     20  O2'      -17.3080   44.1940  -34.7320 O.3   1588  ATP1588    -0.2130
     21  C1'      -19.7240   44.4460  -34.1050 C.3   1588  ATP1588     0.3186
     22  N9       -20.3460   43.1000  -34.1890 N.pl3 1588  ATP1588    -0.1439
     23  C8       -20.6880   42.3580  -33.1190 C.3   1588  ATP1588     0.3377
     24  N7       -21.2160   41.1670  -33.4890 N.2   1588  ATP1588    -0.2095
     25  C5       -21.2140   41.1350  -34.8290 C.2   1588  ATP1588     0.2526
     26  C6       -21.6340   40.1670  -35.8570 C.2   1588  ATP1588     0.4393
     27  N6       -22.1660   38.9770  -35.5040 N.pl3 1588  ATP1588     0.2180
     28  N1       -21.4640   40.5190  -37.1530 N.2   1588  ATP1588     0.0021
     29  C2       -20.9300   41.7040  -37.5230 C.3   1588  ATP1588     0.5254
     30  N3       -20.5210   42.6310  -36.6320 N.2   1588  ATP1588    -0.0055
     31  C4       -20.6400   42.4090  -35.2950 C.2   1588  ATP1588     0.3518
@<TRIPOS>BOND
     1    11     9    2
     2    10     9    1
     3     6     5    2
     4     9    13    1
     5     9    12    1
     6     3     1    2
     7    29    28    1
     8    29    30    1
     9     5    12    1
    10     5     7    1
    11     5     8    1
    12    13    14    1
    13    28    26    2
    14     4     1    1
    15    30    31    2
    16     1     8    1
    17     1     2    1
    18    14    15    1
    19    26    27    1
    20    26    25    1
    21    17    15    1
    22    17    19    1
    23    17    18    1
    24    31    25    1
    25    31    22    1
    26    15    16    1
    27    19    20    1
    28    19    21    1
    29    25    24    2
    30    16    21    1
    31    22    21    1
    32    22    23    1
    33    24    23    1
