@<TRIPOS>MOLECULE
2w03_CIT_B_1.pdb
 13 12 0 0 0
SMALL
GASTEIGER

@<TRIPOS>ATOM
      1  C1       -10.6620   13.8050  -12.0810 C.2   1590  CIT1590     0.3680
      2  O1       -11.5070   14.5000  -11.4610 O.co2 1590  CIT1590    -0.2455
      3  O2       -10.2380   14.2410  -13.1830 O.co2 1590  CIT1590    -0.2455
      4  C2       -10.1850   12.4460  -11.5590 C.3   1590  CIT1590     0.1560
      5  C3        -9.5140   12.3940  -10.1760 C.3   1590  CIT1590     0.2402
      6  O7        -9.1900   10.9980   -9.8660 O.3   1590  CIT1590    -0.2129
      7  C4       -10.3400   13.0980   -9.0700 C.3   1590  CIT1590     0.1560
      8  C5       -11.0440   12.2070   -8.0550 C.2   1590  CIT1590     0.3680
      9  O3       -11.9700   11.4330   -8.3700 O.co2 1590  CIT1590    -0.2455
     10  O4       -10.7170   12.2480   -6.8560 O.co2 1590  CIT1590    -0.2455
     11  C6        -8.1790   13.0950  -10.2670 C.2   1590  CIT1590     0.3927
     12  O5        -7.9420   13.8820  -11.2000 O.co2 1590  CIT1590    -0.2429
     13  O6        -7.3040   12.8840   -9.4010 O.co2 1590  CIT1590    -0.2429
@<TRIPOS>BOND
     1     3     1   ar
     2     1     4    1
     3     1     2   ar
     4     4     5    1
     5    12    11   ar
     6    11     5    1
     7    11    13   ar
     8     5     6    1
     9     5     7    1
    10     7     8    1
    11     9     8   ar
    12     8    10   ar
