@<TRIPOS>MOLECULE
2w03_ADN_A_1.pdb
 19 21 0 0 0
SMALL
GASTEIGER

@<TRIPOS>ATOM
      1  O5'        4.8050   34.8420   53.1700 O.3   1588  ADN1588    -0.2176
      2  C5'        5.0350   33.6680   52.3300 C.3   1588  ADN1588     0.2143
      3  C4'        3.7220   32.7990   52.3330 C.3   1588  ADN1588     0.1851
      4  O4'        2.8770   33.1660   51.1860 O.3   1588  ADN1588    -0.3134
      5  C3'        4.0400   31.2900   52.1870 C.3   1588  ADN1588     0.2186
      6  O3'        3.1270   30.4620   52.9730 O.3   1588  ADN1588    -0.2174
      7  C2'        3.9270   31.0790   50.6730 C.3   1588  ADN1588     0.2570
      8  O2'        3.6790   29.6880   50.3650 O.3   1588  ADN1588    -0.2130
      9  C1'        2.7710   32.0430   50.2780 C.3   1588  ADN1588     0.3186
     10  N9         2.9260   32.5750   48.8620 N.pl3 1588  ADN1588    -0.1439
     11  C8         2.1400   32.2400   47.8370 C.3   1588  ADN1588     0.3377
     12  N7         2.5530   32.8510   46.7270 N.2   1588  ADN1588    -0.2095
     13  C5         3.6130   33.5890   47.0350 C.2   1588  ADN1588     0.2526
     14  C6         4.4370   34.4340   46.2890 C.2   1588  ADN1588     0.4393
     15  N6         4.2110   34.6130   44.9800 N.pl3 1588  ADN1588     0.2180
     16  N1         5.4580   35.0630   46.9110 N.2   1588  ADN1588     0.0021
     17  C2         5.6740   34.8750   48.2120 C.3   1588  ADN1588     0.5254
     18  N3         4.9030   34.0760   48.9470 N.2   1588  ADN1588    -0.0055
     19  C4         3.8590   33.4200   48.3910 C.2   1588  ADN1588     0.3518
@<TRIPOS>BOND
     1    15    14    1
     2    14    16    2
     3    14    13    1
     4    12    13    2
     5    12    11    1
     6    16    17    1
     7    13    19    1
     8    11    10    1
     9    17    18    1
    10    19    10    1
    11    19    18    2
    12    10     9    1
    13     9     7    1
    14     9     4    1
    15     8     7    1
    16     7     5    1
    17     4     3    1
    18     5     3    1
    19     5     6    1
    20     2     3    1
    21     2     1    1
