@<TRIPOS>MOLECULE
2w04_FLC_B_1.pdb
 13 12 0 0 0
SMALL
GASTEIGER

@<TRIPOS>ATOM
      1  CAC      -23.7790  -15.7970   -1.8010 C.2   1588  FLC1588     0.3680
      2  CA       -22.6270  -14.7810   -1.6350 C.3   1588  FLC1588     0.1560
      3  CB       -21.2170  -15.1640   -1.1540 C.3   1588  FLC1588     0.2402
      4  CBC      -20.6350  -16.1950   -2.0300 C.2   1588  FLC1588     0.3927
      5  CG       -20.3480  -13.9170   -1.2330 C.3   1588  FLC1588     0.1560
      6  CGC      -19.9360  -13.4200    0.1440 C.2   1588  FLC1588     0.3680
      7  OA1      -23.5690  -16.9950   -2.0570 O.co2 1588  FLC1588    -0.2455
      8  OA2      -24.9090  -15.2750   -1.6940 O.co2 1588  FLC1588    -0.2455
      9  OB1      -19.7490  -15.8590   -2.8380 O.co2 1588  FLC1588    -0.2429
     10  OB2      -21.0840  -17.3300   -1.8470 O.co2 1588  FLC1588    -0.2429
     11  OG1      -18.7370  -13.1180    0.2750 O.co2 1588  FLC1588    -0.2455
     12  OG2      -20.8270  -13.3340    1.0170 O.co2 1588  FLC1588    -0.2455
     13  OHB      -21.1530  -15.7330    0.1570 O.3   1588  FLC1588    -0.2129
@<TRIPOS>BOND
     1     9     4   ar
     2     7     1   ar
     3     4    10   ar
     4     4     3    1
     5     1     8   ar
     6     1     2    1
     7     2     3    1
     8     5     3    1
     9     5     6    1
    10     3    13    1
    11     6    11   ar
    12     6    12   ar
