@<TRIPOS>MOLECULE
2w05_FRT_A_1.pdb
 30 32 0 0 0
SMALL
GASTEIGER

@<TRIPOS>ATOM
      1  C1        -0.6120   29.7420    8.1750 C.2   1299  FRT1299     0.1629
      2  N2         0.3870   29.0570    7.5420 N.2   1299  FRT1299    -0.3346
      3  C3         1.2800   29.7190    6.7870 C.1   1299  FRT1299     0.1697
      4  N4         1.2800   31.0390    6.5910 N.2   1299  FRT1299    -0.1683
      5  C5         0.3220   31.7720    7.1860 C.2   1299  FRT1299     0.1145
      6  C6        -0.6740   31.1800    8.0040 C.2   1299  FRT1299     0.0561
      7  N7         2.2870   28.8850    6.1710 N.pl3 1299  FRT1299    -0.1358
      8  C8         3.0700   27.7270    6.5550 C.ar  1299  FRT1299     0.0827
      9  C9         2.9200   27.0490    7.8080 C.ar  1299  FRT1299     0.0187
     10  C10        3.7200   25.9270    8.1180 C.ar  1299  FRT1299     0.0213
     11  C11        4.6730   25.4830    7.1750 C.ar  1299  FRT1299     0.1236
     12  C12        4.8470   26.1280    5.9280 C.ar  1299  FRT1299     0.0213
     13  C13        4.0420   27.2530    5.6210 C.ar  1299  FRT1299     0.0187
     14  S14        5.6590   24.1120    7.5580 S.O2  1299  FRT1299     0.0769
     15  N15        4.7450   23.0880    8.6240 N.3   1299  FRT1299    -0.0751
     16  C16        4.2800   21.8560    7.9530 C.3   1299  FRT1299     0.1474
     17  C17        3.4970   20.9690    8.9230 C.3   1299  FRT1299     0.1630
     18  O18        3.0660   19.7760    8.2400 O.3   1299  FRT1299    -0.3495
     19  C19        2.3130   18.8540    9.0630 C.3   1299  FRT1299     0.1742
     20  C20       -1.5680   29.0270    8.9950 C.ar  1299  FRT1299     0.1110
     21  N21       -1.3470   27.8240    9.7550 N.ar  1299  FRT1299    -0.3147
     22  C22       -2.6540   27.6920   10.3070 C.ar  1299  FRT1299     0.1208
     23  N23       -3.6280   28.6070   10.0110 N.ar  1299  FRT1299    -0.2293
     24  C24       -2.9270   29.4440    9.1830 C.ar  1299  FRT1299     0.1199
     25  C25       -0.0740   26.9880    9.9180 C.3   1299  FRT1299     0.0868
     26  C26        0.4320   26.9880   11.3740 C.3   1299  FRT1299     0.0245
     27  C27       -0.2660   25.5370    9.4020 C.3   1299  FRT1299     0.0245
     28  C28       -3.1040   26.5640   11.2600 C.3   1299  FRT1299     0.0718
     29  O29        6.0130   23.3090    6.2270 O.2   1299  FRT1299    -0.1516
     30  O30        6.9850   24.5790    8.3040 O.2   1299  FRT1299    -0.1516
@<TRIPOS>BOND
     1    13    12   ar
     2    13     8   ar
     3    12    11   ar
     4     7     8    1
     5     7     3    1
     6    29    14    2
     7     8     9   ar
     8     4     3    2
     9     4     5    1
    10     3     2    2
    11    11    14    1
    12    11    10   ar
    13     5     6    2
    14     2     1    2
    15    14    30    2
    16    14    15    1
    17     9    10   ar
    18    16    15    1
    19    16    17    1
    20     6     1    1
    21     1    20    1
    22    18    17    1
    23    18    19    1
    24    20    24   ar
    25    20    21   ar
    26    24    23   ar
    27    27    25    1
    28    21    25    1
    29    21    22   ar
    30    25    26    1
    31    23    22   ar
    32    22    28    1
