@<TRIPOS>MOLECULE
2w06_FRV_A_1.pdb
 27 30 0 0 0
SMALL
GASTEIGER

@<TRIPOS>ATOM
      1  C13        4.8570   29.1990    6.0270 C.ar  1300  FRV1300     0.0187
      2  N21       -1.4650   29.7980   10.6100 N.ar  1300  FRV1300    -0.3147
      3  C25       -2.6740   30.6740   10.7880 C.3   1300  FRV1300     0.0868
      4  C22       -1.3900   28.5640   11.2680 C.ar  1300  FRV1300     0.1208
      5  C28       -2.4390   27.9550   12.1840 C.3   1300  FRV1300     0.0718
      6  C26       -3.3230   31.2010    9.5000 C.3   1300  FRV1300     0.0245
      7  C6        -0.0590   32.2630    8.9010 C.2   1300  FRV1300     0.0561
      8  C1         0.3340   30.9190    9.0050 C.2   1300  FRV1300     0.1629
      9  C20       -0.2630   29.9100    9.9010 C.ar  1300  FRV1300     0.1110
     10  C24        0.4340   28.7370   10.1680 C.ar  1300  FRV1300     0.1199
     11  C5         0.6460   33.1060    8.0000 C.2   1300  FRV1300     0.1145
     12  C8         3.8290   29.5840    6.9050 C.ar  1300  FRV1300     0.0827
     13  C3         2.0660   31.3000    7.3620 C.1   1300  FRV1300     0.1697
     14  N2         1.3780   30.5030    8.2340 N.2   1300  FRV1300    -0.3346
     15  C16        4.5840   23.8680    7.7490 C.3   1300  FRV1300     0.1362
     16  C9         3.5800   28.7730    8.0690 C.ar  1300  FRV1300     0.0187
     17  C10        4.3620   27.6270    8.3170 C.ar  1300  FRV1300     0.0213
     18  C11        5.4010   27.2700    7.4120 C.ar  1300  FRV1300     0.1236
     19  O30        6.8320   25.3280    6.4470 O.2   1300  FRV1300    -0.1516
     20  S14        6.3720   25.8750    7.7030 S.O2  1300  FRV1300     0.0769
     21  O29        7.5070   26.2770    8.5100 O.2   1300  FRV1300    -0.1516
     22  N15        5.4520   24.6480    8.5960 N.3   1300  FRV1300    -0.0762
     23  C12        5.6390   28.0530    6.2750 C.ar  1300  FRV1300     0.0213
     24  N7         3.0800   30.7470    6.6460 N.pl3 1300  FRV1300    -0.1358
     25  N4         1.6730   32.5920    7.2770 N.2   1300  FRV1300    -0.1683
     26  N23       -0.2780   27.9560   10.9970 N.ar  1300  FRV1300    -0.2293
     27  C30       -2.9320   32.1450   10.6420 C.3   1300  FRV1300     0.0245
@<TRIPOS>BOND
     1     1    23   ar
     2     1    12   ar
     3    23    18   ar
     4    19    20    2
     5    24    12    1
     6    24    13    1
     7    12    16   ar
     8    25    13    2
     9    25    11    1
    10    13    14    2
    11    18    20    1
    12    18    17   ar
    13    20    21    2
    14    20    22    1
    15    15    22    1
    16    11     7    2
    17    16    17   ar
    18    14     8    2
    19     7     8    1
    20     8     9    1
    21     6    27    1
    22     6     3    1
    23     9    10   ar
    24     9     2   ar
    25    10    26   ar
    26     2     3    1
    27     2     4   ar
    28    27     3    1
    29    26     4   ar
    30     4     5    1
