@<TRIPOS>MOLECULE
2w08_TPO_A_1.pdb
 12 11 0 0 0
SMALL
GASTEIGER

@<TRIPOS>ATOM
      1  N         20.2600   15.2810   54.5620 N.3   500  TPO500     -0.1182
      2  CA        18.8860   15.3250   54.0400 C.3   500  TPO500      0.2217
      3  CB        17.8960   15.1610   55.1950 C.3   500  TPO500      0.1548
      4  CG2       17.9310   13.7350   55.7490 C.3   500  TPO500      0.0348
      5  OG1       18.1930   16.1160   56.2180 O.3   500  TPO500     -0.2707
      6  P         17.0290   16.6210   57.2100 P.3   500  TPO500      0.5326
      7  O1P       16.9190   15.5260   58.3970 O.3   500  TPO500     -0.1145
      8  O2P       15.7240   16.8440   56.5380 O.2   500  TPO500     -0.2224
      9  O3P       17.5780   17.9650   57.9260 O.3   500  TPO500     -0.1145
     10  C         18.6450   16.6680   53.3480 C.2   500  TPO500      0.3843
     11  O         19.4490   17.5910   53.6040 O.co2 500  TPO500     -0.2440
     12  OXT       17.6880   16.7500   52.5890 O.co2 500  TPO500     -0.2440
@<TRIPOS>BOND
     1    12    10   ar
     2    10    11   ar
     3    10     2    1
     4     2     1    1
     5     2     3    1
     6     3     4    1
     7     3     5    1
     8     5     6    1
     9     8     6    2
    10     6     9    1
    11     6     7    1
