@<TRIPOS>MOLECULE
2w09_HEM_A_1.pdb
 43 50 0 0 0
SMALL
GASTEIGER

@<TRIPOS>ATOM
      1 FE        -17.2860   -6.8500   63.7520 Fe    470  HEM470      0.0000
      2  CHA      -18.7520   -8.5300   66.4070 C.2   470  HEM470      0.0000
      3  CHB      -14.2040   -7.9350   64.7700 C.2   470  HEM470      0.0000
      4  CHC      -15.9120   -5.5970   60.8570 C.2   470  HEM470      0.0000
      5  CHD      -20.1730   -5.2350   63.0640 C.2   470  HEM470      0.0000
      6  NA       -16.6190   -8.0200   65.2650 N.2   470  HEM470      0.0000
      7  C1A      -17.3830   -8.5670   66.2710 C.2   470  HEM470      0.0000
      8  C2A      -16.4960   -9.2040   67.2280 C.2   470  HEM470      0.0000
      9  C3A      -15.2210   -9.0390   66.8130 C.2   470  HEM470      0.0000
     10  C4A      -15.2820   -8.3040   65.5410 C.2   470  HEM470      0.0000
     11  CMA      -13.9180   -9.5400   67.4680 C.3   470  HEM470      0.0000
     12  CAA      -17.0200   -9.8850   68.5160 C.3   470  HEM470      0.0000
     13  CBA      -17.1820   -8.7770   69.5550 C.3   470  HEM470      0.0000
     14  CGA      -17.4400   -9.2680   70.9660 C.2   470  HEM470      0.0000
     15  O1A      -17.6070  -10.4950   71.1840 O.co2 470  HEM470      0.0000
     16  O2A      -17.4530   -8.3990   71.8840 O.co2 470  HEM470      0.0000
     17  NB       -15.4050   -6.7280   62.9850 N.ar  470  HEM470      0.0000
     18  C1B      -14.2820   -7.3380   63.5340 C.ar  470  HEM470      0.0000
     19  C2B      -13.1630   -7.1710   62.6190 C.ar  470  HEM470      0.0000
     20  C3B      -13.6690   -6.5300   61.5250 C.ar  470  HEM470      0.0000
     21  C4B      -15.0670   -6.2430   61.7490 C.ar  470  HEM470      0.0000
     22  CMB      -11.7180   -7.6720   62.8010 C.3   470  HEM470      0.0000
     23  CAB      -12.9470   -6.1220   60.2450 C.2   470  HEM470      0.0000
     24  CBB      -11.8770   -6.7710   59.7630 C.2   470  HEM470      0.0000
     25  NC       -17.8770   -5.6270   62.2650 N.2   470  HEM470      0.0000
     26  C1C      -17.2110   -5.3130   61.1110 C.2   470  HEM470      0.0000
     27  C2C      -18.1170   -4.5720   60.2360 C.2   470  HEM470      0.0000
     28  C3C      -19.3000   -4.4820   60.8390 C.2   470  HEM470      0.0000
     29  C4C      -19.1700   -5.1260   62.1310 C.2   470  HEM470      0.0000
     30  CMC      -17.7240   -4.0860   58.8480 C.3   470  HEM470      0.0000
     31  CAC      -20.6140   -3.8070   60.3590 C.2   470  HEM470      0.0000
     32  CBC      -20.7910   -3.5180   59.0600 C.2   470  HEM470      0.0000
     33  ND       -19.2030   -6.9080   64.6080 N.ar  470  HEM470      0.0000
     34  C1D      -20.2360   -6.0960   64.1220 C.ar  470  HEM470      0.0000
     35  C2D      -21.3930   -6.3140   64.9580 C.ar  470  HEM470      0.0000
     36  C3D      -20.9570   -7.3500   65.9910 C.ar  470  HEM470      0.0000
     37  C4D      -19.5730   -7.6790   65.6880 C.ar  470  HEM470      0.0000
     38  CMD      -22.8020   -5.6840   64.8540 C.3   470  HEM470      0.0000
     39  CAD      -21.8430   -7.9020   67.1180 C.3   470  HEM470      0.0000
     40  CBD      -22.5150   -9.1700   66.6460 C.3   470  HEM470      0.0000
     41  CGD      -23.5300   -9.5350   67.7060 C.2   470  HEM470      0.0000
     42  O1D      -23.5140   -8.8990   68.8110 O.co2 470  HEM470      0.0000
     43  O2D      -24.3550  -10.4580   67.4380 O.co2 470  HEM470      0.0000
@<TRIPOS>BOND
     1    30    27    1
     2    32    31    2
     3    24    23    2
     4    27    28    2
     5    27    26    1
     6    23    20    1
     7    31    28    1
     8    28    29    1
     9     4    26    2
    10     4    21    1
    11    26    25    1
    12    20    21   ar
    13    20    19   ar
    14    21    17   ar
    15    29    25    2
    16    29     5    1
    17    25     1    1
    18    19    22    1
    19    19    18   ar
    20    17    18   ar
    21    17     1    1
    22     5    34    2
    23    18     3    1
    24     1    33    1
    25     1     6    1
    26    34    33   ar
    27    34    35   ar
    28    33    37   ar
    29     3    10    2
    30    38    35    1
    31    35    36   ar
    32     6    10    1
    33     6     7    2
    34    10     9    1
    35    37    36   ar
    36    37     2    2
    37    36    39    1
    38     7     2    1
    39     7     8    1
    40    40    39    1
    41    40    41    1
    42     9     8    2
    43     9    11    1
    44     8    12    1
    45    43    41   ar
    46    41    42   ar
    47    12    13    1
    48    13    14    1
    49    14    15   ar
    50    14    16   ar
