@<TRIPOS>MOLECULE
2w09_CM9_A_1.pdb
 24 25 0 0 0
SMALL
GASTEIGER

@<TRIPOS>ATOM
      1  O1       -18.3850    0.3360   68.8500 O.2   1451  CM91451    -0.2733
      2  C8       -18.1670   -0.4470   69.7440 C.2   1451  CM91451     0.2413
      3  C9       -19.3930   -1.0120   70.4180 C.3   1451  CM91451     0.0782
      4  C10      -19.9850   -0.1870   71.5500 C.3   1451  CM91451     0.0091
      5  C11      -21.1750   -0.9100   72.1830 C.3   1451  CM91451     0.0005
      6  C12      -21.6820   -2.1080   71.3810 C.3   1451  CM91451     0.0000
      7  C13      -22.8040   -2.8020   72.1430 C.3   1451  CM91451     0.0000
      8  C14      -20.5640   -3.1110   71.0800 C.3   1451  CM91451     0.0005
      9  C15      -19.2030   -2.4600   70.8460 C.3   1451  CM91451     0.0091
     10  N3       -16.9130   -0.8220   70.0600 N.am  1451  CM91451    -0.1977
     11  C7       -15.7970   -0.2620   69.2780 C.3   1451  CM91451     0.1739
     12  C16      -14.4890   -0.3220   70.0680 C.3   1451  CM91451     0.0427
     13  C17      -14.3990    0.8890   71.0000 C.3   1451  CM91451     0.0599
     14  S        -12.8370    1.0090   71.8330 S.3   1451  CM91451    -0.1393
     15  C18      -13.0510   -0.1820   73.1180 C.3   1451  CM91451     0.0692
     16  C6       -15.7100   -1.0290   67.9660 C.2   1451  CM91451     0.2654
     17  O2       -15.1960   -0.5360   66.9720 O.2   1451  CM91451    -0.2711
     18  N2       -16.2610   -2.2480   68.0230 N.am  1451  CM91451    -0.1777
     19  C5       -16.4170   -3.2150   67.0140 C.ar  1451  CM91451     0.0765
     20  C1       -15.8330   -3.1710   65.7450 C.ar  1451  CM91451     0.0373
     21  C2       -16.1010   -4.1950   64.8150 C.ar  1451  CM91451     0.1002
     22  N1       -16.9380   -5.1870   65.1290 N.ar  1451  CM91451    -0.2422
     23  C3       -17.4950   -5.2420   66.3500 C.ar  1451  CM91451     0.1002
     24  C4       -17.2580   -4.2590   67.3090 C.ar  1451  CM91451     0.0373
@<TRIPOS>BOND
     1    21    22   ar
     2    21    20   ar
     3    22    23   ar
     4    20    19   ar
     5    23    24   ar
     6    17    16    2
     7    19    24   ar
     8    19    18    1
     9    16    18   am
    10    16    11    1
    11     1     2    2
    12    11    10    1
    13    11    12    1
    14     2    10   am
    15     2     3    1
    16    12    13    1
    17     3     9    1
    18     3     4    1
    19     9     8    1
    20    13    14    1
    21     8     6    1
    22     6     7    1
    23     6     5    1
    24     4     5    1
    25    14    15    1
