@<TRIPOS>MOLECULE
2w0a_CII_A_1.pdb
 22 23 0 0 0
SMALL
GASTEIGER

@<TRIPOS>ATOM
      1  O1       -17.7550    0.6160   69.1490 O.2   1450  CII1450    -0.2733
      2  C8       -17.5790   -0.2240   69.9960 C.2   1450  CII1450     0.2413
      3  C9       -18.7660   -0.7440   70.7480 C.3   1450  CII1450     0.0782
      4  C10      -18.8990   -0.2620   72.1760 C.3   1450  CII1450     0.0091
      5  C11      -20.2230   -0.7450   72.7790 C.3   1450  CII1450     0.0005
      6  C12      -20.8580   -1.8640   71.9670 C.3   1450  CII1450     0.0000
      7  C13      -19.8070   -2.8900   71.5650 C.3   1450  CII1450     0.0005
      8  C14      -18.7100   -2.2650   70.7050 C.3   1450  CII1450     0.0091
      9  N3       -16.3630   -0.7210   70.2100 N.am  1450  CII1450    -0.1978
     10  C7       -15.3120   -0.1840   69.3520 C.3   1450  CII1450     0.1730
     11  C15      -13.9520   -0.2630   70.0490 C.3   1450  CII1450     0.0290
     12  C16      -13.7990    0.7340   71.1950 C.3   1450  CII1450     0.0023
     13  C17      -13.5970   -1.6500   70.5440 C.3   1450  CII1450     0.0023
     14  C6       -15.3240   -0.9780   68.0660 C.2   1450  CII1450     0.2654
     15  O2       -14.8920   -0.4830   67.0350 O.2   1450  CII1450    -0.2711
     16  N2       -15.8580   -2.2080   68.1640 N.am  1450  CII1450    -0.1777
     17  C5       -16.0210   -3.1690   67.1440 C.ar  1450  CII1450     0.0765
     18  C1       -16.8380   -4.2570   67.3940 C.ar  1450  CII1450     0.0373
     19  C2       -16.9970   -5.1880   66.3860 C.ar  1450  CII1450     0.1002
     20  N1       -16.3550   -5.0240   65.2080 N.ar  1450  CII1450    -0.2422
     21  C3       -15.5950   -3.9980   65.0030 C.ar  1450  CII1450     0.1002
     22  C4       -15.3970   -3.0850   65.9020 C.ar  1450  CII1450     0.0373
@<TRIPOS>BOND
     1    21    20   ar
     2    21    22   ar
     3    20    19   ar
     4    22    17   ar
     5    19    18   ar
     6    15    14    2
     7    17    18   ar
     8    17    16    1
     9    14    16   am
    10    14    10    1
    11     1     2    2
    12    10    11    1
    13    10     9    1
    14     2     9   am
    15     2     3    1
    16    11    13    1
    17    11    12    1
    18     8     3    1
    19     8     7    1
    20     3     4    1
    21     7     6    1
    22     6     5    1
    23     4     5    1
