@<TRIPOS>MOLECULE
2w0a_HEM_A_1.pdb
 43 50 0 0 0
SMALL
GASTEIGER

@<TRIPOS>ATOM
      1 FE        -16.8000   -6.7370   63.8910 Fe    470  HEM470      0.0000
      2  CHA      -18.2110   -8.5710   66.5260 C.2   470  HEM470      0.0000
      3  CHB      -13.6930   -7.7770   64.8360 C.2   470  HEM470      0.0000
      4  CHC      -15.4840   -5.3960   61.0040 C.2   470  HEM470      0.0000
      5  CHD      -19.7840   -5.2920   63.2530 C.2   470  HEM470      0.0000
      6  NA       -16.1320   -7.9770   65.3600 N.2   470  HEM470      0.0000
      7  C1A      -16.8420   -8.5350   66.4100 C.2   470  HEM470      0.0000
      8  C2A      -15.9030   -9.0840   67.3600 C.2   470  HEM470      0.0000
      9  C3A      -14.6570   -8.8510   66.8830 C.2   470  HEM470      0.0000
     10  C4A      -14.7770   -8.1680   65.6130 C.2   470  HEM470      0.0000
     11  CMA      -13.3050   -9.2310   67.4890 C.3   470  HEM470      0.0000
     12  CAA      -16.3300   -9.7360   68.6830 C.3   470  HEM470      0.0000
     13  CBA      -16.6040   -8.5590   69.6340 C.3   470  HEM470      0.0000
     14  CGA      -16.7750   -9.0300   71.0540 C.2   470  HEM470      0.0000
     15  O1A      -16.8800  -10.2600   71.2870 O.co2 470  HEM470      0.0000
     16  O2A      -16.7820   -8.1480   71.9620 O.co2 470  HEM470      0.0000
     17  NB       -14.9270   -6.5570   63.1220 N.ar  470  HEM470      0.0000
     18  C1B      -13.7790   -7.1370   63.6180 C.ar  470  HEM470      0.0000
     19  C2B      -12.7200   -6.9650   62.6550 C.ar  470  HEM470      0.0000
     20  C3B      -13.2350   -6.3120   61.5940 C.ar  470  HEM470      0.0000
     21  C4B      -14.6280   -6.0480   61.8730 C.ar  470  HEM470      0.0000
     22  CMB      -11.2850   -7.4680   62.8720 C.3   470  HEM470      0.0000
     23  CAB      -12.5560   -5.8450   60.2880 C.2   470  HEM470      0.0000
     24  CBB      -11.5260   -6.5210   59.8080 C.2   470  HEM470      0.0000
     25  NC       -17.4910   -5.5440   62.4390 N.2   470  HEM470      0.0000
     26  C1C      -16.8200   -5.1680   61.2680 C.2   470  HEM470      0.0000
     27  C2C      -17.7630   -4.4860   60.3950 C.2   470  HEM470      0.0000
     28  C3C      -18.9440   -4.4570   61.0220 C.2   470  HEM470      0.0000
     29  C4C      -18.7920   -5.1140   62.3040 C.2   470  HEM470      0.0000
     30  CMC      -17.4290   -3.9330   59.0040 C.3   470  HEM470      0.0000
     31  CAC      -20.3140   -3.8950   60.5560 C.2   470  HEM470      0.0000
     32  CBC      -20.4370   -2.7210   59.9460 C.2   470  HEM470      0.0000
     33  ND       -18.7020   -6.9050   64.7730 N.ar  470  HEM470      0.0000
     34  C1D      -19.7890   -6.2120   64.2710 C.ar  470  HEM470      0.0000
     35  C2D      -20.9620   -6.6660   64.9770 C.ar  470  HEM470      0.0000
     36  C3D      -20.4930   -7.6990   65.9920 C.ar  470  HEM470      0.0000
     37  C4D      -19.0580   -7.7710   65.8160 C.ar  470  HEM470      0.0000
     38  CMD      -22.4120   -6.1970   64.7340 C.3   470  HEM470      0.0000
     39  CAD      -21.3990   -8.4640   66.9900 C.3   470  HEM470      0.0000
     40  CBD      -21.0820   -8.0350   68.4170 C.3   470  HEM470      0.0000
     41  CGD      -21.6000   -9.1400   69.3000 C.2   470  HEM470      0.0000
     42  O1D      -20.8730   -9.5810   70.2370 O.co2 470  HEM470      0.0000
     43  O2D      -22.7490   -9.6050   69.0500 O.co2 470  HEM470      0.0000
@<TRIPOS>BOND
     1    30    27    1
     2    24    23    2
     3    32    31    2
     4    23    20    1
     5    27    28    2
     6    27    26    1
     7    31    28    1
     8     4    26    2
     9     4    21    1
    10    28    29    1
    11    26    25    1
    12    20    21   ar
    13    20    19   ar
    14    21    17   ar
    15    29    25    2
    16    29     5    1
    17    25     1    1
    18    19    22    1
    19    19    18   ar
    20    17    18   ar
    21    17     1    1
    22     5    34    2
    23    18     3    1
    24     1    33    1
    25     1     6    1
    26    34    33   ar
    27    34    35   ar
    28    38    35    1
    29    33    37   ar
    30     3    10    2
    31    35    36   ar
    32     6    10    1
    33     6     7    2
    34    10     9    1
    35    37    36   ar
    36    37     2    2
    37    36    39    1
    38     7     2    1
    39     7     8    1
    40     9     8    2
    41     9    11    1
    42    39    40    1
    43     8    12    1
    44    40    41    1
    45    12    13    1
    46    43    41   ar
    47    41    42   ar
    48    13    14    1
    49    14    15   ar
    50    14    16   ar
