@<TRIPOS>MOLECULE
2w0b_HEM_A_1.pdb
 43 50 0 0 0
SMALL
GASTEIGER

@<TRIPOS>ATOM
      1 FE        -17.2030   -6.9750   63.4710 Fe    470  HEM470      0.0000
      2  CHA      -18.6830   -8.5170   66.1970 C.2   470  HEM470      0.0000
      3  CHB      -14.1380   -8.0290   64.5190 C.2   470  HEM470      0.0000
      4  CHC      -15.8680   -6.0100   60.4630 C.2   470  HEM470      0.0000
      5  CHD      -20.1170   -5.3680   62.7170 C.2   470  HEM470      0.0000
      6  NA       -16.5590   -8.0640   65.0280 N.2   470  HEM470      0.0000
      7  C1A      -17.3150   -8.5620   66.0660 C.2   470  HEM470      0.0000
      8  C2A      -16.4290   -9.1660   67.0340 C.2   470  HEM470      0.0000
      9  C3A      -15.1660   -9.0280   66.5890 C.2   470  HEM470      0.0000
     10  C4A      -15.2220   -8.3430   65.3030 C.2   470  HEM470      0.0000
     11  CMA      -13.8680   -9.5200   67.2670 C.3   470  HEM470      0.0000
     12  CAA      -16.9280   -9.8220   68.3470 C.3   470  HEM470      0.0000
     13  CBA      -17.1290   -8.7420   69.4140 C.3   470  HEM470      0.0000
     14  CGA      -17.4610   -9.3220   70.7760 C.2   470  HEM470      0.0000
     15  O1A      -17.4220  -10.5680   70.9490 O.co2 470  HEM470      0.0000
     16  O2A      -17.7810   -8.5150   71.6910 O.co2 470  HEM470      0.0000
     17  NB       -15.3450   -6.9650   62.6600 N.ar  470  HEM470      0.0000
     18  C1B      -14.2140   -7.5150   63.2430 C.ar  470  HEM470      0.0000
     19  C2B      -13.1300   -7.4750   62.2890 C.ar  470  HEM470      0.0000
     20  C3B      -13.6090   -6.9210   61.1510 C.ar  470  HEM470      0.0000
     21  C4B      -15.0060   -6.5840   61.3710 C.ar  470  HEM470      0.0000
     22  CMB      -11.6950   -7.9770   62.5900 C.3   470  HEM470      0.0000
     23  CAB      -12.8590   -6.6280   59.8480 C.2   470  HEM470      0.0000
     24  CBB      -11.7810   -7.3140   59.4590 C.2   470  HEM470      0.0000
     25  NC       -17.8590   -5.8860   61.9160 N.2   470  HEM470      0.0000
     26  C1C      -17.1650   -5.6290   60.7510 C.2   470  HEM470      0.0000
     27  C2C      -18.0400   -4.9000   59.8540 C.2   470  HEM470      0.0000
     28  C3C      -19.2130   -4.7230   60.4740 C.2   470  HEM470      0.0000
     29  C4C      -19.1200   -5.3370   61.7830 C.2   470  HEM470      0.0000
     30  CMC      -17.6390   -4.4680   58.4340 C.3   470  HEM470      0.0000
     31  CAC      -20.4860   -4.0130   59.9390 C.2   470  HEM470      0.0000
     32  CBC      -20.5470   -3.5910   58.6720 C.2   470  HEM470      0.0000
     33  ND       -19.0670   -6.9530   64.3040 N.ar  470  HEM470      0.0000
     34  C1D      -20.1280   -6.1920   63.8150 C.ar  470  HEM470      0.0000
     35  C2D      -21.2690   -6.4010   64.6740 C.ar  470  HEM470      0.0000
     36  C3D      -20.8540   -7.3800   65.7300 C.ar  470  HEM470      0.0000
     37  C4D      -19.4670   -7.6740   65.4460 C.ar  470  HEM470      0.0000
     38  CMD      -22.6640   -5.7810   64.5600 C.3   470  HEM470      0.0000
     39  CAD      -21.7390   -7.8910   66.8660 C.3   470  HEM470      0.0000
     40  CBD      -22.4660   -9.1480   66.4170 C.3   470  HEM470      0.0000
     41  CGD      -23.3180   -9.6620   67.5450 C.2   470  HEM470      0.0000
     42  O1D      -24.0310  -10.6830   67.3210 O.co2 470  HEM470      0.0000
     43  O2D      -23.2490   -9.0640   68.6480 O.co2 470  HEM470      0.0000
@<TRIPOS>BOND
     1    30    27    1
     2    32    31    2
     3    24    23    2
     4    23    20    1
     5    27    28    2
     6    27    26    1
     7    31    28    1
     8     4    26    2
     9     4    21    1
    10    28    29    1
    11    26    25    1
    12    20    21   ar
    13    20    19   ar
    14    21    17   ar
    15    29    25    2
    16    29     5    1
    17    25     1    1
    18    19    22    1
    19    19    18   ar
    20    17    18   ar
    21    17     1    1
    22     5    34    2
    23    18     3    1
    24     1    33    1
    25     1     6    1
    26    34    33   ar
    27    34    35   ar
    28    33    37   ar
    29     3    10    2
    30    38    35    1
    31    35    36   ar
    32     6    10    1
    33     6     7    2
    34    10     9    1
    35    37    36   ar
    36    37     2    2
    37    36    39    1
    38     7     2    1
    39     7     8    1
    40    40    39    1
    41    40    41    1
    42     9     8    2
    43     9    11    1
    44     8    12    1
    45    42    41   ar
    46    41    43   ar
    47    12    13    1
    48    13    14    1
    49    14    15   ar
    50    14    16   ar
