@<TRIPOS>MOLECULE
2w0b_CMW_A_1.pdb
 24 25 0 0 0
SMALL
GASTEIGER

@<TRIPOS>ATOM
      1  O4       -14.9180   -0.8710   68.7530 O.2   1450  CMW1450    -0.2242
      2  C6       -15.5420   -1.7310   68.1440 C.2   1450  CMW1450     0.4254
      3  N2       -15.2280   -2.1420   66.9310 N.am  1450  CMW1450    -0.1423
      4  C5       -15.8450   -3.1680   66.2110 C.ar  1450  CMW1450     0.0798
      5  C4       -15.4810   -3.3180   64.8870 C.ar  1450  CMW1450     0.0374
      6  C3       -15.9880   -4.3600   64.1070 C.ar  1450  CMW1450     0.1002
      7  N1       -16.8100   -5.2590   64.6390 N.ar  1450  CMW1450    -0.2422
      8  C2       -17.1690   -5.1480   65.9400 C.ar  1450  CMW1450     0.1002
      9  C1       -16.7000   -4.1170   66.7630 C.ar  1450  CMW1450     0.0374
     10  O1       -16.7220   -2.2740   68.7300 O.3   1450  CMW1450    -0.4333
     11  C7       -17.0790   -1.8340   70.0500 C.3   1450  CMW1450     0.2117
     12  C8       -18.4670   -2.3590   70.3660 C.3   1450  CMW1450     0.0683
     13  C9       -18.4820   -3.8830   70.2910 C.3   1450  CMW1450     0.1193
     14  N3       -19.8720   -4.2970   70.3770 N.3   1450  CMW1450    -0.0777
     15  S        -20.6300   -4.8080   69.1550 S.O2  1450  CMW1450     0.0768
     16  O3       -21.8220   -5.4930   69.6850 O.2   1450  CMW1450    -0.1516
     17  O2       -19.7610   -5.6470   68.3010 O.2   1450  CMW1450    -0.1516
     18  C10      -21.0470   -3.5120   68.2860 C.ar  1450  CMW1450     0.1235
     19  C16      -20.4340   -3.2590   67.0620 C.ar  1450  CMW1450     0.0196
     20  C15      -20.8110   -2.1120   66.3820 C.ar  1450  CMW1450    -0.0029
     21  C13      -21.7800   -1.2810   66.9370 C.ar  1450  CMW1450    -0.0218
     22  C14      -22.1860   -0.0410   66.1860 C.3   1450  CMW1450     0.0310
     23  C12      -22.3230   -1.5580   68.0810 C.ar  1450  CMW1450    -0.0029
     24  C11      -21.9950   -2.6080   68.7620 C.ar  1450  CMW1450     0.0196
@<TRIPOS>BOND
     1     6     7   ar
     2     6     5   ar
     3     7     8   ar
     4     5     4   ar
     5     8     9   ar
     6    22    21    1
     7     4     9   ar
     8     4     3    1
     9    20    21   ar
    10    20    19   ar
    11     3     2   am
    12    21    23   ar
    13    19    18   ar
    14    23    24   ar
    15     2    10    1
    16     2     1    2
    17    18    24   ar
    18    18    15    1
    19    17    15    2
    20    10    11    1
    21    15    16    2
    22    15    14    1
    23    11    12    1
    24    13    12    1
    25    13    14    1
