@<TRIPOS>MOLECULE
2w0d_CGS_A_1.pdb
 27 28 0 0 0
SMALL
GASTEIGER

@<TRIPOS>ATOM
      1  N1       -13.5230   26.0670  -24.3240 N.3   1273  CGS1273    -0.1464
      2  CC       -12.7650   26.2880  -25.5890 C.3   1273  CGS1273     0.1240
      3  CA       -12.7270   25.9980  -23.0720 C.3   1273  CGS1273     0.1247
      4  S4       -15.1290   25.7660  -24.2430 S.O2  1273  CGS1273     0.0639
      5  C5       -13.0300   27.6000  -26.3120 C.ar  1273  CGS1273     0.0147
      6  CD       -13.9850   27.6540  -27.3340 C.ar  1273  CGS1273     0.0003
      7  CE       -14.2390   28.8620  -27.9930 C.ar  1273  CGS1273     0.0204
      8  CZ       -13.5190   30.0070  -27.6500 C.ar  1273  CGS1273     0.0989
      9  N11      -12.5710   29.9610  -26.6420 N.ar  1273  CGS1273    -0.2426
     10  CY       -12.3180   28.7610  -25.9890 C.ar  1273  CGS1273     0.0960
     11  C17      -15.3350   24.0430  -24.5130 C.ar  1273  CGS1273     0.1224
     12  CE2      -15.5550   23.5380  -25.7880 C.ar  1273  CGS1273     0.0230
     13  CD2      -15.7170   22.1630  -25.9590 C.ar  1273  CGS1273     0.0383
     14  C20      -15.6580   21.3020  -24.8580 C.ar  1273  CGS1273     0.1388
     15  CD1      -15.4300   21.8100  -23.5910 C.ar  1273  CGS1273     0.0383
     16  CE1      -15.2720   23.1810  -23.4220 C.ar  1273  CGS1273     0.0230
     17  O27      -15.8130   19.9490  -25.0190 O.3   1273  CGS1273    -0.4714
     18  COM      -16.0500   19.3930  -26.3180 C.3   1273  CGS1273     0.2525
     19  O32      -15.8080   26.4700  -25.2830 O.2   1273  CGS1273    -0.1528
     20  O33      -15.5380   26.0370  -22.8950 O.2   1273  CGS1273    -0.1528
     21  C34      -12.0020   24.6730  -22.9740 C.2   1273  CGS1273     0.1029
     22  N35      -12.1370   23.9740  -21.8540 N.am  1273  CGS1273    -0.2016
     23  CB       -11.7200   27.1500  -22.9200 C.3   1273  CGS1273     0.0225
     24  CG2      -12.3880   28.5000  -22.6490 C.3   1273  CGS1273     0.0019
     25  CG1      -10.6960   26.8770  -21.8110 C.3   1273  CGS1273     0.0019
     26  O47      -11.3210   24.2820  -23.9050 O.2   1273  CGS1273    -0.5381
     27  O48      -11.6180   22.6770  -21.7730 O.3   1273  CGS1273    -0.4026
@<TRIPOS>BOND
     1     7     8   ar
     2     7     6   ar
     3     8     9   ar
     4     6     5   ar
     5     9    10   ar
     6    18    17    1
     7     5    10   ar
     8     5     2    1
     9    13    12   ar
    10    13    14   ar
    11    12    11   ar
    12     2     1    1
    13    19     4    2
    14    17    14    1
    15    14    15   ar
    16    11     4    1
    17    11    16   ar
    18     1     4    1
    19     1     3    1
    20     4    20    2
    21    26    21    2
    22    15    16   ar
    23     3    21    1
    24     3    23    1
    25    21    22   am
    26    23    24    1
    27    23    25    1
    28    22    27    1
