@<TRIPOS>MOLECULE
2w0f_HX0_C_1.pdb
 33 32 0 0 0
SMALL
GASTEIGER

@<TRIPOS>ATOM
      1  CAH        6.7130    6.8810   43.1950 C.3   1128  HX01128     0.0000
      2  CAG        5.4100    6.2640   43.5920 C.3   1128  HX01128     0.0000
      3  CAF        5.5200    4.7720   43.7970 C.3   1128  HX01128    -0.0000
      4  CAE        4.5960    4.0260   42.8690 C.3   1128  HX01128    -0.0000
      5  CAD        3.6850    3.0560   43.5940 C.3   1128  HX01128    -0.0001
      6  CAC        2.5880    2.5640   42.6680 C.3   1128  HX01128    -0.0021
      7  CAB        1.9920    1.2460   43.1020 C.3   1128  HX01128    -0.0223
      8  CAA        1.0160    0.6970   42.0730 C.3   1128  HX01128    -0.0730
      9  NAQ        0.0000    0.0000   42.8450 N.4   1128  HX01128     0.3899
     10  CAP       -0.6610    0.9860   43.6560 C.3   1128  HX01128    -0.0730
     11  CAO       -1.4410    1.8940   42.7230 C.3   1128  HX01128    -0.0223
     12  CAN       -2.4240    2.6730   43.5650 C.3   1128  HX01128    -0.0021
     13  CAM       -3.1580    3.7260   42.7710 C.3   1128  HX01128    -0.0001
     14  CAL       -3.8860    4.6720   43.6960 C.3   1128  HX01128    -0.0000
     15  CAK       -4.9970    5.3730   42.9600 C.3   1128  HX01128    -0.0000
     16  CAJ       -6.0940    5.7890   43.9040 C.3   1128  HX01128     0.0000
     17  CAI       -7.0700    6.6400   43.1580 C.3   1128  HX01128     0.0000
     18  CAZ       -1.0160   -0.6970   42.0730 C.3   1128  HX01128    -0.0730
     19  CBA       -1.9920   -1.2460   43.1020 C.3   1128  HX01128    -0.0223
     20  CBB       -2.5880   -2.5640   42.6680 C.3   1128  HX01128    -0.0021
     21  CBC       -3.6850   -3.0560   43.5940 C.3   1128  HX01128    -0.0001
     22  CBD       -4.5960   -4.0260   42.8690 C.3   1128  HX01128    -0.0000
     23  CBE       -5.5200   -4.7720   43.7970 C.3   1128  HX01128    -0.0000
     24  CBF       -5.4100   -6.2640   43.5920 C.3   1128  HX01128     0.0000
     25  CBG       -6.7130   -6.8810   43.1950 C.3   1128  HX01128     0.0000
     26  CAR        0.6610   -0.9860   43.6560 C.3   1128  HX01128    -0.0730
     27  CAS        1.4410   -1.8940   42.7230 C.3   1128  HX01128    -0.0223
     28  CAT        2.4240   -2.6730   43.5650 C.3   1128  HX01128    -0.0021
     29  CAU        3.1580   -3.7260   42.7710 C.3   1128  HX01128    -0.0001
     30  CAV        3.8860   -4.6720   43.6960 C.3   1128  HX01128    -0.0000
     31  CAW        4.9970   -5.3730   42.9600 C.3   1128  HX01128    -0.0000
     32  CAX        6.0940   -5.7890   43.9040 C.3   1128  HX01128     0.0000
     33  CAY        7.0700   -6.6400   43.1580 C.3   1128  HX01128     0.0000
@<TRIPOS>BOND
     1    18     9    1
     2    18    19    1
     3     8     9    1
     4     8     7    1
     5    20    19    1
     6    20    21    1
     7     6     7    1
     8     6     5    1
     9    11    12    1
    10    11    10    1
    11    27    28    1
    12    27    26    1
    13    13    12    1
    14    13    14    1
    15    29    28    1
    16    29    30    1
    17     9    26    1
    18     9    10    1
    19    22    21    1
    20    22    23    1
    21     4     5    1
    22     4     3    1
    23    31    30    1
    24    31    32    1
    25    15    14    1
    26    15    16    1
    27    17    16    1
    28    33    32    1
    29     1     2    1
    30    25    24    1
    31    24    23    1
    32     2     3    1
