@<TRIPOS>MOLECULE
2w0h_NDP_A_1.pdb
 48 52 0 0 0
SMALL
GASTEIGER

@<TRIPOS>ATOM
      1  PA        -2.5390   20.2860   -7.9950 P.3   1488  NDP1488     0.2189
      2  O1A       -2.9390   21.8230   -7.9430 O.2   1488  NDP1488    -0.5170
      3  O2A       -3.9820   19.2640   -7.7500 O.3   1488  NDP1488    -0.4371
      4  O5B       -1.8430   19.9740   -9.4150 O.3   1488  NDP1488    -0.3112
      5  C5B       -1.4860   18.6660   -9.8680 C.3   1488  NDP1488     0.1813
      6  C4B       -2.2390   18.3410  -11.1540 C.3   1488  NDP1488     0.1820
      7  O4B       -2.3780   16.9290  -11.2860 O.3   1488  NDP1488    -0.3136
      8  C3B       -1.5710   18.7380  -12.4660 C.3   1488  NDP1488     0.2157
      9  O3B       -1.6640   20.1320  -12.7730 O.3   1488  NDP1488    -0.2175
     10  C2B       -2.3310   17.8690  -13.4530 C.3   1488  NDP1488     0.2314
     11  O2B       -3.6460   18.3790  -13.6790 O.3   1488  NDP1488    -0.2630
     12  C1B       -2.3950   16.5620  -12.6720 C.3   1488  NDP1488     0.3158
     13  N9A       -3.5840   15.6910  -12.8800 N.pl3 1488  NDP1488    -0.1439
     14  C8A       -4.8410   15.9300  -12.4570 C.3   1488  NDP1488     0.3377
     15  N7A       -5.6710   14.9070  -12.7830 N.2   1488  NDP1488    -0.2095
     16  C5A       -4.9330   13.9790  -13.4170 C.2   1488  NDP1488     0.2526
     17  C6A       -5.1750   12.6490  -14.0290 C.2   1488  NDP1488     0.4393
     18  N6A       -6.4130   12.1060  -14.0210 N.pl3 1488  NDP1488     0.2180
     19  N1A       -4.1270   11.9980  -14.5950 N.2   1488  NDP1488     0.0021
     20  C2A       -2.8890   12.5330  -14.6090 C.3   1488  NDP1488     0.5254
     21  N3A       -2.5980   13.7370  -14.0690 N.2   1488  NDP1488    -0.0055
     22  C4A       -3.5560   14.4940  -13.4690 C.2   1488  NDP1488     0.3518
     23  O3        -1.3920   19.9980   -6.8900 O.3   1488  NDP1488    -0.2703
     24  PN        -1.1800   18.5750   -6.1430 P.3   1488  NDP1488     0.2189
     25  O1N       -2.0280   17.3990   -6.7900 O.2   1488  NDP1488    -0.5170
     26  O2N        0.5490   18.1630   -6.2380 O.3   1488  NDP1488    -0.4371
     27  O5D       -1.6700   18.8030   -4.6260 O.3   1488  NDP1488    -0.3112
     28  C5D       -2.7150   19.7220   -4.2930 C.3   1488  NDP1488     0.1813
     29  C4D       -2.0330   21.0290   -3.9010 C.3   1488  NDP1488     0.1799
     30  O4D       -2.0360   21.2870   -2.4900 O.3   1488  NDP1488    -0.3327
     31  C3D       -2.5570   22.3050   -4.5500 C.3   1488  NDP1488     0.2158
     32  O3D       -3.9830   22.2930   -4.6890 O.3   1488  NDP1488    -0.2175
     33  C2D       -2.1030   23.3760   -3.5700 C.3   1488  NDP1488     0.2309
     34  O2D       -3.1850   24.2640   -3.2630 O.3   1488  NDP1488    -0.2158
     35  C1D       -1.5780   22.6360   -2.3290 C.3   1488  NDP1488     0.2263
     36  N1N       -0.0940   22.6690   -2.2480 N.pl3 1488  NDP1488    -0.2787
     37  C2N        0.5680   23.8340   -2.0890 C.3   1488  NDP1488     0.1244
     38  C3N        1.9680   23.8980   -2.0120 C.2   1488  NDP1488     0.0544
     39  C7N        2.6680   25.2200   -1.8350 C.2   1488  NDP1488     0.2818
     40  O7N        2.0280   26.2180   -1.5410 O.2   1488  NDP1488    -0.2670
     41  N7N        3.9890   25.2760   -2.0040 N.am  1488  NDP1488    -0.0839
     42  C4N        2.8150   22.6450   -2.1060 C.2   1488  NDP1488     0.0033
     43  C5N        1.9920   21.4530   -2.2740 C.2   1488  NDP1488     0.0157
     44  C6N        0.6010   21.5160   -2.3330 C.2   1488  NDP1488     0.0633
     45  P2B       -4.0040   19.3370  -14.9250 P.3   1488  NDP1488     0.5328
     46  O1X       -3.9500   18.4800  -16.2610 O.2   1488  NDP1488    -0.2224
     47  O2X       -2.8610   20.7010  -15.0490 O.3   1488  NDP1488    -0.1145
     48  O3X       -5.6380   20.0000  -14.7010 O.3   1488  NDP1488    -0.1145
@<TRIPOS>BOND
     1    46    45    2
     2    47    45    1
     3    45    48    1
     4    45    11    1
     5    20    19    1
     6    20    21    1
     7    19    17    2
     8    21    22    2
     9    17    18    1
    10    17    16    1
    11    11    10    1
    12    22    16    1
    13    22    13    1
    14    10    12    1
    15    10     8    1
    16    16    15    2
    17    13    12    1
    18    13    14    1
    19    15    14    1
    20     9     8    1
    21    12     7    1
    22     8     6    1
    23     7     6    1
    24     6     5    1
    25     5     4    1
    26     4     1    1
    27     1     2    2
    28     1     3    1
    29     1    23    1
    30    23    24    1
    31    25    24    2
    32    26    24    1
    33    24    27    1
    34    32    31    1
    35    27    28    1
    36    31    29    1
    37    31    33    1
    38    28    29    1
    39    29    30    1
    40    33    34    1
    41    33    35    1
    42    30    35    1
    43    44    43    2
    44    44    36    1
    45    35    36    1
    46    43    42    1
    47    36    37    1
    48    42    38    2
    49    37    38    1
    50    38    39    1
    51    41    39   am
    52    39    40    2
