@<TRIPOS>MOLECULE
2w0j_ZAT_A_1.pdb
 30 31 0 0 0
SMALL
GASTEIGER

@<TRIPOS>ATOM
      1  NAA       41.4160  -28.0480   -0.1660 N.pl3 1511  ZAT1511     0.1376
      2  CAK       40.8920  -28.4310    1.0040 C.cat 1511  ZAT1511     0.5604
      3  NAB       40.3830  -27.5060    1.8270 N.pl3 1511  ZAT1511     0.1376
      4  NAC       40.9140  -29.7350    1.3350 N.pl3 1511  ZAT1511     0.0567
      5  NAD       40.4600  -30.0950    2.4220 N.2   1511  ZAT1511    -0.0740
      6  CAL       40.4070  -31.3320    2.9090 C.2   1511  ZAT1511     0.0972
      7  CAM       40.8990  -32.5410    2.1060 C.3   1511  ZAT1511     0.0554
      8  CAN       39.7360  -31.4320    4.1260 C.ar  1511  ZAT1511     0.0167
      9  CAS       39.8940  -30.4400    5.0910 C.ar  1511  ZAT1511     0.0026
     10  CAR       39.1810  -30.5170    6.2820 C.ar  1511  ZAT1511     0.0167
     11  CAO       38.8260  -32.4690    4.3510 C.ar  1511  ZAT1511     0.0026
     12  CAP       38.1120  -32.5600    5.5470 C.ar  1511  ZAT1511     0.0167
     13  CAQ       38.2880  -31.5780    6.5210 C.ar  1511  ZAT1511     0.0750
     14  NAE       37.6450  -31.5640    7.7030 N.am  1511  ZAT1511    -0.1607
     15  CAT       37.0690  -32.6010    8.3470 C.2   1511  ZAT1511     0.3477
     16  OBD       37.0270  -33.7560    7.8750 O.2   1511  ZAT1511    -0.2484
     17  NAF       36.5040  -32.2210    9.5300 N.am  1511  ZAT1511    -0.1607
     18  CAU       35.9090  -33.0090   10.4710 C.ar  1511  ZAT1511     0.0750
     19  CAZ       35.5810  -34.3670   10.3280 C.ar  1511  ZAT1511     0.0167
     20  CAY       34.9960  -35.0630   11.3890 C.ar  1511  ZAT1511     0.0026
     21  CAV       35.6410  -32.3940   11.6970 C.ar  1511  ZAT1511     0.0167
     22  CAW       35.0630  -33.0910   12.7560 C.ar  1511  ZAT1511     0.0026
     23  CAX       34.7180  -34.4390   12.6210 C.ar  1511  ZAT1511     0.0167
     24  CBA       34.1270  -35.1110   13.7320 C.2   1511  ZAT1511     0.0972
     25  CBB       33.3300  -36.4180   13.6250 C.3   1511  ZAT1511     0.0554
     26  NAG       34.3360  -34.5680   14.9360 N.2   1511  ZAT1511    -0.0740
     27  NAH       33.9460  -35.0110   16.0280 N.pl3 1511  ZAT1511     0.0567
     28  CBC       34.2300  -34.3560   17.1740 C.cat 1511  ZAT1511     0.5604
     29  NAJ       33.7910  -34.7870   18.3390 N.pl3 1511  ZAT1511     0.1376
     30  NAI       34.9560  -33.2450   17.1820 N.pl3 1511  ZAT1511     0.1376
@<TRIPOS>BOND
     1     1     2    1
     2     2     4    2
     3     2     3    1
     4     4     5    1
     5     7     6    1
     6     5     6    2
     7     6     8    1
     8     8    11   ar
     9     8     9   ar
    10    11    12   ar
    11     9    10   ar
    12    12    13   ar
    13    10    13   ar
    14    13    14    1
    15    14    15   am
    16    16    15    2
    17    15    17   am
    18    17    18    1
    19    19    18   ar
    20    19    20   ar
    21    18    21   ar
    22    20    23   ar
    23    21    22   ar
    24    23    22   ar
    25    23    24    1
    26    25    24    1
    27    24    26    2
    28    26    27    1
    29    27    28    2
    30    28    30    1
    31    28    29    1
