@<TRIPOS>MOLECULE
2w0s_BVP_A_1.pdb
 23 24 0 0 0
SMALL
GASTEIGER

@<TRIPOS>ATOM
      1  O3'      -33.4490   -4.8280   -2.1080 O.3   1207  BVP1207    -0.2203
      2  C3'      -32.2230   -4.3700   -2.6630 C.3   1207  BVP1207     0.1857
      3  C2'      -32.0380   -2.8560   -2.5460 C.3   1207  BVP1207     0.0874
      4  C1'      -31.5080   -2.7710   -1.1360 C.3   1207  BVP1207     0.2090
      5  O4'      -30.4370   -3.6990   -1.1920 O.3   1207  BVP1207    -0.3339
      6  C4'      -31.0720   -4.8730   -1.7690 C.3   1207  BVP1207     0.1774
      7  C5'      -30.0700   -5.7800   -2.4640 C.3   1207  BVP1207     0.1858
      8  O5'      -29.5850   -5.1010   -3.6150 O.3   1207  BVP1207    -0.2675
      9  P        -28.8570   -5.8950   -4.8050 P.3   1207  BVP1207     0.5327
     10  O1P      -30.0060   -6.2430   -5.9360 O.2   1207  BVP1207    -0.2224
     11  O2P      -27.9310   -4.7360   -5.5070 O.3   1207  BVP1207    -0.1145
     12  O3P      -28.1430   -7.1150   -4.3610 O.3   1207  BVP1207    -0.1145
     13  N1       -31.1530   -1.4050   -0.6150 N.am  1207  BVP1207    -0.1794
     14  C6       -31.7360   -0.8120    0.4990 C.2   1207  BVP1207     0.0877
     15  C5       -31.3310    0.4790    0.8520 C.2   1207  BVP1207     0.0896
     16  C5A      -31.8370    1.0980    1.9960 C.3   1207  BVP1207     0.0529
     17  C5B      -32.7650    0.2370    2.8810 C.3   1207  BVP1207     0.0731
     18 BR        -33.3990    1.1030    4.3860 Br    1207  BVP1207    -0.0804
     19  C4       -30.3110    1.1310    0.1560 C.1   1207  BVP1207     0.2134
     20  O4       -29.9170    2.2490    0.4730 O.2   1207  BVP1207    -0.2088
     21  N3       -29.7260    0.5350   -0.9300 N.2   1207  BVP1207    -0.2455
     22  C2       -30.1860   -0.7350   -1.2880 C.1   1207  BVP1207     0.2844
     23  O2       -29.6640   -1.2620   -2.2690 O.2   1207  BVP1207    -0.1918
@<TRIPOS>BOND
     1    10     9    2
     2    11     9    1
     3     9    12    1
     4     9     8    1
     5     8     7    1
     6     2     3    1
     7     2     1    1
     8     2     6    1
     9     3     4    1
    10     7     6    1
    11    23    22    2
    12     6     5    1
    13    22    21    2
    14    22    13   am
    15     5     4    1
    16     4    13    1
    17    21    19    2
    18    13    14    1
    19    19    20    2
    20    19    15    1
    21    14    15    2
    22    15    16    1
    23    16    17    1
    24    17    18    1
