@<TRIPOS>MOLECULE
2w0u_C7C_A_1.pdb
 16 17 0 0 0
SMALL
GASTEIGER

@<TRIPOS>ATOM
      1 CL        -40.9800   26.8980   25.4490 Cl    1364  C7C1364    -0.0822
      2  C1       -42.5220   26.0920   25.8880 C.ar  1364  C7C1364     0.0577
      3  C2       -43.7310   26.6190   25.4510 C.ar  1364  C7C1364     0.0119
      4  C3       -44.9250   25.9940   25.7910 C.ar  1364  C7C1364     0.0071
      5  C6       -42.5070   24.9390   26.6660 C.ar  1364  C7C1364     0.0119
      6  C5       -43.7010   24.3150   27.0060 C.ar  1364  C7C1364     0.0071
      7  C4       -44.9100   24.8420   26.5680 C.ar  1364  C7C1364     0.0265
      8  S8       -46.3670   24.0800   26.9830 S.3   1364  C7C1364    -0.0954
      9  C9       -46.6040   24.1780   28.7090 C.3   1364  C7C1364     0.1686
     10  C13      -47.7050   23.5250   29.4540 C.2   1364  C7C1364     0.1798
     11  C14      -48.7220   22.7080   28.7340 C.2   1364  C7C1364     0.4044
     12  O15      -48.8360   22.8360   27.4960 O.co2 1364  C7C1364    -0.2391
     13  O16      -49.4340   21.9140   29.3860 O.co2 1364  C7C1364    -0.2391
     14  S10      -45.5950   25.0460   29.7970 S.3   1364  C7C1364     0.0118
     15  N11      -46.5010   24.6250   31.1720 N.pl3 1364  C7C1364    -0.0826
     16  N12      -47.6020   23.8010   30.7920 N.2   1364  C7C1364    -0.1482
@<TRIPOS>BOND
     1     1     2    1
     2     3     4   ar
     3     3     2   ar
     4     4     7   ar
     5     2     5   ar
     6     7     8    1
     7     7     6   ar
     8     5     6   ar
     9     8     9    1
    10    12    11   ar
    11     9    10    1
    12     9    14    1
    13    11    13   ar
    14    11    10    1
    15    10    16    2
    16    14    15    1
    17    16    15    1
