@<TRIPOS>MOLECULE
2w0u_FMN_A_1.pdb
 31 33 0 0 0
SMALL
GASTEIGER

@<TRIPOS>ATOM
      1  N1       -50.9230   25.3650   33.3880 N.2   1365  FMN1365    -0.2887
      2  C2       -49.8970   26.1280   33.8840 C.1   1365  FMN1365     0.3669
      3  O2       -49.7790   26.2490   35.0960 O.2   1365  FMN1365    -0.1744
      4  N3       -49.0180   26.7490   33.0240 N.2   1365  FMN1365    -0.2300
      5  C4       -49.1700   26.6110   31.6540 C.1   1365  FMN1365     0.2513
      6  O4       -48.4110   27.1930   30.8750 O.2   1365  FMN1365    -0.2057
      7  C4A      -50.2090   25.8410   31.1540 C.2   1365  FMN1365     0.2703
      8  N5       -50.3660   25.6930   29.7970 N.2   1365  FMN1365    -0.3882
      9  C5A      -51.3980   24.9220   29.2990 C.2   1365  FMN1365     0.1277
     10  C6       -51.5590   24.7730   27.9210 C.3   1365  FMN1365     0.0820
     11  C7       -52.6090   24.0040   27.4040 C.2   1365  FMN1365    -0.0408
     12  C7M      -52.9750   24.1340   25.9550 C.3   1365  FMN1365     0.0265
     13  C8       -53.4950   23.3750   28.2780 C.2   1365  FMN1365    -0.0280
     14  C8M      -54.6980   22.6470   27.7490 C.3   1365  FMN1365     0.0304
     15  C9       -53.3280   23.5240   29.6560 C.2   1365  FMN1365     0.0123
     16  C9A      -52.2850   24.2940   30.1700 C.2   1365  FMN1365     0.0793
     17  N10      -52.1250   24.4440   31.5310 N.pl3 1365  FMN1365    -0.2545
     18  C10      -51.0860   25.2110   32.0260 C.2   1365  FMN1365     0.2449
     19  C1'      -53.1400   23.8670   32.4680 C.3   1365  FMN1365     0.1336
     20  C2'      -54.2640   24.8730   32.6700 C.3   1365  FMN1365     0.2048
     21  O2'      -53.7970   25.9350   33.4640 O.3   1365  FMN1365    -0.2185
     22  C3'      -55.4520   24.2490   33.3740 C.3   1365  FMN1365     0.2165
     23  O3'      -54.9670   23.5540   34.4940 O.3   1365  FMN1365    -0.2175
     24  C4'      -56.2180   23.2640   32.5120 C.3   1365  FMN1365     0.2147
     25  O4'      -56.2750   23.7060   31.1790 O.3   1365  FMN1365    -0.2176
     26  C5'      -57.6280   23.1070   33.0500 C.3   1365  FMN1365     0.1892
     27  O5'      -58.2490   22.0430   32.3750 O.3   1365  FMN1365    -0.2674
     28  P        -59.2670   22.2880   31.1550 P.3   1365  FMN1365     0.5327
     29  O1P      -60.1060   21.0360   31.0230 O.3   1365  FMN1365    -0.1145
     30  O2P      -58.4780   22.5680   29.9020 O.2   1365  FMN1365    -0.2224
     31  O3P      -60.1620   23.4630   31.4350 O.3   1365  FMN1365    -0.1145
@<TRIPOS>BOND
     1    12    11    1
     2    11    10    1
     3    11    13    2
     4    14    13    1
     5    10     9    1
     6    13    15    1
     7     9     8    2
     8     9    16    1
     9    15    16    2
    10     8     7    2
    11    30    28    2
    12    16    17    1
    13     6     5    2
    14    29    28    1
    15     7     5    1
    16     7    18    1
    17    28    31    1
    18    28    27    1
    19    25    24    1
    20    17    18    1
    21    17    19    1
    22     5     4    2
    23    18     1    2
    24    27    26    1
    25    19    20    1
    26    24    26    1
    27    24    22    1
    28    20    22    1
    29    20    21    1
    30     4     2    2
    31    22    23    1
    32     1     2    2
    33     2     3    2
