@<TRIPOS>MOLECULE
2w0v_LZR_A_1.pdb
 33 38 0 0 0
SMALL
GASTEIGER

@<TRIPOS>ATOM
      1  O29       75.8470   34.4880   38.7410 O.2   1454  LZR1454    -0.2673
      2  C26       76.7180   34.9680   39.4930 C.ar  1454  LZR1454     0.2566
      3  N28       76.4920   35.0350   40.8910 N.ar  1454  LZR1454    -0.2944
      4  C30       75.2280   34.5550   41.4720 C.3   1454  LZR1454     0.1090
      5  C31       74.2400   35.7030   41.5300 C.3   1454  LZR1454     0.0227
      6  C32       73.5140   35.6620   42.6630 C.3   1454  LZR1454     0.0020
      7  C33       74.4860   36.4890   42.6790 C.3   1454  LZR1454     0.0020
      8  C27       77.4190   35.5480   41.7180 C.ar  1454  LZR1454     0.0780
      9  C23       78.6390   36.0290   41.2520 C.ar  1454  LZR1454     0.0160
     10  C19       78.9320   35.9980   39.8950 C.ar  1454  LZR1454     0.0005
     11  C22       77.9160   35.4350   38.9640 C.ar  1454  LZR1454     0.0334
     12  C20       78.2030   35.3900   37.4780 C.3   1454  LZR1454     0.0532
     13  C15       80.2600   36.5290   39.3950 C.3   1454  LZR1454     0.1294
     14  N12       80.4070   36.3030   37.9590 N.pl3 1454  LZR1454    -0.2288
     15  C16       79.2200   36.4700   37.1200 C.3   1454  LZR1454     0.1084
     16  C7        81.5840   35.8400   37.4470 C.1   1454  LZR1454     0.2133
     17  N3        81.7980   35.8160   36.1090 N.2   1454  LZR1454    -0.3308
     18  C1        82.9610   35.3680   35.5850 C.2   1454  LZR1454     0.1422
     19  C2        83.9640   34.9200   36.4320 C.2   1454  LZR1454     0.1252
     20  C5        85.1620   34.4560   35.8870 C.2   1454  LZR1454     0.0547
     21  C6        83.7350   34.9490   37.8030 C.1   1454  LZR1454     0.2180
     22  O11       84.6450   34.5250   38.6690 O.2   1454  LZR1454    -0.2085
     23  N10       82.5580   35.4080   38.2810 N.2   1454  LZR1454    -0.2526
     24  C4        83.1550   35.3620   34.2050 C.3   1454  LZR1454     0.1277
     25  C8        84.3470   34.8970   33.6570 C.2   1454  LZR1454     0.1570
     26  O13       84.5470   34.8830   32.2970 O.2   1454  LZR1454    -0.4722
     27  C17       83.5080   34.5490   31.3760 C.3   1454  LZR1454     0.2521
     28  C9        85.3490   34.4500   34.5020 C.2   1454  LZR1454     0.1693
     29  O14       86.5180   33.9850   33.9640 O.2   1454  LZR1454    -0.4727
     30  C18       87.6060   34.8670   33.7000 C.3   1454  LZR1454     0.2054
     31  C21       88.3690   35.1920   34.9760 C.3   1454  LZR1454     0.0438
     32  C24       89.5830   34.5980   35.0160 C.3   1454  LZR1454     0.0038
     33  C25       88.6810   34.0200   35.7030 C.3   1454  LZR1454     0.0038
@<TRIPOS>BOND
     1    27    26    1
     2    26    25    1
     3    25    24    1
     4    25    28    2
     5    30    29    1
     6    30    31    1
     7    29    28    1
     8    24    18    1
     9    28    20    1
    10    31    32    1
    11    31    33    1
    12    32    33    1
    13    18    17    2
    14    18    19    1
    15    20    19    2
    16    17    16    2
    17    19    21    1
    18    15    12    1
    19    15    14    1
    20    16    14    1
    21    16    23    2
    22    12    11    1
    23    21    23    2
    24    21    22    2
    25    14    13    1
    26     1     2    2
    27    11     2   ar
    28    11    10   ar
    29    13    10    1
    30     2     3   ar
    31    10     9   ar
    32     3     4    1
    33     3     8   ar
    34     9     8   ar
    35     4     5    1
    36     5     6    1
    37     5     7    1
    38     6     7    1
