@<TRIPOS>MOLECULE
2w0w_LZS_A_1.pdb
 41 45 0 0 0
SMALL
GASTEIGER

@<TRIPOS>ATOM
      1  F85       65.7810    5.2430   75.4520 F     1454  LZS1454    -0.1680
      2  C83       66.3970    4.0770   75.5100 C.3   1454  LZS1454     0.4213
      3  F81       65.6370    3.1700   74.9200 F     1454  LZS1454    -0.1680
      4  F83       67.5500    4.1610   74.8680 F     1454  LZS1454    -0.1680
      5  C16       66.6100    3.6790   76.9730 C.3   1454  LZS1454     0.2769
      6  S12       68.0630    4.2070   77.6140 S.O2  1454  LZS1454     0.0842
      7  O18       68.2360    5.6180   77.4010 O.2   1454  LZS1454    -0.1525
      8  O17       69.1350    3.4810   76.9870 O.2   1454  LZS1454    -0.1525
      9  N8        68.1010    3.9410   79.1900 N.pl3 1454  LZS1454    -0.0670
     10  C3        67.2490    4.5670   80.0330 C.2   1454  LZS1454     0.2365
     11  C1        67.3040    4.3410   81.4090 C.2   1454  LZS1454     0.0778
     12  C2        66.4080    5.0110   82.2390 C.2   1454  LZS1454     0.1342
     13  C6        66.4390    4.8010   83.6170 C.3   1454  LZS1454     0.1270
     14  C11       67.3740    3.9230   84.1710 C.2   1454  LZS1454     0.1569
     15  O15       67.4300    3.6820   85.5270 O.2   1454  LZS1454    -0.4722
     16  C22       67.1630    4.6870   86.5050 C.3   1454  LZS1454     0.2521
     17  C9        68.2650    3.2580   83.3410 C.2   1454  LZS1454     0.1686
     18  O13       69.1770    2.4000   83.8940 O.2   1454  LZS1454    -0.4727
     19  C19       68.9990    0.9900   83.7900 C.3   1454  LZS1454     0.2054
     20  C23       69.9790    0.4850   82.7360 C.3   1454  LZS1454     0.0438
     21  C27       71.1090   -0.2870   83.4160 C.3   1454  LZS1454     0.0038
     22  C26       69.9720   -1.0390   82.7270 C.3   1454  LZS1454     0.0038
     23  C4        68.2360    3.4630   81.9630 C.2   1454  LZS1454     0.0460
     24  N5        65.5050    5.8510   81.6970 N.2   1454  LZS1454    -0.3320
     25  C10       65.4660    6.0690   80.3570 C.1   1454  LZS1454     0.2041
     26  N7        66.3290    5.4250   79.5450 N.2   1454  LZS1454    -0.3096
     27  N14       64.5210    6.9380   79.7920 N.pl3 1454  LZS1454    -0.2293
     28  C20       64.3410    6.9760   78.3410 C.3   1454  LZS1454     0.1293
     29  C24       64.1840    8.4160   77.8870 C.ar  1454  LZS1454     0.0005
     30  C29       64.1440    8.7300   76.5400 C.ar  1454  LZS1454     0.0160
     31  C31       64.0100   10.0610   76.1340 C.ar  1454  LZS1454     0.0780
     32  N32       63.9010   11.1120   76.9770 N.ar  1454  LZS1454    -0.2944
     33  C34       63.7520   12.4560   76.4020 C.3   1454  LZS1454     0.1090
     34  C35       62.2960   12.9290   76.3980 C.3   1454  LZS1454     0.0227
     35  C37       61.3490   11.9570   75.7020 C.3   1454  LZS1454     0.0020
     36  C36       62.1800   14.3060   75.7560 C.3   1454  LZS1454     0.0020
     37  C30       63.9290   10.9160   78.3790 C.ar  1454  LZS1454     0.2566
     38  O33       63.8330   11.8830   79.1720 O.2   1454  LZS1454    -0.2673
     39  C28       64.0710    9.5230   78.8850 C.ar  1454  LZS1454     0.0334
     40  C25       64.1140    9.2200   80.3710 C.3   1454  LZS1454     0.0532
     41  C21       63.6930    7.7770   80.6550 C.3   1454  LZS1454     0.1084
@<TRIPOS>BOND
     1     4     2    1
     2     3     2    1
     3     1     2    1
     4     2     5    1
     5    35    34    1
     6    36    34    1
     7    31    30   ar
     8    31    32   ar
     9    34    33    1
    10    33    32    1
    11    30    29   ar
    12     5     6    1
    13    32    37   ar
    14     8     6    2
    15     7     6    2
    16     6     9    1
    17    29    28    1
    18    29    39   ar
    19    28    27    1
    20    37    39   ar
    21    37    38    2
    22    39    40    1
    23     9    10    1
    24    26    10    2
    25    26    25    2
    26    27    25    1
    27    27    41    1
    28    10    11    1
    29    25    24    2
    30    40    41    1
    31    11    23    2
    32    11    12    1
    33    24    12    2
    34    23    17    1
    35    12    13    1
    36    22    20    1
    37    22    21    1
    38    20    21    1
    39    20    19    1
    40    17    18    1
    41    17    14    2
    42    13    14    1
    43    19    18    1
    44    14    15    1
    45    15    16    1
