@<TRIPOS>MOLECULE
2w0x_PD2_A_1.pdb
 12 12 0 0 0
SMALL
GASTEIGER

@<TRIPOS>ATOM
      1  O42       16.4820   25.7290   29.3780 O.co2 1351  PD21351    -0.2406
      2  C41       17.4950   25.1540   28.6100 C.2   1351  PD21351     0.3879
      3  O41       17.1600   24.4080   27.4740 O.co2 1351  PD21351    -0.2406
      4  C4        18.8860   25.7720   28.7470 C.ar  1351  PD21351     0.0830
      5  C5        18.9930   26.9360   29.3280 C.ar  1351  PD21351     0.0273
      6  C6        20.3620   27.5850   29.5190 C.ar  1351  PD21351     0.0993
      7  C3        20.1170   25.0760   28.2330 C.ar  1351  PD21351     0.0325
      8  C2        21.2850   25.6790   28.4120 C.ar  1351  PD21351     0.1610
      9  N1        21.4020   26.9880   29.0930 N.ar  1351  PD21351    -0.2372
     10  C21       22.5390   25.0780   27.8310 C.2   1351  PD21351     0.4051
     11  O21       23.6750   25.8740   27.7280 O.co2 1351  PD21351    -0.2388
     12  O22       22.4720   23.8360   27.1880 O.co2 1351  PD21351    -0.2388
@<TRIPOS>BOND
     1    12    10   ar
     2     3     2   ar
     3    11    10   ar
     4    10     8    1
     5     7     8   ar
     6     7     4   ar
     7     8     9   ar
     8     2     4    1
     9     2     1   ar
    10     4     5   ar
    11     9     6   ar
    12     5     6   ar
