@<TRIPOS>MOLECULE
2w16_PVE_C_1.pdb
 26 28 0 0 0
SMALL
GASTEIGER

@<TRIPOS>ATOM
      1  O23      -69.8680  -26.6170   24.0010 O.co2   1  PVE1       -0.2456
      2  C22      -68.6560  -26.3890   23.7810 C.2     1  PVE1        0.3654
      3  O24      -67.8060  -26.2100   24.7000 O.co2   1  PVE1       -0.2456
      4  C21      -68.2110  -26.3300   22.3270 C.3     1  PVE1        0.1237
      5  C20      -69.0670  -27.2290   21.4320 C.3     1  PVE1        0.0990
      6  C18      -68.7540  -28.6850   21.7280 C.2     1  PVE1        0.2464
      7  O19      -68.5400  -29.0340   22.8880 O.2     1  PVE1       -0.2730
      8  N17      -68.7250  -29.5410   20.6880 N.am    1  PVE1       -0.1717
      9  C3       -68.4450  -30.9050   20.9040 C.2     1  PVE1        0.1553
     10  C4       -67.1530  -31.4180   20.7260 C.2     1  PVE1        0.0276
     11  C10      -66.8970  -32.7810   20.9570 C.ar    1  PVE1        0.0420
     12  C5       -65.5950  -33.2840   20.7790 C.ar    1  PVE1        0.0488
     13  C6       -65.3080  -34.6260   20.9950 C.ar    1  PVE1        0.2345
     14  O25      -64.0800  -35.1820   20.8430 O.3     1  PVE1       -0.2831
     15  C7       -66.3020  -35.4770   21.3920 C.ar    1  PVE1        0.2377
     16  O26      -65.8670  -36.7600   21.5930 O.3     1  PVE1       -0.2830
     17  C8       -67.6260  -34.9940   21.5780 C.ar    1  PVE1        0.0856
     18  C9       -67.9460  -33.6240   21.3640 C.ar    1  PVE1        0.1424
     19  N1       -69.2020  -33.0830   21.5600 N.pl3   1  PVE1       -0.1657
     20  C14      -70.3400  -33.9340   21.9440 C.3     1  PVE1        0.2335
     21  C15      -70.7890  -34.5760   20.6330 C.2     1  PVE1        0.2542
     22  O16      -70.8260  -33.8780   19.6220 O.2     1  PVE1       -0.2839
     23  C2       -69.4650  -31.7590   21.3240 C.2     1  PVE1        0.3383
     24  N11      -70.7110  -31.1980   21.4770 N.2     1  PVE1       -0.0635
     25  C12      -71.9090  -31.8640   21.9770 C.3     1  PVE1        0.2679
     26  C13      -71.4690  -33.1640   22.6450 C.3     1  PVE1        0.1131
@<TRIPOS>BOND
     1    22    21    2
     2    21    20    1
     3     8     9    1
     4     8     6   am
     5    10     9    2
     6    10    11    1
     7    12    11   ar
     8    12    13   ar
     9    14    13    1
    10     9    23    1
    11    11    18   ar
    12    13    15   ar
    13    23    24    2
    14    23    19    1
    15    18    19    1
    16    18    17   ar
    17    15    17   ar
    18    15    16    1
    19     5     6    1
    20     5     4    1
    21    24    25    1
    22    19    20    1
    23     6     7    2
    24    20    26    1
    25    25    26    1
    26     4     2    1
    27     2     1   ar
    28     2     3   ar
