@<TRIPOS>MOLECULE
2w17_I19_A_1.pdb
 33 36 0 0 0
SMALL
GASTEIGER

@<TRIPOS>ATOM
      1  C1         0.1740   28.2800   11.7090 C.3   1300  I191300     0.0245
      2  C2        -0.2090   28.2300   10.2440 C.3   1300  I191300     0.0868
      3  C3        -0.2970   26.8120    9.7030 C.3   1300  I191300     0.0245
      4  N1        -1.4180   29.0130   10.0590 N.ar  1300  I191300    -0.3146
      5  C4        -2.5870   28.7460   10.6610 C.ar  1300  I191300     0.1208
      6  C5        -2.9190   27.6210   11.5880 C.3   1300  I191300     0.0718
      7  N2        -3.4340   29.6980   10.2750 N.ar  1300  I191300    -0.2293
      8  C6        -2.8300   30.5940    9.4110 C.ar  1300  I191300     0.1200
      9  C7        -1.5290   30.1630    9.2640 C.ar  1300  I191300     0.1133
     10  C8        -0.4980   30.8190    8.3970 C.2   1300  I191300     0.1901
     11  N3         0.4720   30.0520    7.8830 N.2   1300  I191300    -0.3323
     12  C9         1.3930   30.6570    7.1190 C.1   1300  I191300     0.1698
     13  N4         2.4590   29.9560    6.5220 N.pl3 1300  I191300    -0.1358
     14  C10        3.1760   28.8200    6.9340 C.ar  1300  I191300     0.0826
     15  C11        2.9520   28.1620    8.1230 C.ar  1300  I191300     0.0175
     16  C12        3.7040   27.0540    8.4590 C.ar  1300  I191300     0.0059
     17  C13        4.6780   26.6030    7.5880 C.ar  1300  I191300     0.0537
     18  C14        4.9410   27.2450    6.3910 C.ar  1300  I191300     0.0059
     19  C15        4.1700   28.3550    6.0870 C.ar  1300  I191300     0.0175
     20  C16        5.5040   25.4540    7.9260 C.2   1300  I191300     0.2491
     21  O1         6.7090   25.6620    7.9600 O.2   1300  I191300    -0.2699
     22  N5         4.9450   24.2200    8.1530 N.am  1300  I191300    -0.2747
     23  C17        3.6290   23.9730    8.6780 C.3   1300  I191300     0.0952
     24  C18        3.6590   22.5010    9.0750 C.3   1300  I191300     0.0392
     25  C19        5.1240   22.1200    9.2560 C.3   1300  I191300     0.0792
     26  C20        5.8920   23.2030    8.5510 C.3   1300  I191300     0.1096
     27  N6         5.5400   22.1920   10.6970 N.3   1300  I191300    -0.2699
     28  C21        4.4970   21.8010   11.6840 C.3   1300  I191300     0.0897
     29  C22        6.7650   21.3790   10.9480 C.3   1300  I191300     0.0897
     30  N7         1.3850   31.9680    6.8370 N.2   1300  I191300    -0.1660
     31  C23        0.4110   32.7080    7.3590 C.2   1300  I191300     0.1440
     32  C24       -0.5610   32.1790    8.1540 C.2   1300  I191300     0.1918
     33  F1        -1.5010   33.0050    8.6410 F     1300  I191300    -0.1997
@<TRIPOS>BOND
     1    19    18   ar
     2    19    14   ar
     3    18    17   ar
     4    13    14    1
     5    13    12    1
     6    30    12    2
     7    30    31    1
     8    14    15   ar
     9    12    11    2
    10    31    32    2
    11    17    20    1
    12    17    16   ar
    13    11    10    2
    14    20    21    2
    15    20    22   am
    16    15    16   ar
    17    22    26    1
    18    22    23    1
    19    32    10    1
    20    32    33    1
    21    10     9    1
    22    26    25    1
    23    23    24    1
    24    24    25    1
    25    25    27    1
    26     9     8   ar
    27     9     4   ar
    28     8     7   ar
    29     3     2    1
    30     4     2    1
    31     4     5   ar
    32     2     1    1
    33     7     5   ar
    34     5     6    1
    35    27    29    1
    36    27    28    1
