@<TRIPOS>MOLECULE
2w1a_TSA_C_1.pdb
 16 17 0 0 0
SMALL
GASTEIGER

@<TRIPOS>ATOM
      1  C2        63.4080  136.0220    7.7570 C.2   1091  TSA1091    -0.0179
      2  C3        62.1590  135.7580    8.1640 C.2   1091  TSA1091     0.0045
      3  C4        61.8240  135.2770    9.5680 C.3   1091  TSA1091     0.2006
      4  O5        61.1270  134.0200    9.5020 O.3   1091  TSA1091    -0.2157
      5  C6        64.2940  134.7330    9.6480 C.3   1091  TSA1091     0.0474
      6  C10       65.8580  135.5680    7.8560 C.2   1091  TSA1091     0.3677
      7  O1        66.0220  136.2140    6.7950 O.co2 1091  TSA1091    -0.2453
      8  O2        66.6990  134.7430    8.2850 O.co2 1091  TSA1091    -0.2453
      9  C9        64.9470  137.1150    9.4640 C.3   1091  TSA1091     0.0562
     10  C8        63.8940  137.5250   10.4940 C.3   1091  TSA1091     0.2185
     11  O7        63.3270  136.3760   11.1820 O.3   1091  TSA1091    -0.3445
     12  C11       62.8700  138.4250    9.8290 C.2   1091  TSA1091     0.3913
     13  O3        61.6690  138.3240   10.1420 O.co2 1091  TSA1091    -0.2430
     14  O4        63.2320  139.2590    8.9710 O.co2 1091  TSA1091    -0.2430
     15  C5        63.0690  135.1500   10.4590 C.3   1091  TSA1091     0.1511
     16  C1        64.6130  135.8510    8.6680 C.3   1091  TSA1091     0.1173
@<TRIPOS>BOND
     1     7     6   ar
     2     1     2    2
     3     1    16    1
     4     6     8   ar
     5     6    16    1
     6     2     3    1
     7    16     9    1
     8    16     5    1
     9    14    12   ar
    10     9    10    1
    11     4     3    1
    12     3    15    1
    13     5    15    1
    14    12    13   ar
    15    12    10    1
    16    15    11    1
    17    10    11    1
