@<TRIPOS>MOLECULE
2w1b_DXC_A_1.pdb
 28 31 0 0 0
SMALL
GASTEIGER

@<TRIPOS>ATOM
      1  C1       -62.6200    3.1830  -60.1740 C.3   2034  DXC2034     0.1520
      2  C2       -61.6980    1.9590  -60.1460 C.3   2034  DXC2034     0.0329
      3  C3       -60.7030    1.9240  -61.3270 C.3   2034  DXC2034     0.0025
      4  C4       -61.3540    2.0800  -62.7280 C.3   2034  DXC2034     0.0002
      5  C5       -62.4100    3.2030  -62.7150 C.3   2034  DXC2034     0.0026
      6  C6       -63.3610    3.2250  -61.5090 C.3   2034  DXC2034     0.0329
      7  C7       -59.7860    0.6930  -61.1980 C.3   2034  DXC2034     0.0001
      8  C8       -60.4300   -0.6100  -61.6830 C.3   2034  DXC2034     0.0000
      9  C9       -61.0720   -0.5080  -63.0760 C.3   2034  DXC2034     0.0002
     10  C10      -61.9780    0.7380  -63.2090 C.3   2034  DXC2034     0.0025
     11  C11      -61.9170   -1.7620  -63.4280 C.3   2034  DXC2034     0.0024
     12  C12      -62.5130   -1.7220  -64.8530 C.3   2034  DXC2034     0.0282
     13  C13      -63.3890   -0.4740  -64.9970 C.3   2034  DXC2034     0.1519
     14  C14      -62.6350    0.8080  -64.6060 C.3   2034  DXC2034     0.0329
     15  C15      -61.3430   -3.2220  -63.1130 C.3   2034  DXC2034     0.0001
     16  C17      -63.2480   -3.0830  -64.8690 C.3   2034  DXC2034     0.0024
     17  C18      -60.2770    2.5560  -63.7170 C.3   2034  DXC2034     0.0000
     18  C19      -64.1700   -3.4110  -66.0860 C.3   2034  DXC2034     0.0006
     19  O1       -64.5760   -0.5920  -64.2010 O.3   2034  DXC2034    -0.2232
     20  O2       -63.5710    3.1170  -59.1040 O.3   2034  DXC2034    -0.2232
     21  C20      -61.4240   -1.6690  -65.9470 C.3   2034  DXC2034     0.0025
     22  C21      -63.6190   -4.4480  -67.0790 C.3   2034  DXC2034     0.0118
     23  C22      -63.9840   -4.1130  -68.5260 C.3   2034  DXC2034     0.1141
     24  C23      -64.8370   -5.2100  -69.1280 C.2   2034  DXC2034     0.3649
     25  O3       -64.4880   -5.7350  -70.2070 O.co2 2034  DXC2034    -0.2457
     26  O4       -65.8740   -5.5540  -68.5280 O.co2 2034  DXC2034    -0.2457
     27  C24      -65.5650   -3.8210  -65.5870 C.3   2034  DXC2034     0.0000
     28  C16      -62.1420   -4.1630  -64.4800 C.3   2034  DXC2034     0.0001
@<TRIPOS>BOND
     1    25    24   ar
     2    24    26   ar
     3    24    23    1
     4    23    22    1
     5    22    18    1
     6    18    27    1
     7    18    16    1
     8    21    12    1
     9    13    12    1
    10    13    14    1
    11    13    19    1
    12    16    12    1
    13    16    28    1
    14    12    11    1
    15    14    10    1
    16    28    15    1
    17    17     4    1
    18    11    15    1
    19    11     9    1
    20    10     9    1
    21    10     4    1
    22     9     8    1
    23     4     5    1
    24     4     3    1
    25     5     6    1
    26     8     7    1
    27     6     1    1
    28     3     7    1
    29     3     2    1
    30     1     2    1
    31     1    20    1
