@<TRIPOS>MOLECULE
2w1d_L0D_A_1.pdb
 22 24 0 0 0
SMALL
GASTEIGER

@<TRIPOS>ATOM
      1  C1         4.9080   30.2520    8.7380 C.ar  1391  L0D1391     0.0230
      2  C2         4.7160   30.5820    7.4530 C.ar  1391  L0D1391    -0.0127
      3  C3         3.9710   31.7240    7.4420 C.ar  1391  L0D1391     0.1375
      4  N4         3.6900   32.1090    8.6910 N.ar  1391  L0D1391    -0.1699
      5  N5         4.2830   31.1830    9.4740 N.ar  1391  L0D1391    -0.2840
      6  C7         3.4860   32.4790    6.3070 C.2   1391  L0D1391     0.2023
      7  N8         3.7280   32.2120    5.0390 N.2   1391  L0D1391    -0.3884
      8  C9         3.0860   33.1480    4.2840 C.2   1391  L0D1391     0.1224
      9  C10        3.0100   33.3360    2.9130 C.3   1391  L0D1391     0.0455
     10  C11        2.2790   34.3830    2.3990 C.2   1391  L0D1391    -0.0731
     11  C12        1.6160   35.2490    3.2440 C.2   1391  L0D1391    -0.0632
     12  C13        1.6830   35.0730    4.6040 C.2   1391  L0D1391    -0.0380
     13  C14        2.4180   34.0220    5.1330 C.2   1391  L0D1391     0.0674
     14  N15        2.6930   33.5700    6.3860 N.pl3 1391  L0D1391    -0.2856
     15  HN5        4.2430   31.2230   10.3070 H     1391  L0D1391     0.1882
     16 HN15        2.3950   33.9330    7.1380 H     1391  L0D1391     0.1547
     17  H1         5.3880   29.5130    9.0880 H     1391  L0D1391     0.0824
     18  H2         5.0350   30.1160    6.6920 H     1391  L0D1391     0.0656
     19  H10        3.4670   32.7380    2.3280 H     1391  L0D1391     0.0427
     20  H11        2.2290   34.5090    1.4550 H     1391  L0D1391     0.0579
     21  H12        1.1110   35.9720    2.8820 H     1391  L0D1391     0.0615
     22  H13        1.2270   35.6720    5.1870 H     1391  L0D1391     0.0637
@<TRIPOS>BOND
     1    20    10    1
     2    19     9    1
     3    10     9    1
     4    10    11    2
     5    21    11    1
     6     9     8    1
     7    11    12    1
     8     8     7    2
     9     8    13    1
    10    12    13    2
    11    12    22    1
    12     7     6    2
    13    13    14    1
    14     6    14    1
    15     6     3    1
    16    14    16    1
    17    18     2    1
    18     3     2   ar
    19     3     4   ar
    20     2     1   ar
    21     4     5   ar
    22     1    17    1
    23     1     5   ar
    24     5    15    1
