@<TRIPOS>MOLECULE
2w1f_L0F_A_1.pdb
 36 39 0 0 0
SMALL
GASTEIGER

@<TRIPOS>ATOM
      1  O1         5.8270   27.9170    7.0700 O.2   1390  L0F1390    -0.2699
      2  C2         5.9200   28.7440    6.1860 C.2   1390  L0F1390     0.2483
      3  N3         5.5910   30.0460    6.3770 N.am  1390  L0F1390    -0.2784
      4  C4         5.0010   30.5790    7.4880 C.ar  1390  L0F1390     0.0832
      5  C5         5.1520   30.2540    8.7980 C.ar  1390  L0F1390     0.0443
      6  N6         4.3500   31.0720    9.4960 N.ar  1390  L0F1390    -0.2822
      7  N8         3.6820   31.9180    8.6870 N.ar  1390  L0F1390    -0.1680
      8  C9         4.0800   31.6120    7.4690 C.ar  1390  L0F1390     0.1586
      9  C10        3.5410   32.3510    6.3540 C.2   1390  L0F1390     0.2041
     10  N11        3.5740   31.9760    5.0860 N.2   1390  L0F1390    -0.3883
     11  C12        2.9600   32.9500    4.3490 C.2   1390  L0F1390     0.1224
     12  C13        2.7220   33.0660    2.9890 C.3   1390  L0F1390     0.0455
     13  C14        2.0680   34.1710    2.4950 C.2   1390  L0F1390    -0.0731
     14  C15        1.6450   35.1660    3.3500 C.2   1390  L0F1390    -0.0632
     15  C16        1.8700   35.0630    4.7010 C.2   1390  L0F1390    -0.0380
     16  C17        2.5300   33.9580    5.2140 C.2   1390  L0F1390     0.0674
     17  N18        2.9140   33.5460    6.4530 N.pl3 1390  L0F1390    -0.2855
     18  C20        6.4080   28.3560    4.8230 C.ar  1390  L0F1390     0.0370
     19  C21        6.6050   29.3200    3.8280 C.ar  1390  L0F1390    -0.0496
     20  C22        7.0520   28.9460    2.5840 C.ar  1390  L0F1390    -0.0610
     21  C23        7.3060   27.6200    2.3110 C.ar  1390  L0F1390    -0.0617
     22  C24        7.1160   26.6600    3.2840 C.ar  1390  L0F1390    -0.0610
     23  C25        6.6710   27.0200    4.5310 C.ar  1390  L0F1390    -0.0496
     24  H7         4.2470   31.0900   10.3310 H     1390  L0F1390     0.1883
     25  H19        2.7730   33.9800    7.1930 H     1390  L0F1390     0.1547
     26  H26        5.8410   30.6080    5.7820 H     1390  L0F1390     0.1552
     27  H27        5.7070   29.5870    9.1790 H     1390  L0F1390     0.0843
     28  H28        3.0150   32.3780    2.3970 H     1390  L0F1390     0.0427
     29  H29        1.9050   34.2480    1.5600 H     1390  L0F1390     0.0579
     30  H30        1.1900   35.9280    3.0020 H     1390  L0F1390     0.0615
     31  H31        1.5790   35.7510    5.2870 H     1390  L0F1390     0.0637
     32  H32        6.4290   30.2300    4.0130 H     1390  L0F1390     0.0625
     33  H33        7.1840   29.6040    1.9080 H     1390  L0F1390     0.0618
     34  H34        7.6160   27.3650    1.4470 H     1390  L0F1390     0.0618
     35  H35        7.2940   25.7490    3.0910 H     1390  L0F1390     0.0618
     36  H36        6.5420   26.3640    5.1940 H     1390  L0F1390     0.0625
@<TRIPOS>BOND
     1    34    21    1
     2    29    13    1
     3    33    20    1
     4    21    20   ar
     5    21    22   ar
     6    28    12    1
     7    13    12    1
     8    13    14    2
     9    20    19   ar
    10    12    11    1
    11    30    14    1
    12    35    22    1
    13    22    23   ar
    14    14    15    1
    15    19    32    1
    16    19    18   ar
    17    11    10    2
    18    11    16    1
    19    23    18   ar
    20    23    36    1
    21    15    16    2
    22    15    31    1
    23    18     2    1
    24    10     9    2
    25    16    17    1
    26    26     3    1
    27     2     3   am
    28     2     1    2
    29     9    17    1
    30     9     8    1
    31     3     4    1
    32    17    25    1
    33     8     4   ar
    34     8     7   ar
    35     4     5   ar
    36     7     6   ar
    37     5    27    1
    38     5     6   ar
    39     6    24    1
