@<TRIPOS>MOLECULE
2w1h_L0F_A_1.pdb
 23 26 0 0 0
SMALL
GASTEIGER

@<TRIPOS>ATOM
      1  O1        25.0260    4.8190   61.2940 O.2   1299  L0F1299    -0.2680
      2  C2        25.9070    5.6680   61.3390 C.2   1299  L0F1299     0.2691
      3  N3        27.0100    5.5190   62.1420 N.am  1299  L0F1299    -0.1714
      4  C4        27.2970    4.4190   63.0120 C.2   1299  L0F1299     0.1255
      5  C5        26.6310    3.2320   63.1380 C.2   1299  L0F1299     0.1410
      6  N6        27.2690    2.4930   64.0800 N.2   1299  L0F1299    -0.1442
      7  N8        28.3610    3.2320   64.5520 N.2   1299  L0F1299    -0.1342
      8  C9        28.3880    4.3870   63.9150 C.2   1299  L0F1299     0.2043
      9  C10       29.3760    5.4740   64.1070 C.1   1299  L0F1299     0.1597
     10  N11       29.3500    6.6260   63.4740 N.2   1299  L0F1299    -0.3360
     11  C12       30.3780    7.3990   63.8830 C.ar  1299  L0F1299     0.1741
     12  C13       30.8370    8.7020   63.5170 C.ar  1299  L0F1299     0.0357
     13  C14       31.9710    9.2350   64.1270 C.ar  1299  L0F1299     0.0028
     14  C15       32.7020    8.4790   65.0700 C.ar  1299  L0F1299     0.0028
     15  C16       32.2740    7.1910   65.4390 C.ar  1299  L0F1299     0.0357
     16  C17       31.1290    6.6250   64.8220 C.ar  1299  L0F1299     0.1741
     17  N18       30.4510    5.4290   64.9570 N.2   1299  L0F1299    -0.3360
     18  C20       25.7930    6.9020   60.5020 C.ar  1299  L0F1299     0.0554
     19  C21       24.9050    6.9450   59.3860 C.ar  1299  L0F1299     0.0046
     20  C22       24.8040    8.1130   58.6030 C.ar  1299  L0F1299     0.0001
     21  C23       25.5790    9.2480   58.9200 C.ar  1299  L0F1299     0.0000
     22  C24       26.4620    9.2210   60.0220 C.ar  1299  L0F1299     0.0001
     23  C25       26.5720    8.0580   60.8140 C.ar  1299  L0F1299     0.0046
@<TRIPOS>BOND
     1    20    21   ar
     2    20    19   ar
     3    21    22   ar
     4    19    18   ar
     5    22    23   ar
     6    18    23   ar
     7    18     2    1
     8     1     2    2
     9     2     3    1
    10     3     4    2
    11     4     5    1
    12     4     8    1
    13     5     6    2
    14    10    11    2
    15    10     9    2
    16    12    11   ar
    17    12    13   ar
    18    11    16   ar
    19     8     9    1
    20     8     7    2
    21     6     7    1
    22     9    17    2
    23    13    14   ar
    24    16    17    2
    25    16    15   ar
    26    14    15   ar
