@<TRIPOS>MOLECULE
2w1u_NGA_A_1.pdb
 15 15 0 0 0
SMALL
GASTEIGER

@<TRIPOS>ATOM
      1  C1         8.3390  -43.8510  -15.2810 C.3   1947  NGA1947     0.2917
      2  C2         7.0700  -43.0120  -15.2710 C.3   1947  NGA1947     0.1871
      3  C3         6.6040  -42.8490  -13.8200 C.3   1947  NGA1947     0.2095
      4  C4         6.4920  -44.2340  -13.1530 C.3   1947  NGA1947     0.2136
      5  C5         7.7680  -45.0730  -13.3730 C.3   1947  NGA1947     0.1835
      6  C6         7.6960  -46.4940  -12.8360 C.3   1947  NGA1947     0.2142
      7  C7         6.8140  -41.2140  -16.9720 C.2   1947  NGA1947     0.2421
      8  C8         7.5070  -40.0080  -17.5180 C.3   1947  NGA1947     0.0964
      9  N2         7.4580  -41.8060  -15.9750 N.am  1947  NGA1947    -0.1991
     10  O1         8.7020  -43.9880  -16.6440 O.3   1947  NGA1947    -0.1879
     11  O3         5.3600  -42.1160  -13.7900 O.3   1947  NGA1947    -0.2183
     12  O4         5.3070  -44.9210  -13.5940 O.3   1947  NGA1947    -0.2176
     13  O5         8.0760  -45.1480  -14.7610 O.3   1947  NGA1947    -0.3242
     14  O6         6.5950  -47.1090  -13.4970 O.3   1947  NGA1947    -0.2176
     15  O7         5.7360  -41.5880  -17.4020 O.2   1947  NGA1947    -0.2733
@<TRIPOS>BOND
     1     8     7    1
     2    15     7    2
     3     7     9   am
     4    10     1    1
     5     9     2    1
     6     1     2    1
     7     1    13    1
     8     2     3    1
     9    13     5    1
    10     3    11    1
    11     3     4    1
    12    12     4    1
    13    14     6    1
    14     5     4    1
    15     5     6    1
