@<TRIPOS>MOLECULE
2w1u_NAG_A_1.pdb
 14 14 0 0 0
SMALL
GASTEIGER

@<TRIPOS>ATOM
      1  C1         5.1080  -41.4590  -12.5400 C.3   1946  NAG1946     0.1665
      2  C2         4.0210  -40.4410  -12.7870 C.3   1946  NAG1946     0.1576
      3  C3         3.6750  -39.6830  -11.5010 C.3   1946  NAG1946     0.2069
      4  C4         3.3760  -40.6840  -10.4000 C.3   1946  NAG1946     0.2134
      5  C5         4.5320  -41.6890  -10.2540 C.3   1946  NAG1946     0.1809
      6  C6         4.2070  -42.7860   -9.2750 C.3   1946  NAG1946     0.2141
      7  C7         3.8370  -39.4310  -14.9950 C.2   1946  NAG1946     0.2420
      8  C8         4.3220  -38.3470  -15.9150 C.3   1946  NAG1946     0.0964
      9  N2         4.4570  -39.5290  -13.8230 N.am  1946  NAG1946    -0.2019
     10  O3         2.5780  -38.8060  -11.7140 O.3   1946  NAG1946    -0.2184
     11  O4         3.1440  -40.0090   -9.1950 O.3   1946  NAG1946    -0.2176
     12  O5         4.7660  -42.3470  -11.4820 O.3   1946  NAG1946    -0.3489
     13  O6         3.0570  -43.4440   -9.7580 O.3   1946  NAG1946    -0.2176
     14  O7         2.9130  -40.1760  -15.3140 O.2   1946  NAG1946    -0.2733
@<TRIPOS>BOND
     1     8     7    1
     2    14     7    2
     3     7     9   am
     4     9     2    1
     5     2     1    1
     6     2     3    1
     7     1    12    1
     8    10     3    1
     9     3     4    1
    10    12     5    1
    11     4     5    1
    12     4    11    1
    13     5     6    1
    14    13     6    1
