@<TRIPOS>MOLECULE
2w22_EGC_A_1.pdb
 20 19 0 0 0
SMALL
GASTEIGER

@<TRIPOS>ATOM
      1  O1        23.8070  -15.4560  -17.4490 O.3   403  EGC403     -0.2176
      2  C2        23.1200  -14.3590  -18.0420 C.3   403  EGC403      0.2140
      3  C3        22.9500  -14.6450  -19.5200 C.3   403  EGC403      0.1777
      4  O4        23.1160  -13.4280  -20.2210 O.3   403  EGC403     -0.3483
      5  C5        22.9790  -13.5860  -21.6210 C.3   403  EGC403      0.1742
      6  C6        23.1650  -12.2150  -22.2570 C.3   403  EGC403      0.1742
      7  O7        24.2010  -12.2500  -23.2210 O.3   403  EGC403     -0.3484
      8  C8        24.3730  -10.9680  -23.8100 C.3   403  EGC403      0.1742
      9  C9        25.4800  -11.0310  -24.8380 C.3   403  EGC403      0.1742
     10  O10       26.5540  -10.2050  -24.4170 O.3   403  EGC403     -0.3484
     11  C11       27.6170  -10.2270  -25.3590 C.3   403  EGC403      0.1742
     12  C12       28.7440   -9.3400  -24.8730 C.3   403  EGC403      0.1742
     13  C14       30.8560   -9.3490  -23.9280 C.3   403  EGC403      0.1742
     14  C15       31.9790  -10.2280  -23.3990 C.3   403  EGC403      0.1742
     15  C17       33.3820  -12.0050  -23.8760 C.3   403  EGC403      0.1742
     16  C18       33.7490  -13.0370  -24.9380 C.3   403  EGC403      0.1742
     17  C20       35.4790  -13.9960  -23.6160 C.3   403  EGC403      0.1742
     18  O13       29.7910  -10.1680  -24.3830 O.3   403  EGC403     -0.3484
     19  O16       32.3310  -11.1930  -24.3810 O.3   403  EGC403     -0.3484
     20  O19       35.1380  -13.4040  -24.8770 O.3   403  EGC403     -0.3484
@<TRIPOS>BOND
     1    11    12    1
     2    11    10    1
     3    16    20    1
     4    16    15    1
     5    20    17    1
     6    12    18    1
     7     9    10    1
     8     9     8    1
     9    18    13    1
    10    19    15    1
    11    19    14    1
    12    13    14    1
    13     8     7    1
    14     7     6    1
    15     6     5    1
    16     5     4    1
    17     4     3    1
    18     3     2    1
    19     2     1    1
