@<TRIPOS>MOLECULE
2w23_HEM_A_1.pdb
 43 50 0 0 0
SMALL
GASTEIGER

@<TRIPOS>ATOM
      1 FE         -1.5140   18.4290   24.3700 Fe    1316  HEM1316     0.0000
      2  CHA       -3.3410   15.9410   26.0120 C.2   1316  HEM1316     0.0000
      3  CHB       -4.3480   20.3840   24.2740 C.2   1316  HEM1316     0.0000
      4  CHC        0.3590   21.1710   23.3160 C.2   1316  HEM1316     0.0000
      5  CHD        1.4190   16.7950   25.1800 C.2   1316  HEM1316     0.0000
      6  NA        -3.4600   18.2140   25.0520 N.ar  1316  HEM1316     0.0000
      7  C1A       -4.0050   17.1000   25.6630 C.ar  1316  HEM1316     0.0000
      8  C2A       -5.4130   17.3320   25.8530 C.ar  1316  HEM1316     0.0000
      9  C3A       -5.7070   18.5540   25.3780 C.ar  1316  HEM1316     0.0000
     10  C4A       -4.4770   19.1340   24.8670 C.ar  1316  HEM1316     0.0000
     11  CMA       -7.0940   19.2470   25.3810 C.3   1316  HEM1316     0.0000
     12  CAA       -6.3570   16.3020   26.5010 C.3   1316  HEM1316     0.0000
     13  CBA       -6.5050   16.5770   28.0000 C.3   1316  HEM1316     0.0000
     14  CGA       -7.6410   15.7280   28.5530 C.2   1316  HEM1316     0.0000
     15  O1A       -8.8250   16.0560   28.2970 O.co2 1316  HEM1316     0.0000
     16  O2A       -7.3680   14.7100   29.2400 O.co2 1316  HEM1316     0.0000
     17  NB        -1.9110   20.4340   23.9180 N.2   1316  HEM1316     0.0000
     18  C1B       -3.1840   20.9720   23.8290 C.2   1316  HEM1316     0.0000
     19  C2B       -3.0770   22.2700   23.1930 C.2   1316  HEM1316     0.0000
     20  C3B       -1.7810   22.4880   22.9190 C.2   1316  HEM1316     0.0000
     21  C4B       -1.0180   21.3340   23.3670 C.2   1316  HEM1316     0.0000
     22  CMB       -4.2540   23.2090   22.8610 C.3   1316  HEM1316     0.0000
     23  CAB       -1.2120   23.7510   22.2330 C.2   1316  HEM1316     0.0000
     24  CBB       -0.0960   23.7210   21.5000 C.2   1316  HEM1316     0.0000
     25  NC         0.5290   18.9120   24.3090 N.ar  1316  HEM1316     0.0000
     26  C1C        1.0630   20.0890   23.8100 C.ar  1316  HEM1316     0.0000
     27  C2C        2.5070   19.9620   23.8570 C.ar  1316  HEM1316     0.0000
     28  C3C        2.8230   18.7630   24.3680 C.ar  1316  HEM1316     0.0000
     29  C4C        1.5650   18.0750   24.6730 C.ar  1316  HEM1316     0.0000
     30  CMC        3.4860   21.0560   23.3810 C.3   1316  HEM1316     0.0000
     31  CAC        4.2770   18.2510   24.5580 C.2   1316  HEM1316     0.0000
     32  CBC        4.6100   17.5550   25.6350 C.2   1316  HEM1316     0.0000
     33  ND        -1.0360   16.6850   25.5200 N.2   1316  HEM1316     0.0000
     34  C1D        0.2440   16.1290   25.4440 C.2   1316  HEM1316     0.0000
     35  C2D        0.1510   14.7170   25.7040 C.2   1316  HEM1316     0.0000
     36  C3D       -1.3210   14.4490   25.9840 C.2   1316  HEM1316     0.0000
     37  C4D       -1.9860   15.7240   25.8470 C.2   1316  HEM1316     0.0000
     38  CMD        1.2970   13.6900   25.7070 C.3   1316  HEM1316     0.0000
     39  CAD       -1.9460   13.0850   26.3120 C.3   1316  HEM1316     0.0000
     40  CBD       -2.0910   12.9950   27.8380 C.3   1316  HEM1316     0.0000
     41  CGD       -2.6290   11.6280   28.2430 C.2   1316  HEM1316     0.0000
     42  O1D       -2.9250   10.7710   27.3760 O.co2 1316  HEM1316     0.0000
     43  O2D       -2.7370   11.3670   29.4630 O.co2 1316  HEM1316     0.0000
@<TRIPOS>BOND
     1    24    23    2
     2    23    20    1
     3    22    19    1
     4    20    19    2
     5    20    21    1
     6    19    18    1
     7     4    21    2
     8     4    26    1
     9    21    17    1
    10    30    27    1
    11    26    27   ar
    12    26    25   ar
    13    18    17    2
    14    18     3    1
    15    27    28   ar
    16    17     1    1
    17     3    10    2
    18    25     1    1
    19    25    29   ar
    20    28    31    1
    21    28    29   ar
    22     1     6    1
    23     1    33    1
    24    31    32    2
    25    29     5    1
    26    10     6   ar
    27    10     9   ar
    28     6     7   ar
    29     5    34    2
    30     9    11    1
    31     9     8   ar
    32    34    33    1
    33    34    35    1
    34    33    37    2
    35     7     8   ar
    36     7     2    2
    37    35    38    1
    38    35    36    2
    39    37    36    1
    40    37     2    1
    41     8    12    1
    42    36    39    1
    43    39    40    1
    44    12    13    1
    45    42    41   ar
    46    40    41    1
    47    13    14    1
    48    41    43   ar
    49    15    14   ar
    50    14    16   ar
