@<TRIPOS>MOLECULE
2w27_5GP_A_1.pdb
 23 25 0 0 0
SMALL
GASTEIGER

@<TRIPOS>ATOM
      1  P         19.5540   63.9740   83.4720 P.3   501  5GP501      0.3942
      2  O1P       20.6930   63.1970   84.0560 O.3   501  5GP501     -0.1425
      3  O2P       19.5860   64.2100   81.9880 O.3   501  5GP501     -0.1425
      4  O5'       18.2570   63.0820   83.7680 O.3   501  5GP501     -0.2926
      5  C5'       17.3440   62.8410   82.7180 C.3   501  5GP501      0.1830
      6  C4'       15.9530   63.1090   83.2340 C.3   501  5GP501      0.1800
      7  O4'       15.0670   62.5400   82.2840 O.3   501  5GP501     -0.3326
      8  C3'       15.5960   62.4940   84.5690 C.3   501  5GP501      0.2158
      9  O3'       14.6760   63.4040   85.1870 O.3   501  5GP501     -0.2175
     10  C2'       14.8110   61.2540   84.2160 C.3   501  5GP501      0.2310
     11  O2'       13.8110   60.9970   85.2110 O.3   501  5GP501     -0.2158
     12  C1'       14.1510   61.6590   82.9100 C.3   501  5GP501      0.2293
     13  N9        13.8450   60.6000   81.9280 N.pl3 501  5GP501     -0.2354
     14  C8        14.1400   59.3010   81.9530 C.3   501  5GP501      0.2246
     15  N7        13.6610   58.7170   80.8330 N.2   501  5GP501     -0.2322
     16  C5        13.0660   59.6820   80.1040 C.2   501  5GP501      0.2182
     17  C6        12.4090   59.7000   78.8710 C.1   501  5GP501      0.2372
     18  O6        12.2740   58.6420   78.2050 O.2   501  5GP501     -0.2069
     19  N1        11.9170   60.8750   78.4170 N.2   501  5GP501     -0.2485
     20  C2        12.0540   62.0130   79.1370 C.1   501  5GP501      0.2531
     21  N2        11.5520   63.1790   78.6510 N.pl3 501  5GP501     -0.0226
     22  N3        12.6870   62.0200   80.3380 N.2   501  5GP501     -0.3074
     23  C4        13.1910   60.8640   80.8130 C.2   501  5GP501      0.2300
@<TRIPOS>BOND
     1    18    17    2
     2    19    17    2
     3    19    20    2
     4    21    20    1
     5    17    16    1
     6    20    22    2
     7    16    23    1
     8    16    15    2
     9    22    23    2
    10    23    13    1
    11    15    14    1
    12    13    14    1
    13    13    12    1
    14     3     1    1
    15     7    12    1
    16     7     6    1
    17     5     6    1
    18     5     4    1
    19    12    10    1
    20     6     8    1
    21     1     4    1
    22     1     2    1
    23    10     8    1
    24    10    11    1
    25     8     9    1
