@<TRIPOS>MOLECULE
2w2i_PD2_A_1.pdb
 12 12 0 0 0
SMALL
GASTEIGER

@<TRIPOS>ATOM
      1  O42       10.9860   35.0150   86.1640 O.co2 602  PD2602     -0.2406
      2  C41       10.6850   36.2190   86.1970 C.2   602  PD2602      0.3879
      3  O41       10.7930   37.0110   85.2560 O.co2 602  PD2602     -0.2406
      4  C4        10.2150   36.8390   87.5140 C.ar  602  PD2602      0.0830
      5  C5        10.7780   36.3560   88.6920 C.ar  602  PD2602      0.0273
      6  C6        10.4080   36.8820   89.9140 C.ar  602  PD2602      0.0993
      7  C3         9.2600   37.8660   87.5340 C.ar  602  PD2602      0.0325
      8  C2         8.9330   38.3660   88.8240 C.ar  602  PD2602      0.1610
      9  N1         9.5120   37.8350   89.9290 N.ar  602  PD2602     -0.2372
     10  C21        7.8890   39.3990   89.0310 C.2   602  PD2602      0.4051
     11  O21        7.4640   40.0080   88.0200 O.co2 602  PD2602     -0.2388
     12  O22        7.3770   39.4730   90.2170 O.co2 602  PD2602     -0.2388
@<TRIPOS>BOND
     1     3     2   ar
     2     1     2   ar
     3     2     4    1
     4     4     7   ar
     5     4     5   ar
     6     7     8   ar
     7    11    10   ar
     8     5     6   ar
     9     8    10    1
    10     8     9   ar
    11    10    12   ar
    12     6     9   ar
