@<TRIPOS>MOLECULE
2w2l_NAD_A_1.pdb
 44 48 0 0 0
SMALL
GASTEIGER

@<TRIPOS>ATOM
      1  PA        22.3700   -3.9210   28.0540 P.3   1347  NAD1347     0.2189
      2  O1A       23.4930   -3.8660   29.0180 O.3   1347  NAD1347    -0.4371
      3  O2A       22.1640   -2.6370   27.3020 O.2   1347  NAD1347    -0.5170
      4  O5B       21.0660   -4.4770   28.8280 O.3   1347  NAD1347    -0.3112
      5  C5B       21.0320   -4.5800   30.2300 C.3   1347  NAD1347     0.1813
      6  C4B       20.1900   -3.4710   30.8480 C.3   1347  NAD1347     0.1821
      7  O4B       19.6840   -3.9450   32.0750 O.3   1347  NAD1347    -0.3135
      8  C3B       20.9970   -2.2200   31.1820 C.3   1347  NAD1347     0.2184
      9  O3B       20.2310   -1.0700   30.9420 O.3   1347  NAD1347    -0.2174
     10  C2B       21.2540   -2.2840   32.6720 C.3   1347  NAD1347     0.2570
     11  O2B       21.1750   -0.9770   33.2030 O.3   1347  NAD1347    -0.2130
     12  C1B       20.1550   -3.2050   33.1840 C.3   1347  NAD1347     0.3186
     13  N9A       20.5400   -4.2380   34.1650 N.pl3 1347  NAD1347    -0.1439
     14  C8A       21.7470   -4.8840   34.3130 C.3   1347  NAD1347     0.3377
     15  N7A       21.6290   -5.7990   35.3070 N.2   1347  NAD1347    -0.2095
     16  C5A       20.3700   -5.7460   35.7830 C.2   1347  NAD1347     0.2526
     17  C6A       19.7340   -6.4370   36.7790 C.2   1347  NAD1347     0.4393
     18  N6A       20.4390   -7.3410   37.4610 N.pl3 1347  NAD1347     0.2180
     19  N1A       18.4050   -6.1880   37.0790 N.2   1347  NAD1347     0.0021
     20  C2A       17.7020   -5.2400   36.3740 C.3   1347  NAD1347     0.5254
     21  N3A       18.3660   -4.5290   35.3880 N.2   1347  NAD1347    -0.0055
     22  C4A       19.6690   -4.7830   35.0870 C.2   1347  NAD1347     0.3518
     23  O3        22.6820   -5.0820   27.0040 O.3   1347  NAD1347    -0.2703
     24  PN        21.5190   -5.6010   26.0190 P.3   1347  NAD1347     0.2189
     25  O1N       20.5580   -4.5430   25.6320 O.3   1347  NAD1347    -0.4371
     26  O2N       22.2770   -6.2700   24.9350 O.2   1347  NAD1347    -0.5170
     27  O5D       20.7670   -6.6580   26.9920 O.3   1347  NAD1347    -0.3112
     28  C5D       21.4670   -7.7430   27.5260 C.3   1347  NAD1347     0.1813
     29  C4D       20.7310   -9.0480   27.2600 C.3   1347  NAD1347     0.1799
     30  O4D       20.2910   -9.2110   25.9030 O.3   1347  NAD1347    -0.3327
     31  C3D       21.6620  -10.2240   27.5830 C.3   1347  NAD1347     0.2158
     32  O3D       21.0280  -11.2100   28.3910 O.3   1347  NAD1347    -0.2175
     33  C2D       21.9570  -10.8140   26.2180 C.3   1347  NAD1347     0.2309
     34  O2D       22.2200  -12.1980   26.2490 O.3   1347  NAD1347    -0.2158
     35  C1D       20.6390  -10.5520   25.5030 C.3   1347  NAD1347     0.2263
     36  N1N       20.8070  -10.8590   24.0590 N.pl3 1347  NAD1347    -0.2787
     37  C2N       20.3340  -12.0690   23.5780 C.3   1347  NAD1347     0.1244
     38  C3N       20.4680  -12.4020   22.2250 C.2   1347  NAD1347     0.0544
     39  C7N       19.5700  -13.4200   21.5610 C.2   1347  NAD1347     0.2818
     40  O7N       20.0420  -13.9430   20.3390 O.2   1347  NAD1347    -0.2670
     41  N7N       18.3750  -13.7980   22.0800 N.am  1347  NAD1347    -0.0839
     42  C4N       21.1200  -11.4860   21.3910 C.2   1347  NAD1347     0.0033
     43  C5N       21.6240  -10.2690   21.8660 C.2   1347  NAD1347     0.0157
     44  C6N       21.4630   -9.9710   23.2210 C.2   1347  NAD1347     0.0633
@<TRIPOS>BOND
     1    40    39    2
     2    42    43    1
     3    42    38    2
     4    39    41   am
     5    39    38    1
     6    43    44    2
     7    38    37    1
     8    44    36    1
     9    37    36    1
    10    36    35    1
    11    26    24    2
    12    35    30    1
    13    35    33    1
    14    25    24    1
    15    30    29    1
    16    24    27    1
    17    24    23    1
    18    33    34    1
    19    33    31    1
    20    27    28    1
    21    23     1    1
    22    29    28    1
    23    29    31    1
    24     3     1    2
    25    31    32    1
    26     1     4    1
    27     1     2    1
    28     4     5    1
    29     5     6    1
    30     6     8    1
    31     6     7    1
    32     9     8    1
    33     8    10    1
    34     7    12    1
    35    10    12    1
    36    10    11    1
    37    12    13    1
    38    13    14    1
    39    13    22    1
    40    14    15    1
    41    22    21    2
    42    22    16    1
    43    15    16    2
    44    21    20    1
    45    16    17    1
    46    20    19    1
    47    17    19    2
    48    17    18    1
