@<TRIPOS>MOLECULE
2w2t_GDP_A_1.pdb
 28 30 0 0 0
SMALL
GASTEIGER

@<TRIPOS>ATOM
      1  PB       -11.7570  -30.0300   19.0450 P.3   1181  GDP1181     0.5373
      2  O1B      -11.2270  -28.9370   19.9360 O.3   1181  GDP1181    -0.1143
      3  O2B      -12.9700  -30.7400   19.6660 O.3   1181  GDP1181    -0.1143
      4  O3B      -12.0100  -29.1060   17.8200 O.2   1181  GDP1181    -0.2221
      5  O3A      -10.5790  -31.1210   18.7550 O.3   1181  GDP1181    -0.2261
      6  PA        -9.2740  -31.5310   19.7400 P.3   1181  GDP1181     0.2231
      7  O1A       -8.3120  -30.3930   19.7600 O.2   1181  GDP1181    -0.5169
      8  O2A       -9.8850  -32.0770   21.0080 O.3   1181  GDP1181    -0.4370
      9  O5'       -8.7770  -32.7160   18.7660 O.3   1181  GDP1181    -0.3111
     10  C5'       -9.6670  -33.7860   18.4810 C.3   1181  GDP1181     0.1813
     11  C4'       -8.9120  -35.0680   18.1510 C.3   1181  GDP1181     0.1799
     12  O4'       -8.0870  -34.7980   17.0460 O.3   1181  GDP1181    -0.3326
     13  C3'       -7.9550  -35.4750   19.2760 C.3   1181  GDP1181     0.2158
     14  O3'       -7.9930  -36.8980   19.2940 O.3   1181  GDP1181    -0.2175
     15  C2'       -6.5690  -34.9730   18.8600 C.3   1181  GDP1181     0.2310
     16  O2'       -5.4660  -35.7790   19.3620 O.3   1181  GDP1181    -0.2158
     17  C1'       -6.6920  -34.9750   17.3540 C.3   1181  GDP1181     0.2293
     18  N9        -5.8880  -33.9000   16.6690 N.pl3 1181  GDP1181    -0.2354
     19  C8        -5.9270  -32.5570   16.8390 C.3   1181  GDP1181     0.2246
     20  N7        -5.0830  -31.8610   16.0390 N.2   1181  GDP1181    -0.2322
     21  C5        -4.4380  -32.8160   15.3550 C.2   1181  GDP1181     0.2182
     22  C6        -3.3650  -32.8280   14.3420 C.1   1181  GDP1181     0.2372
     23  O6        -2.8940  -31.7270   14.0030 O.2   1181  GDP1181    -0.2069
     24  N1        -2.9740  -34.0350   13.8840 N.2   1181  GDP1181    -0.2485
     25  C2        -3.5140  -35.2250   14.2710 C.1   1181  GDP1181     0.2531
     26  N2        -3.1080  -36.4300   13.7760 N.pl3 1181  GDP1181    -0.0226
     27  N3        -4.4760  -35.2870   15.2050 N.2   1181  GDP1181    -0.3074
     28  C4        -4.9450  -34.1440   15.7800 C.2   1181  GDP1181     0.2300
@<TRIPOS>BOND
     1    26    25    1
     2    24    25    2
     3    24    22    2
     4    23    22    2
     5    25    27    2
     6    22    21    1
     7    27    28    2
     8    21    28    1
     9    21    20    2
    10    28    18    1
    11    20    19    1
    12    18    19    1
    13    18    17    1
    14    12    17    1
    15    12    11    1
    16    17    15    1
    17     4     1    2
    18    11    10    1
    19    11    13    1
    20    10     9    1
    21     5     1    1
    22     5     6    1
    23     9     6    1
    24    15    13    1
    25    15    16    1
    26     1     3    1
    27     1     2    1
    28    13    14    1
    29     6     7    2
    30     6     8    1
