@<TRIPOS>MOLECULE
2w2v_GTP_A_1.pdb
 32 34 0 0 0
SMALL
GASTEIGER

@<TRIPOS>ATOM
      1  PG         9.6640   -1.8630   37.9970 P.3   500  GTP500      0.5373
      2  O1G        8.8510   -2.7810   37.1140 O.2   500  GTP500     -0.2221
      3  O2G        9.7520   -0.4880   37.3840 O.3   500  GTP500     -0.1143
      4  O3G       11.0800   -2.3990   38.1260 O.3   500  GTP500     -0.1143
      5  O3B        9.0080   -1.7340   39.4680 O.3   500  GTP500     -0.2258
      6  PB         9.4170   -2.7620   40.6340 P.3   500  GTP500      0.2277
      7  O1B        9.7700   -1.9710   41.8770 O.3   500  GTP500     -0.4368
      8  O2B       10.5950   -3.5960   40.1960 O.2   500  GTP500     -0.5168
      9  O3A        8.1430   -3.6920   40.9630 O.3   500  GTP500     -0.2700
     10  PA         6.9890   -4.0940   39.9200 P.3   500  GTP500      0.2189
     11  O1A        5.8710   -3.0890   39.9910 O.3   500  GTP500     -0.4371
     12  O2A        7.5200   -4.2240   38.5100 O.2   500  GTP500     -0.5170
     13  O5'        6.4750   -5.5290   40.4250 O.3   500  GTP500     -0.3112
     14  C5'        7.2090   -6.2800   41.3630 C.3   500  GTP500      0.1813
     15  C4'        6.4150   -7.5270   41.7330 C.3   500  GTP500      0.1799
     16  O4'        5.6900   -7.2170   42.9020 O.3   500  GTP500     -0.3326
     17  C3'        5.3990   -7.9030   40.6680 C.3   500  GTP500      0.2158
     18  O3'        5.6270   -9.2220   40.2290 O.3   500  GTP500     -0.2175
     19  C2'        4.0440   -7.8190   41.3430 C.3   500  GTP500      0.2310
     20  O2'        3.2760   -8.9770   41.1060 O.3   500  GTP500     -0.2158
     21  C1'        4.3460   -7.6390   42.8240 C.3   500  GTP500      0.2293
     22  N9         3.4720   -6.6020   43.4010 N.pl3 500  GTP500     -0.2354
     23  C8         3.5200   -5.2490   43.1810 C.3   500  GTP500      0.2246
     24  N7         2.5580   -4.6570   43.9250 N.2   500  GTP500     -0.2322
     25  C5         1.9130   -5.6110   44.6370 C.2   500  GTP500      0.2182
     26  C6         0.8650   -5.5630   45.5490 C.1   500  GTP500      0.2372
     27  O6         0.3420   -4.4880   45.8380 O.2   500  GTP500     -0.2069
     28  N1         0.4120   -6.7300   46.1270 N.2   500  GTP500     -0.2485
     29  C2         0.9980   -7.9360   45.8020 C.1   500  GTP500      0.2531
     30  N2         0.5640   -9.0650   46.3560 N.pl3 500  GTP500     -0.0226
     31  N3         2.0360   -7.9750   44.8960 N.2   500  GTP500     -0.3074
     32  C4         2.4870   -6.8330   44.3240 C.2   500  GTP500      0.2300
@<TRIPOS>BOND
     1     2     1    2
     2     3     1    1
     3     1     4    1
     4     1     5    1
     5    12    10    2
     6     5     6    1
     7    10    11    1
     8    10    13    1
     9    10     9    1
    10     8     6    2
    11    18    17    1
    12    13    14    1
    13     6     9    1
    14     6     7    1
    15    17    19    1
    16    17    15    1
    17    20    19    1
    18    19    21    1
    19    14    15    1
    20    15    16    1
    21    21    16    1
    22    21    22    1
    23    23    22    1
    24    23    24    1
    25    22    32    1
    26    24    25    2
    27    32    25    1
    28    32    31    2
    29    25    26    1
    30    31    29    2
    31    26    27    2
    32    26    28    2
    33    29    28    2
    34    29    30    1
