@<TRIPOS>MOLECULE
2w2x_GSP_A_1.pdb
 32 34 0 0 0
SMALL
GASTEIGER

@<TRIPOS>ATOM
      1  PG        30.4020   12.0090   11.5170 P.3   1178  GSP1178     0.4340
      2  O3B       31.1410   12.4130   10.1460 O.3   1178  GSP1178    -0.2405
      3  S1G       30.8870   13.0690   12.7670 S.3   1178  GSP1178     0.0416
      4  O2G       28.8920   12.1430   11.2470 O.2   1178  GSP1178    -0.2423
      5  O3G       30.7150   10.5410   11.8610 O.3   1178  GSP1178    -0.1305
      6  PB        31.5900   11.3380    9.0390 P.3   1178  GSP1178     0.2262
      7  O1B       32.5420   10.3440    9.5620 O.3   1178  GSP1178    -0.4369
      8  O2B       30.4220   10.6310    8.4790 O.2   1178  GSP1178    -0.5168
      9  PA        31.4840   13.0610    6.8930 P.3   1178  GSP1178     0.2189
     10  O1A       31.0550   12.0390    5.9080 O.2   1178  GSP1178    -0.5170
     11  O2A       30.3370   13.7370    7.5410 O.3   1178  GSP1178    -0.4371
     12  O3A       32.3470   12.2890    7.9990 O.3   1178  GSP1178    -0.2701
     13  O5'       32.5370   14.0770    6.2430 O.3   1178  GSP1178    -0.3112
     14  C5'       33.1940   15.0470    7.0260 C.3   1178  GSP1178     0.1813
     15  C4'       33.9010   16.0390    6.0980 C.3   1178  GSP1178     0.1799
     16  O4'       34.9030   15.3780    5.3360 O.3   1178  GSP1178    -0.3326
     17  C3'       32.9170   16.6620    5.1230 C.3   1178  GSP1178     0.2158
     18  O3'       33.0430   18.0600    5.1420 O.3   1178  GSP1178    -0.2175
     19  C2'       33.3370   16.1810    3.7620 C.3   1178  GSP1178     0.2310
     20  O2'       33.3260   17.2710    2.8690 O.3   1178  GSP1178    -0.2158
     21  C1'       34.7510   15.6660    3.9620 C.3   1178  GSP1178     0.2293
     22  N9        34.8840   14.4560    3.1370 N.pl3 1178  GSP1178    -0.2354
     23  C8        34.1570   13.2960    3.2540 C.3   1178  GSP1178     0.2246
     24  N7        34.5660   12.4300    2.2920 N.2   1178  GSP1178    -0.2322
     25  C5        35.5450   13.0360    1.5680 C.2   1178  GSP1178     0.2182
     26  C6        36.3000   12.6240    0.4780 C.1   1178  GSP1178     0.2372
     27  O6        36.1300   11.4940    0.0040 O.2   1178  GSP1178    -0.2069
     28  N1        37.2360   13.4810   -0.0720 N.2   1178  GSP1178    -0.2485
     29  C2        37.4340   14.7440    0.4500 C.1   1178  GSP1178     0.2531
     30  N2        38.3420   15.5600   -0.0890 N.pl3 1178  GSP1178    -0.0226
     31  N3        36.6780   15.1490    1.5340 N.2   1178  GSP1178    -0.3074
     32  C4        35.7500   14.3120    2.0820 C.2   1178  GSP1178     0.2300
@<TRIPOS>BOND
     1    30    29    1
     2    28    29    2
     3    28    26    2
     4    27    26    2
     5    29    31    2
     6    26    25    1
     7    31    32    2
     8    25    32    1
     9    25    24    2
    10    32    22    1
    11    24    23    1
    12    20    19    1
    13    22    23    1
    14    22    21    1
    15    19    21    1
    16    19    17    1
    17    21    16    1
    18    17    18    1
    19    17    15    1
    20    16    15    1
    21    10     9    2
    22    15    14    1
    23    13     9    1
    24    13    14    1
    25     9    11    1
    26     9    12    1
    27    12     6    1
    28     8     6    2
    29     6     7    1
    30     6     2    1
    31     2     1    1
    32     4     1    2
    33     1     5    1
    34     1     3    1
