@<TRIPOS>MOLECULE
2w31_HEM_A_1.pdb
 43 50 0 0 0
SMALL
GASTEIGER

@<TRIPOS>ATOM
      1 FE         51.1470   28.3740    9.8260 Fe    200  HEM200      0.0000
      2  CHA       52.3290   25.6870    8.1100 C.2   200  HEM200      0.0000
      3  CHB       49.1990   29.2230    7.1510 C.2   200  HEM200      0.0000
      4  CHC       49.4940   30.5940   11.7900 C.2   200  HEM200      0.0000
      5  CHD       53.4950   27.9290   12.2680 C.2   200  HEM200      0.0000
      6  NA        50.8310   27.6070    7.9990 N.ar  200  HEM200      0.0000
      7  C1A       51.4480   26.5090    7.4400 C.ar  200  HEM200      0.0000
      8  C2A       51.0320   26.3680    6.0560 C.ar  200  HEM200      0.0000
      9  C3A       50.1800   27.3620    5.7750 C.ar  200  HEM200      0.0000
     10  C4A       50.0300   28.1400    7.0010 C.ar  200  HEM200      0.0000
     11  CMA       49.4540   27.6670    4.4500 C.3   200  HEM200      0.0000
     12  CAA       51.5000   25.2350    5.0870 C.3   200  HEM200      0.0000
     13  NB        49.6240   29.6690    9.5200 N.2   200  HEM200      0.0000
     14  C1B       48.8980   29.8120    8.3680 C.2   200  HEM200      0.0000
     15  C2B       47.8220   30.7540    8.6350 C.2   200  HEM200      0.0000
     16  C3B       47.8950   31.1350    9.9150 C.2   200  HEM200      0.0000
     17  C4B       49.0600   30.4810   10.4950 C.2   200  HEM200      0.0000
     18  CMB       46.7960   31.1560    7.5530 C.3   200  HEM200      0.0000
     19  CAB       47.0090   32.1170   10.6780 C.2   200  HEM200      0.0000
     20  CBB       46.5810   33.2660   10.1210 C.2   200  HEM200      0.0000
     21  NC        51.4380   29.1160   11.6510 N.ar  200  HEM200      0.0000
     22  C1C       50.6490   30.0580   12.3030 C.ar  200  HEM200      0.0000
     23  C2C       51.2550   30.3830   13.5720 C.ar  200  HEM200      0.0000
     24  C3C       52.3820   29.6740   13.6870 C.ar  200  HEM200      0.0000
     25  C4C       52.5090   28.8530   12.5010 C.ar  200  HEM200      0.0000
     26  CMC       50.7170   31.3800   14.5960 C.3   200  HEM200      0.0000
     27  CAC       53.3480   29.7020   14.8890 C.2   200  HEM200      0.0000
     28  CBC       54.6550   29.9240   14.7870 C.2   200  HEM200      0.0000
     29  ND        52.6890   27.0170   10.1330 N.2   200  HEM200      0.0000
     30  C1D       53.4710   26.9960   11.2640 C.2   200  HEM200      0.0000
     31  C2D       54.3280   25.8030   11.2010 C.2   200  HEM200      0.0000
     32  C3D       53.9690   25.0930    9.9120 C.2   200  HEM200      0.0000
     33  C4D       52.9450   25.9350    9.3010 C.2   200  HEM200      0.0000
     34  CMD       55.3450   25.3620   12.2460 C.3   200  HEM200      0.0000
     35  CBA       50.6690   24.0220    5.5220 C.3   200  HEM200      0.0000
     36  CGA       50.6210   22.8900    4.5150 C.2   200  HEM200      0.0000
     37  O1A       49.9840   23.0360    3.4340 O.co2 200  HEM200      0.0000
     38  O2A       51.2190   21.8190    4.8180 O.co2 200  HEM200      0.0000
     39  CAD       54.5780   23.7910    9.3240 C.3   200  HEM200      0.0000
     40  CBD       54.0340   22.5440    9.9940 C.3   200  HEM200      0.0000
     41  CGD       54.9310   21.3840    9.6100 C.2   200  HEM200      0.0000
     42  O1D       56.1540   21.4030    9.9180 O.co2 200  HEM200      0.0000
     43  O2D       54.4140   20.4260    8.9950 O.co2 200  HEM200      0.0000
@<TRIPOS>BOND
     1    37    36   ar
     2    11     9    1
     3    36    38   ar
     4    36    35    1
     5    12    35    1
     6    12     8    1
     7     9     8   ar
     8     9    10   ar
     9     8     7   ar
    10    10     3    2
    11    10     6   ar
    12     3    14    1
    13     7     6   ar
    14     7     2    2
    15    18    15    1
    16     6     1    1
    17     2    33    1
    18    14    15    1
    19    14    13    2
    20    15    16    2
    21    43    41   ar
    22    33    32    1
    23    33    29    2
    24    39    32    1
    25    39    40    1
    26    13     1    1
    27    13    17    1
    28    41    42   ar
    29    41    40    1
    30     1    29    1
    31     1    21    1
    32    32    31    2
    33    16    17    1
    34    16    19    1
    35    20    19    2
    36    29    30    1
    37    17     4    2
    38    31    30    1
    39    31    34    1
    40    30     5    2
    41    21    22   ar
    42    21    25   ar
    43     4    22    1
    44     5    25    1
    45    22    23   ar
    46    25    24   ar
    47    23    24   ar
    48    23    26    1
    49    24    27    1
    50    28    27    2
