@<TRIPOS>MOLECULE
2w39_LGC_A_1.pdb
 12 12 0 0 0
SMALL
GASTEIGER

@<TRIPOS>ATOM
      1  C1         3.9800   16.5300   54.2080 C.2   1301  LGC1301     0.3505
      2  C2         5.0900   16.3750   53.2120 C.3   1301  LGC1301     0.2823
      3  O5         3.3560   17.8170   54.5120 O.3   1301  LGC1301    -0.4450
      4  O1         3.5570   15.5440   54.7910 O.2   1301  LGC1301    -0.2472
      5  O2         6.2130   15.6990   53.8100 O.3   1301  LGC1301    -0.2082
      6  C3         5.4910   17.7340   52.6260 C.3   1301  LGC1301     0.2270
      7  O3         6.1890   17.5450   51.3830 O.3   1301  LGC1301    -0.2169
      8  C4         4.2510   18.6040   52.4200 C.3   1301  LGC1301     0.2276
      9  O4         4.5510   19.7570   51.6400 O.3   1301  LGC1301    -0.2163
     10  C5         3.7510   19.0010   53.8040 C.3   1301  LGC1301     0.2344
     11  C6         2.5710   19.9690   53.8210 C.3   1301  LGC1301     0.2281
     12  O6         1.4560   19.4890   53.0560 O.3   1301  LGC1301    -0.2163
@<TRIPOS>BOND
     1     7     6    1
     2     9     8    1
     3     8     6    1
     4     8    10    1
     5     6     2    1
     6    12    11    1
     7     2     5    1
     8     2     1    1
     9    10    11    1
    10    10     3    1
    11     1     3    1
    12     1     4    2
