@<TRIPOS>MOLECULE
2w39_BGC_A_1.pdb
 12 12 0 0 0
SMALL
GASTEIGER

@<TRIPOS>ATOM
      1  C2         4.6430   16.3050   53.2280 C.3   1300  BGC1300     0.2434
      2  C3         5.3320   17.5770   52.7270 C.3   1300  BGC1300     0.2199
      3  C4         4.2640   18.6080   52.4030 C.3   1300  BGC1300     0.2144
      4  C5         3.6310   19.0120   53.7260 C.3   1300  BGC1300     0.1836
      5  C6         2.6080   20.1250   53.5400 C.3   1300  BGC1300     0.2142
      6  C1         3.4280   16.5330   54.1510 C.3   1300  BGC1300     0.3024
      7  O1         2.3150   15.7580   53.6680 O.3   1300  BGC1300    -0.1869
      8  O2         5.6030   15.4750   53.9020 O.3   1300  BGC1300    -0.2148
      9  O3         6.1560   17.2990   51.5800 O.3   1300  BGC1300    -0.2174
     10  O4         4.8240   19.7460   51.7500 O.3   1300  BGC1300    -0.2176
     11  O5         2.9810   17.8910   54.3470 O.3   1300  BGC1300    -0.3236
     12  O6         1.3620   19.5660   53.1070 O.3   1300  BGC1300    -0.2176
@<TRIPOS>BOND
     1     9     2    1
     2    10     3    1
     3     3     2    1
     4     3     4    1
     5     2     1    1
     6    12     5    1
     7     1     8    1
     8     1     6    1
     9     5     4    1
    10     7     6    1
    11     4    11    1
    12     6    11    1
