@<TRIPOS>MOLECULE
2w39_NAG_A_1.pdb
 14 14 0 0 0
SMALL
GASTEIGER

@<TRIPOS>ATOM
      1  C1        -8.2870   41.8360   47.9380 C.3   1299  NAG1299     0.1665
      2  C2        -9.4640   42.7410   47.5230 C.3   1299  NAG1299     0.1576
      3  C3       -10.3400   43.1290   48.7200 C.3   1299  NAG1299     0.2069
      4  C4       -10.6420   41.9470   49.6300 C.3   1299  NAG1299     0.2134
      5  C5        -9.3360   41.2400   49.9960 C.3   1299  NAG1299     0.1809
      6  C6        -9.5690   40.0750   50.9600 C.3   1299  NAG1299     0.2141
      7  C7        -9.3080   44.4820   45.7520 C.2   1299  NAG1299     0.2420
      8  C8        -8.6790   45.8030   45.4180 C.3   1299  NAG1299     0.0964
      9  N2        -8.9420   43.9600   46.9230 N.am  1299  NAG1299    -0.2019
     10  O3       -11.5580   43.7050   48.2870 O.3   1299  NAG1299    -0.2184
     11  O4       -11.2890   42.4050   50.7970 O.3   1299  NAG1299    -0.2176
     12  O5        -8.7370   40.7880   48.7900 O.3   1299  NAG1299    -0.3489
     13  O6       -10.3640   39.0690   50.3670 O.3   1299  NAG1299    -0.2176
     14  O7       -10.1030   43.9600   44.9680 O.2   1299  NAG1299    -0.2733
@<TRIPOS>BOND
     1    14     7    2
     2     8     7    1
     3     7     9   am
     4     9     2    1
     5     2     1    1
     6     2     3    1
     7     1    12    1
     8    10     3    1
     9     3     4    1
    10    12     5    1
    11     4     5    1
    12     4    11    1
    13     5     6    1
    14    13     6    1
