@<TRIPOS>MOLECULE
2w3a_NDP_A_1.pdb
 48 52 0 0 0
SMALL
GASTEIGER

@<TRIPOS>ATOM
      1  PA         7.3780   25.9810    7.4520 P.3   1188  NDP1188     0.2189
      2  O1A        7.3650   24.5270    7.2950 O.3   1188  NDP1188    -0.4371
      3  O2A        6.2310   26.6620    6.8470 O.2   1188  NDP1188    -0.5170
      4  O5B        7.2770   26.3480    9.0100 O.3   1188  NDP1188    -0.3112
      5  C5B        8.1410   25.8180    9.9950 C.3   1188  NDP1188     0.1813
      6  C4B        7.3770   25.7620   11.3130 C.3   1188  NDP1188     0.1820
      7  O4B        6.1090   25.1670   11.0850 O.3   1188  NDP1188    -0.3136
      8  C3B        8.0510   24.9140   12.3860 C.3   1188  NDP1188     0.2157
      9  O3B        8.9720   25.6490   13.1640 O.3   1188  NDP1188    -0.2175
     10  C2B        6.8610   24.4280   13.1790 C.3   1188  NDP1188     0.2314
     11  O2B        6.4000   25.4320   14.0580 O.3   1188  NDP1188    -0.2630
     12  C1B        5.8080   24.2280   12.0970 C.3   1188  NDP1188     0.3158
     13  N9A        5.8030   22.8700   11.5210 N.pl3 1188  NDP1188    -0.1439
     14  C8A        6.3540   22.4440   10.3280 C.3   1188  NDP1188     0.3377
     15  N7A        6.0890   21.1150   10.1840 N.2   1188  NDP1188    -0.2095
     16  C5A        5.3780   20.6930   11.2550 C.2   1188  NDP1188     0.2526
     17  C6A        4.8440   19.4560   11.6240 C.2   1188  NDP1188     0.4393
     18  N6A        5.0170   18.3720   10.8730 N.pl3 1188  NDP1188     0.2180
     19  N1A        4.1500   19.3430   12.8150 N.2   1188  NDP1188     0.0021
     20  C2A        3.9790   20.4480   13.6310 C.3   1188  NDP1188     0.5254
     21  N3A        4.5020   21.6630   13.2630 N.2   1188  NDP1188    -0.0055
     22  C4A        5.1900   21.7870   12.0970 C.2   1188  NDP1188     0.3518
     23  O3         8.8240   26.6470    7.1480 O.3   1188  NDP1188    -0.2703
     24  PN         9.7390   26.8990    5.8250 P.3   1188  NDP1188     0.2189
     25  O1N       10.1350   25.5880    5.2510 O.2   1188  NDP1188    -0.5170
     26  O2N       10.7980   27.8460    6.2410 O.3   1188  NDP1188    -0.4371
     27  O5D        8.8250   27.6070    4.7040 O.3   1188  NDP1188    -0.3112
     28  C5D        8.6220   29.0030    4.5900 C.3   1188  NDP1188     0.1813
     29  C4D        9.4140   29.5380    3.4010 C.3   1188  NDP1188     0.1799
     30  O4D        9.0440   28.8780    2.2000 O.3   1188  NDP1188    -0.3327
     31  C3D        9.1780   31.0020    3.0940 C.3   1188  NDP1188     0.2158
     32  O3D       10.3350   31.5270    2.4840 O.3   1188  NDP1188    -0.2175
     33  C2D        8.0650   31.0030    2.0850 C.3   1188  NDP1188     0.2309
     34  O2D        8.0590   32.2120    1.3460 O.3   1188  NDP1188    -0.2158
     35  C1D        8.4490   29.7780    1.2770 C.3   1188  NDP1188     0.2263
     36  N1N        7.3220   29.1030    0.6330 N.pl3 1188  NDP1188    -0.2787
     37  C2N        7.3940   28.8780   -0.7050 C.3   1188  NDP1188     0.1244
     38  C3N        6.3950   28.2030   -1.3690 C.2   1188  NDP1188     0.0544
     39  C7N        6.6340   27.9330   -2.8340 C.2   1188  NDP1188     0.2818
     40  O7N        5.7780   27.0920   -3.4710 O.2   1188  NDP1188    -0.2670
     41  N7N        7.6230   28.4790   -3.5400 N.am  1188  NDP1188    -0.0839
     42  C4N        5.3560   27.3950   -0.6010 C.2   1188  NDP1188     0.0033
     43  C5N        5.3840   27.7200    0.8620 C.2   1188  NDP1188     0.0157
     44  C6N        6.3630   28.5270    1.4050 C.2   1188  NDP1188     0.0633
     45  P2B        6.7360   25.4550   15.6330 P.3   1188  NDP1188     0.5328
     46  O1X        8.2070   25.8070   15.7540 O.2   1188  NDP1188    -0.2224
     47  O2X        5.8940   26.5070   16.3200 O.3   1188  NDP1188    -0.1145
     48  O3X        6.4260   24.0870   16.1820 O.3   1188  NDP1188    -0.1145
@<TRIPOS>BOND
     1    41    39   am
     2    40    39    2
     3    39    38    1
     4    38    37    1
     5    38    42    2
     6    37    36    1
     7    42    43    1
     8    36    35    1
     9    36    44    1
    10    43    44    2
    11    35    33    1
    12    35    30    1
    13    34    33    1
    14    33    31    1
    15    30    29    1
    16    32    31    1
    17    31    29    1
    18    29    28    1
    19    28    27    1
    20    27    24    1
    21    25    24    2
    22    24    26    1
    23    24    23    1
    24     3     1    2
    25    23     1    1
    26     2     1    1
    27     1     4    1
    28     4     5    1
    29     5     6    1
    30    15    14    1
    31    15    16    2
    32    14    13    1
    33    18    17    1
    34     7     6    1
    35     7    12    1
    36    16    17    1
    37    16    22    1
    38     6     8    1
    39    13    12    1
    40    13    22    1
    41    17    19    2
    42    12    10    1
    43    22    21    2
    44     8     9    1
    45     8    10    1
    46    19    20    1
    47    10    11    1
    48    21    20    1
    49    11    45    1
    50    45    46    2
    51    45    48    1
    52    45    47    1
