@<TRIPOS>MOLECULE
2w3a_TOP_A_1.pdb
 21 22 0 0 0
SMALL
GASTEIGER

@<TRIPOS>ATOM
      1  C1         3.2070   29.6150   -5.3640 C.2   1190  TOP1190     0.1118
      2  N2         2.8350   28.9080   -6.4340 N.2   1190  TOP1190    -0.1675
      3  C3         2.4540   27.6170   -6.2960 C.1   1190  TOP1190     0.1877
      4  N4         2.0960   26.9230   -7.3760 N.pl3 1190  TOP1190    -0.0345
      5  N5         2.4460   26.9840   -5.1190 N.2   1190  TOP1190    -0.3170
      6  C6         2.7840   27.6350   -3.9920 C.2   1190  TOP1190     0.2297
      7  N7         2.7600   27.0000   -2.8230 N.pl3 1190  TOP1190    -0.0924
      8  C8         3.2030   29.0410   -4.1140 C.2   1190  TOP1190     0.0500
      9  C9         3.6610   29.8930   -2.9510 C.3   1190  TOP1190     0.0585
     10  C10        2.6190   30.7790   -2.3500 C.ar  1190  TOP1190    -0.0114
     11  C11        2.4010   32.0210   -2.9350 C.ar  1190  TOP1190     0.0363
     12  C12        1.4370   32.8680   -2.4030 C.ar  1190  TOP1190     0.1751
     13  O13        1.1950   34.0920   -2.9590 O.3   1190  TOP1190    -0.4683
     14  C14        2.2270   34.7000   -3.7240 C.3   1190  TOP1190     0.2526
     15  C15        0.6680   32.4590   -1.2040 C.ar  1190  TOP1190     0.2060
     16  O16       -0.2540   33.3240   -0.6750 O.3   1190  TOP1190    -0.4654
     17  C17        0.2650   34.4760   -0.0070 C.3   1190  TOP1190     0.2528
     18  C18        0.9680   31.1400   -0.6050 C.ar  1190  TOP1190     0.1751
     19  O19        0.3150   30.7250    0.5190 O.3   1190  TOP1190    -0.4683
     20  C20        0.9620   29.8490    1.4450 C.3   1190  TOP1190     0.2526
     21  C21        1.9370   30.3440   -1.2050 C.ar  1190  TOP1190     0.0363
@<TRIPOS>BOND
     1     4     3    1
     2     2     3    2
     3     2     1    1
     4     3     5    2
     5     1     8    2
     6     5     6    2
     7     8     6    1
     8     8     9    1
     9     6     7    1
    10    14    13    1
    11    13    12    1
    12     9    10    1
    13    11    12   ar
    14    11    10   ar
    15    12    15   ar
    16    10    21   ar
    17    21    18   ar
    18    15    16    1
    19    15    18   ar
    20    16    17    1
    21    18    19    1
    22    19    20    1
