@<TRIPOS>MOLECULE
2w3b_NDP_A_1.pdb
 48 52 0 0 0
SMALL
GASTEIGER

@<TRIPOS>ATOM
      1  PA         7.0240   26.2680    7.4590 P.3   201  NDP201      0.2189
      2  O1A        6.9910   24.8010    7.2640 O.3   201  NDP201     -0.4371
      3  O2A        5.9530   27.0370    6.8220 O.2   201  NDP201     -0.5170
      4  O5B        7.0030   26.6790    8.9880 O.3   201  NDP201     -0.3112
      5  C5B        7.8390   26.0400    9.9420 C.3   201  NDP201      0.1813
      6  C4B        7.0840   25.9720   11.2680 C.3   201  NDP201      0.1820
      7  O4B        5.8130   25.3790   11.0670 O.3   201  NDP201     -0.3136
      8  C3B        7.7380   25.0870   12.3220 C.3   201  NDP201      0.2157
      9  O3B        8.7540   25.7440   13.0370 O.3   201  NDP201     -0.2175
     10  C2B        6.5560   24.6780   13.1690 C.3   201  NDP201      0.2314
     11  O2B        6.0640   25.7210   14.0020 O.3   201  NDP201     -0.2630
     12  C1B        5.5220   24.4660   12.1010 C.3   201  NDP201      0.3158
     13  N9A        5.4980   23.1310   11.5150 N.pl3 201  NDP201     -0.1439
     14  C8A        5.9510   22.7760   10.2660 C.3   201  NDP201      0.3377
     15  N7A        5.6720   21.4690   10.0680 N.2   201  NDP201     -0.2095
     16  C5A        5.0180   21.0020   11.1540 C.2   201  NDP201      0.2526
     17  C6A        4.4880   19.7650   11.4890 C.2   201  NDP201      0.4393
     18  N6A        4.4850   18.7900   10.5810 N.pl3 201  NDP201      0.2180
     19  N1A        3.8570   19.6270   12.6900 N.2   201  NDP201      0.0021
     20  C2A        3.7560   20.6830   13.5760 C.3   201  NDP201      0.5254
     21  N3A        4.2880   21.9150   13.2690 N.2   201  NDP201     -0.0055
     22  C4A        4.8920   22.0510   12.0690 C.2   201  NDP201      0.3518
     23  O3         8.4920   26.8210    7.1330 O.3   201  NDP201     -0.2703
     24  PN         9.5240   26.8140    5.8980 P.3   201  NDP201      0.2189
     25  O1N        9.6920   25.4510    5.3570 O.2   201  NDP201     -0.5170
     26  O2N       10.6640   27.6760    6.2850 O.3   201  NDP201     -0.4371
     27  O5D        8.6610   27.5330    4.7130 O.3   201  NDP201     -0.3112
     28  C5D        8.4980   28.9420    4.6340 C.3   201  NDP201      0.1813
     29  C4D        9.2860   29.5960    3.4870 C.3   201  NDP201      0.1799
     30  O4D        8.9080   28.9410    2.2920 O.3   201  NDP201     -0.3327
     31  C3D        8.9860   31.0750    3.2240 C.3   201  NDP201      0.2158
     32  O3D       10.1430   31.6700    2.6320 O.3   201  NDP201     -0.2175
     33  C2D        7.8340   31.0130    2.2270 C.3   201  NDP201      0.2309
     34  O2D        7.7450   32.2310    1.5210 O.3   201  NDP201     -0.2158
     35  C1D        8.2020   29.7950    1.4050 C.3   201  NDP201      0.2263
     36  N1N        7.0410   29.1110    0.7760 N.pl3 201  NDP201     -0.2787
     37  C2N        7.0700   28.9230   -0.5550 C.3   201  NDP201      0.1244
     38  C3N        6.1860   28.1200   -1.2160 C.2   201  NDP201      0.0544
     39  C7N        6.3770   27.8810   -2.6520 C.2   201  NDP201      0.2818
     40  O7N        5.4820   27.0730   -3.2290 O.2   201  NDP201     -0.2670
     41  N7N        7.3450   28.4430   -3.3570 N.am  201  NDP201     -0.0839
     42  C4N        5.2610   27.2270   -0.4490 C.2   201  NDP201      0.0033
     43  C5N        5.2710   27.5360    1.0050 C.2   201  NDP201      0.0157
     44  C6N        6.1390   28.4530    1.5490 C.2   201  NDP201      0.0633
     45  P2B        6.4800   25.8580   15.5550 P.3   201  NDP201      0.5328
     46  O1X        7.9130   26.3040   15.5790 O.2   201  NDP201     -0.2224
     47  O2X        5.5640   26.9240   16.0860 O.3   201  NDP201     -0.1145
     48  O3X        6.2970   24.5070   16.1320 O.3   201  NDP201     -0.1145
@<TRIPOS>BOND
     1    41    39   am
     2    40    39    2
     3    39    38    1
     4    38    37    1
     5    38    42    2
     6    37    36    1
     7    42    43    1
     8    36    35    1
     9    36    44    1
    10    43    44    2
    11    35    33    1
    12    35    30    1
    13    34    33    1
    14    33    31    1
    15    30    29    1
    16    32    31    1
    17    31    29    1
    18    29    28    1
    19    28    27    1
    20    27    24    1
    21    25    24    2
    22    24    26    1
    23    24    23    1
    24     3     1    2
    25    23     1    1
    26     2     1    1
    27     1     4    1
    28     4     5    1
    29     5     6    1
    30    15    14    1
    31    15    16    2
    32    14    13    1
    33    18    17    1
    34     7     6    1
    35     7    12    1
    36    16    17    1
    37    16    22    1
    38     6     8    1
    39    17    19    2
    40    13    22    1
    41    13    12    1
    42    22    21    2
    43    12    10    1
    44     8     9    1
    45     8    10    1
    46    19    20    1
    47    10    11    1
    48    21    20    1
    49    11    45    1
    50    45    46    2
    51    45    47    1
    52    45    48    1
