@<TRIPOS>MOLECULE
2w3b_VG9_A_1.pdb
 27 29 0 0 0
SMALL
GASTEIGER

@<TRIPOS>ATOM
      1  N2         2.2540   26.9780   -6.7980 N.pl3 301  VG9301     -0.0226
      2  C2         2.2770   27.5930   -5.5960 C.1   301  VG9301      0.2517
      3  N3         2.1350   26.8680   -4.4720 N.2   301  VG9301     -0.3061
      4  C4         2.1110   27.4570   -3.2650 C.2   301  VG9301      0.2427
      5  N4         2.0320   26.5870   -2.2330 N.pl3 301  VG9301     -0.0914
      6  N1         2.4560   28.9230   -5.5500 N.2   301  VG9301     -0.2706
      7  C8A        2.4610   29.5690   -4.3620 C.1   301  VG9301      0.1046
      8  N8         2.6690   30.9040   -4.3800 N.2   301  VG9301     -0.1818
      9  C7         2.6780   31.6060   -3.2470 C.2   301  VG9301      0.1077
     10  C6         2.4970   30.9900   -2.0180 C.2   301  VG9301      0.0162
     11  C5         2.2780   29.6070   -1.9470 C.2   301  VG9301     -0.0083
     12  C5A        1.8240   29.0440   -0.6160 C.3   301  VG9301      0.0317
     13  C4A        2.2860   28.8660   -3.1610 C.2   301  VG9301      0.1186
     14  C9         2.5170   31.8100   -0.7320 C.3   301  VG9301      0.1399
     15  N10        2.9640   33.1750   -0.9640 N.pl3 301  VG9301     -0.2296
     16  C11        2.1610   34.2340   -1.2220 C.ar  301  VG9301      0.1025
     17  C12        2.7670   35.4800   -1.3640 C.ar  301  VG9301      0.1534
     18  O2         4.1230   35.5890   -1.2180 O.3   301  VG9301     -0.4742
     19  C21        4.7250   35.4690    0.0750 C.3   301  VG9301      0.2056
     20  C22        6.0270   34.7180    0.0280 C.3   301  VG9301      0.0512
     21  C13        2.0170   36.6150   -1.6500 C.ar  301  VG9301      0.0413
     22  C14        0.6320   36.5080   -1.7950 C.ar  301  VG9301      0.0401
     23  C15        0.0120   35.2630   -1.6590 C.ar  301  VG9301      0.1400
     24  C16        0.7770   34.1220   -1.3810 C.ar  301  VG9301      0.0560
     25  O5        -1.3490   35.1790   -1.8030 O.3   301  VG9301     -0.4754
     26  C51       -1.9800   34.1120   -2.5230 C.3   301  VG9301      0.2055
     27  C52       -2.3740   34.6010   -3.8970 C.3   301  VG9301      0.0512
@<TRIPOS>BOND
     1     1     2    1
     2     2     6    2
     3     2     3    2
     4     6     7    2
     5     3     4    2
     6     8     7    2
     7     8     9    1
     8     7    13    1
     9    27    26    1
    10     4    13    1
    11     4     5    1
    12     9    10    2
    13    13    11    2
    14    26    25    1
    15    10    11    1
    16    10    14    1
    17    11    12    1
    18    25    23    1
    19    22    23   ar
    20    22    21   ar
    21    23    24   ar
    22    21    17   ar
    23    24    16   ar
    24    17    16   ar
    25    17    18    1
    26    16    15    1
    27    18    19    1
    28    15    14    1
    29    20    19    1
