@<TRIPOS>MOLECULE
2w3d_HEM_A_1.pdb
 43 50 0 0 0
SMALL
GASTEIGER

@<TRIPOS>ATOM
      1 FE          5.7110   20.7130   73.5880 Fe    500  HEM500      0.0000
      2  CHA        8.4430   18.8200   74.4900 C.2   500  HEM500      0.0000
      3  CHB        6.9040   20.7000   70.3130 C.2   500  HEM500      0.0000
      4  CHC        3.0010   22.4300   72.6380 C.2   500  HEM500      0.0000
      5  CHD        4.9540   21.2840   76.9170 C.2   500  HEM500      0.0000
      6  NA         7.4550   19.9850   72.5940 N.ar  500  HEM500      0.0000
      7  C1A        8.2870   19.0460   73.1430 C.ar  500  HEM500      0.0000
      8  C2A        8.9620   18.3580   72.0500 C.ar  500  HEM500      0.0000
      9  C3A        8.5380   18.8750   70.8890 C.ar  500  HEM500      0.0000
     10  C4A        7.5820   19.9140   71.2140 C.ar  500  HEM500      0.0000
     11  CMA        8.9690   18.4640   69.4570 C.3   500  HEM500      0.0000
     12  CAA        9.9600   17.2010   72.2200 C.3   500  HEM500      0.0000
     13  CBA       11.3630   17.7340   72.0520 C.3   500  HEM500      0.0000
     14  CGA       12.3180   16.6290   72.3840 C.2   500  HEM500      0.0000
     15  O1A       11.8880   15.4510   72.4820 O.co2 500  HEM500      0.0000
     16  O2A       13.5170   16.9550   72.5520 O.co2 500  HEM500      0.0000
     17  NB         5.0830   21.4060   71.7940 N.2   500  HEM500      0.0000
     18  C1B        5.7030   21.3330   70.5600 C.2   500  HEM500      0.0000
     19  C2B        4.8860   22.0620   69.6000 C.2   500  HEM500      0.0000
     20  C3B        3.8080   22.5320   70.2380 C.2   500  HEM500      0.0000
     21  C4B        3.9080   22.1370   71.6360 C.2   500  HEM500      0.0000
     22  CMB        5.2000   22.2520   68.0940 C.3   500  HEM500      0.0000
     23  CAB        2.6920   23.3730   69.5820 C.2   500  HEM500      0.0000
     24  CBB        1.4090   23.3130   69.9590 C.2   500  HEM500      0.0000
     25  NC         4.2480   21.6830   74.6010 N.ar  500  HEM500      0.0000
     26  C1C        3.1880   22.3270   73.9980 C.ar  500  HEM500      0.0000
     27  C2C        2.3360   22.8730   75.0430 C.ar  500  HEM500      0.0000
     28  C3C        2.8830   22.5470   76.2350 C.ar  500  HEM500      0.0000
     29  C4C        4.0990   21.8020   75.9690 C.ar  500  HEM500      0.0000
     30  CMC        1.0320   23.6700   74.7900 C.3   500  HEM500      0.0000
     31  CAC        2.3990   22.8580   77.6770 C.2   500  HEM500      0.0000
     32  CBC        1.3240   23.5910   77.9800 C.2   500  HEM500      0.0000
     33  ND         6.5500   20.1140   75.4330 N.2   500  HEM500      0.0000
     34  C1D        6.1080   20.5590   76.6750 C.2   500  HEM500      0.0000
     35  C2D        7.0600   20.1330   77.6750 C.2   500  HEM500      0.0000
     36  C3D        8.1460   19.3720   76.9120 C.2   500  HEM500      0.0000
     37  C4D        7.7420   19.4020   75.5270 C.2   500  HEM500      0.0000
     38  CMD        7.0170   20.3860   79.1990 C.3   500  HEM500      0.0000
     39  CAD        9.3960   18.7040   77.5230 C.3   500  HEM500      0.0000
     40  CBD       10.6680   19.3890   77.0380 C.3   500  HEM500      0.0000
     41  CGD       10.8030   20.8020   77.5520 C.2   500  HEM500      0.0000
     42  O1D       10.3140   21.0930   78.6740 O.co2 500  HEM500      0.0000
     43  O2D       11.4220   21.6310   76.8300 O.co2 500  HEM500      0.0000
@<TRIPOS>BOND
     1    22    19    1
     2    11     9    1
     3    23    24    2
     4    23    20    1
     5    19    20    2
     6    19    18    1
     7    20    21    1
     8     3    18    1
     9     3    10    2
    10    18    17    2
    11     9    10   ar
    12     9     8   ar
    13    10     6   ar
    14    21    17    1
    15    21     4    2
    16    17     1    1
    17     8    12    1
    18     8     7   ar
    19    13    12    1
    20    13    14    1
    21    14    15   ar
    22    14    16   ar
    23     6     7   ar
    24     6     1    1
    25     4    26    1
    26     7     2    2
    27     1    25    1
    28     1    33    1
    29    26    25   ar
    30    26    27   ar
    31     2    37    1
    32    25    29   ar
    33    30    27    1
    34    27    28   ar
    35    33    37    2
    36    33    34    1
    37    37    36    1
    38    29    28   ar
    39    29     5    1
    40    28    31    1
    41    34     5    2
    42    34    35    1
    43    43    41   ar
    44    36    39    1
    45    36    35    2
    46    40    39    1
    47    40    41    1
    48    41    42   ar
    49    35    38    1
    50    31    32    2
