@<TRIPOS>MOLECULE
2w3e_HEM_A_1.pdb
 43 50 0 0 0
SMALL
GASTEIGER

@<TRIPOS>ATOM
      1 FE          5.8350   20.6750   22.8400 Fe    500  HEM500      0.0000
      2  CHA        8.5240   18.7050   23.7380 C.2   500  HEM500      0.0000
      3  CHB        6.8170   20.5090   19.5950 C.2   500  HEM500      0.0000
      4  CHC        3.1380   22.5340   21.9460 C.2   500  HEM500      0.0000
      5  CHD        5.1270   21.2760   26.1310 C.2   500  HEM500      0.0000
      6  NA         7.4070   19.8020   21.8490 N.ar  500  HEM500      0.0000
      7  C1A        8.3410   18.9370   22.3990 C.ar  500  HEM500      0.0000
      8  C2A        9.1010   18.3220   21.3160 C.ar  500  HEM500      0.0000
      9  C3A        8.6350   18.8260   20.1630 C.ar  500  HEM500      0.0000
     10  C4A        7.5740   19.7820   20.4830 C.ar  500  HEM500      0.0000
     11  CMA        9.1020   18.4840   18.7290 C.3   500  HEM500      0.0000
     12  CAA       10.1940   17.2440   21.5450 C.3   500  HEM500      0.0000
     13  CBA       11.6100   17.7800   21.6300 C.3   500  HEM500      0.0000
     14  CGA       12.5610   16.6000   21.8030 C.2   500  HEM500      0.0000
     15  O1A       13.7760   16.8320   21.7090 O.co2 500  HEM500      0.0000
     16  O2A       12.1290   15.4400   22.0450 O.co2 500  HEM500      0.0000
     17  NB         5.0920   21.3780   21.0810 N.2   500  HEM500      0.0000
     18  C1B        5.6800   21.2300   19.8410 C.2   500  HEM500      0.0000
     19  C2B        4.9130   21.9920   18.8690 C.2   500  HEM500      0.0000
     20  C3B        3.8900   22.5540   19.5250 C.2   500  HEM500      0.0000
     21  C4B        3.9890   22.1690   20.9270 C.2   500  HEM500      0.0000
     22  CMB        5.2450   22.1180   17.3650 C.3   500  HEM500      0.0000
     23  CAB        2.7870   23.4440   18.9000 C.2   500  HEM500      0.0000
     24  CBB        1.4960   23.3210   19.2260 C.2   500  HEM500      0.0000
     25  NC         4.4160   21.6790   23.8340 N.ar  500  HEM500      0.0000
     26  C1C        3.3500   22.3760   23.2970 C.ar  500  HEM500      0.0000
     27  C2C        2.5060   22.9150   24.3600 C.ar  500  HEM500      0.0000
     28  C3C        3.0730   22.5550   25.5140 C.ar  500  HEM500      0.0000
     29  C4C        4.2850   21.8110   25.1940 C.ar  500  HEM500      0.0000
     30  CMC        1.2270   23.7670   24.1340 C.3   500  HEM500      0.0000
     31  CAC        2.6520   22.8610   26.9690 C.2   500  HEM500      0.0000
     32  CBC        1.4500   23.3680   27.2880 C.2   500  HEM500      0.0000
     33  ND         6.6800   20.0690   24.6500 N.2   500  HEM500      0.0000
     34  C1D        6.2390   20.5090   25.8790 C.2   500  HEM500      0.0000
     35  C2D        7.1660   20.0710   26.9030 C.2   500  HEM500      0.0000
     36  C3D        8.2020   19.2750   26.1680 C.2   500  HEM500      0.0000
     37  C4D        7.8520   19.3140   24.7630 C.2   500  HEM500      0.0000
     38  CMD        7.0980   20.3300   28.4120 C.3   500  HEM500      0.0000
     39  CAD        9.4110   18.6080   26.8620 C.3   500  HEM500      0.0000
     40  CBD       10.7420   19.2830   26.5120 C.3   500  HEM500      0.0000
     41  CGD       10.8590   20.7040   27.0450 C.2   500  HEM500      0.0000
     42  O1D       10.4580   20.9700   28.2210 O.co2 500  HEM500      0.0000
     43  O2D       11.3190   21.5540   26.2650 O.co2 500  HEM500      0.0000
@<TRIPOS>BOND
     1    22    19    1
     2    11     9    1
     3    19    20    2
     4    19    18    1
     5    23    24    2
     6    23    20    1
     7    20    21    1
     8     3    18    1
     9     3    10    2
    10    18    17    2
    11     9    10   ar
    12     9     8   ar
    13    10     6   ar
    14    21    17    1
    15    21     4    2
    16    17     1    1
    17     8    12    1
    18     8     7   ar
    19    12    13    1
    20    13    14    1
    21    15    14   ar
    22    14    16   ar
    23     6     7   ar
    24     6     1    1
    25     4    26    1
    26     7     2    2
    27     1    25    1
    28     1    33    1
    29    26    25   ar
    30    26    27   ar
    31     2    37    1
    32    25    29   ar
    33    30    27    1
    34    27    28   ar
    35    33    37    2
    36    33    34    1
    37    37    36    1
    38    29    28   ar
    39    29     5    1
    40    28    31    1
    41    34     5    2
    42    34    35    1
    43    36    39    1
    44    36    35    2
    45    43    41   ar
    46    40    39    1
    47    40    41    1
    48    35    38    1
    49    31    32    2
    50    41    42   ar
