@<TRIPOS>MOLECULE
2w3f_HEM_A_1.pdb
 43 50 0 0 0
SMALL
GASTEIGER

@<TRIPOS>ATOM
      1 FE          5.6360   20.4420   23.1870 Fe    500  HEM500      0.0000
      2  CHA        8.5420   18.7390   23.9780 C.2   500  HEM500      0.0000
      3  CHB        6.6100   20.4340   19.8730 C.2   500  HEM500      0.0000
      4  CHC        3.0680   22.6210   22.3740 C.2   500  HEM500      0.0000
      5  CHD        5.0790   21.0550   26.5070 C.2   500  HEM500      0.0000
      6  NA         7.2380   19.7470   22.1430 N.ar  500  HEM500      0.0000
      7  C1A        8.3270   19.0160   22.6510 C.ar  500  HEM500      0.0000
      8  C2A        9.1990   18.6100   21.5500 C.ar  500  HEM500      0.0000
      9  C3A        8.6580   19.0810   20.4170 C.ar  500  HEM500      0.0000
     10  C4A        7.4390   19.7940   20.7670 C.ar  500  HEM500      0.0000
     11  CMA        9.2160   18.8960   18.9760 C.3   500  HEM500      0.0000
     12  CAA       10.5160   17.7990   21.6940 C.3   500  HEM500      0.0000
     13  CBA       10.2420   16.3040   21.6670 C.3   500  HEM500      0.0000
     14  CGA       11.4510   15.4870   22.0250 C.2   500  HEM500      0.0000
     15  O1A       11.2380   14.2760   22.2660 O.co2 500  HEM500      0.0000
     16  O2A       12.5900   16.0220   22.0540 O.co2 500  HEM500      0.0000
     17  NB         4.9700   21.3890   21.4200 N.2   500  HEM500      0.0000
     18  C1B        5.5040   21.1980   20.1670 C.2   500  HEM500      0.0000
     19  C2B        4.7090   21.9350   19.1860 C.2   500  HEM500      0.0000
     20  C3B        3.7190   22.5270   19.8820 C.2   500  HEM500      0.0000
     21  C4B        3.8650   22.2080   21.3100 C.2   500  HEM500      0.0000
     22  CMB        5.0100   21.9800   17.6530 C.3   500  HEM500      0.0000
     23  CAB        2.6310   23.4190   19.2730 C.2   500  HEM500      0.0000
     24  CBB        1.3970   23.3980   19.7760 C.2   500  HEM500      0.0000
     25  NC         4.3360   21.6280   24.2480 N.ar  500  HEM500      0.0000
     26  C1C        3.3040   22.3980   23.7300 C.ar  500  HEM500      0.0000
     27  C2C        2.5480   22.9420   24.8400 C.ar  500  HEM500      0.0000
     28  C3C        3.1190   22.4990   25.9970 C.ar  500  HEM500      0.0000
     29  C4C        4.2480   21.6820   25.6130 C.ar  500  HEM500      0.0000
     30  CMC        1.3070   23.8450   24.6740 C.3   500  HEM500      0.0000
     31  CAC        2.6980   22.7760   27.4620 C.2   500  HEM500      0.0000
     32  CBC        1.4750   23.2840   27.7340 C.2   500  HEM500      0.0000
     33  ND         6.6590   19.9690   24.9700 N.2   500  HEM500      0.0000
     34  C1D        6.2150   20.3470   26.2320 C.2   500  HEM500      0.0000
     35  C2D        7.1320   19.8420   27.2350 C.2   500  HEM500      0.0000
     36  C3D        8.2270   19.1200   26.4490 C.2   500  HEM500      0.0000
     37  C4D        7.8420   19.2400   25.0480 C.2   500  HEM500      0.0000
     38  CMD        7.0560   20.0240   28.7530 C.3   500  HEM500      0.0000
     39  CAD        9.4550   18.3930   27.0730 C.3   500  HEM500      0.0000
     40  CBD       10.8050   19.0240   26.7480 C.3   500  HEM500      0.0000
     41  CGD       10.9110   20.4290   27.2950 C.2   500  HEM500      0.0000
     42  O1D       11.3550   21.3010   26.5270 O.co2 500  HEM500      0.0000
     43  O2D       10.5500   20.6600   28.4840 O.co2 500  HEM500      0.0000
@<TRIPOS>BOND
     1    22    19    1
     2    11     9    1
     3    19    20    2
     4    19    18    1
     5    23    24    2
     6    23    20    1
     7     3    18    1
     8     3    10    2
     9    20    21    1
    10    18    17    2
    11     9    10   ar
    12     9     8   ar
    13    10     6   ar
    14    21    17    1
    15    21     4    2
    16    17     1    1
    17     8    12    1
    18     8     7   ar
    19    13    12    1
    20    13    14    1
    21    14    16   ar
    22    14    15   ar
    23     6     7   ar
    24     6     1    1
    25     4    26    1
    26     7     2    2
    27     1    25    1
    28     1    33    1
    29    26    25   ar
    30    26    27   ar
    31     2    37    1
    32    25    29   ar
    33    30    27    1
    34    27    28   ar
    35    33    37    2
    36    33    34    1
    37    37    36    1
    38    29    28   ar
    39    29     5    1
    40    28    31    1
    41    34     5    2
    42    34    35    1
    43    36    39    1
    44    36    35    2
    45    42    41   ar
    46    40    39    1
    47    40    41    1
    48    35    38    1
    49    41    43   ar
    50    31    32    2
