@<TRIPOS>MOLECULE
2w3g_HEM_A_1.pdb
 43 50 0 0 0
SMALL
GASTEIGER

@<TRIPOS>ATOM
      1 FE          6.0330   20.6050   22.8750 Fe    500  HEM500      0.0000
      2  CHA        8.7000   18.6700   23.7780 C.2   500  HEM500      0.0000
      3  CHB        7.0080   20.4100   19.6330 C.2   500  HEM500      0.0000
      4  CHC        3.3030   22.4690   21.9630 C.2   500  HEM500      0.0000
      5  CHD        5.3020   21.2200   26.1720 C.2   500  HEM500      0.0000
      6  NA         7.6010   19.7020   21.8890 N.ar  500  HEM500      0.0000
      7  C1A        8.5310   18.8750   22.4500 C.ar  500  HEM500      0.0000
      8  C2A        9.3060   18.2570   21.3840 C.ar  500  HEM500      0.0000
      9  C3A        8.8050   18.7540   20.2200 C.ar  500  HEM500      0.0000
     10  C4A        7.7440   19.6940   20.5310 C.ar  500  HEM500      0.0000
     11  CMA        9.2730   18.4450   18.7800 C.3   500  HEM500      0.0000
     12  CAA       10.4160   17.1740   21.5920 C.3   500  HEM500      0.0000
     13  CBA       11.8230   17.7070   21.6550 C.3   500  HEM500      0.0000
     14  CGA       12.7420   16.5170   21.9080 C.2   500  HEM500      0.0000
     15  O1A       12.2790   15.3640   22.1000 O.co2 500  HEM500      0.0000
     16  O2A       13.9600   16.7830   21.9350 O.co2 500  HEM500      0.0000
     17  NB         5.2700   21.3090   21.1190 N.2   500  HEM500      0.0000
     18  C1B        5.8690   21.1310   19.9060 C.2   500  HEM500      0.0000
     19  C2B        5.1150   21.8640   18.9070 C.2   500  HEM500      0.0000
     20  C3B        4.0720   22.4180   19.5620 C.2   500  HEM500      0.0000
     21  C4B        4.1570   22.0790   20.9680 C.2   500  HEM500      0.0000
     22  CMB        5.3920   21.9880   17.3910 C.3   500  HEM500      0.0000
     23  CAB        2.9910   23.2870   18.9060 C.2   500  HEM500      0.0000
     24  CBB        1.7150   23.1920   19.2340 C.2   500  HEM500      0.0000
     25  NC         4.5950   21.6390   23.8770 N.ar  500  HEM500      0.0000
     26  C1C        3.5170   22.2980   23.3000 C.ar  500  HEM500      0.0000
     27  C2C        2.6950   22.8530   24.3520 C.ar  500  HEM500      0.0000
     28  C3C        3.2630   22.4820   25.5130 C.ar  500  HEM500      0.0000
     29  C4C        4.4640   21.7290   25.2270 C.ar  500  HEM500      0.0000
     30  CMC        1.4090   23.6790   24.1260 C.3   500  HEM500      0.0000
     31  CAC        2.8680   22.7570   26.9500 C.2   500  HEM500      0.0000
     32  CBC        1.6260   23.1870   27.2010 C.2   500  HEM500      0.0000
     33  ND         6.8810   20.0480   24.6630 N.2   500  HEM500      0.0000
     34  C1D        6.4190   20.4760   25.8770 C.2   500  HEM500      0.0000
     35  C2D        7.3210   20.0110   26.9020 C.2   500  HEM500      0.0000
     36  C3D        8.3980   19.2550   26.1930 C.2   500  HEM500      0.0000
     37  C4D        8.0320   19.2860   24.7910 C.2   500  HEM500      0.0000
     38  CMD        7.2160   20.2560   28.4090 C.3   500  HEM500      0.0000
     39  CAD        9.5900   18.5560   26.8840 C.3   500  HEM500      0.0000
     40  CBD       10.9050   19.2530   26.5130 C.3   500  HEM500      0.0000
     41  CGD       11.0470   20.6670   27.0670 C.2   500  HEM500      0.0000
     42  O1D       10.6740   20.9330   28.2310 O.co2 500  HEM500      0.0000
     43  O2D       11.4950   21.5170   26.2990 O.co2 500  HEM500      0.0000
@<TRIPOS>BOND
     1    22    19    1
     2    11     9    1
     3    23    24    2
     4    23    20    1
     5    19    20    2
     6    19    18    1
     7    20    21    1
     8     3    18    1
     9     3    10    2
    10    18    17    2
    11     9    10   ar
    12     9     8   ar
    13    10     6   ar
    14    21    17    1
    15    21     4    2
    16    17     1    1
    17     8    12    1
    18     8     7   ar
    19    12    13    1
    20    13    14    1
    21     6     7   ar
    22     6     1    1
    23    14    16   ar
    24    14    15   ar
    25     4    26    1
    26     7     2    2
    27     1    25    1
    28     1    33    1
    29    26    25   ar
    30    26    27   ar
    31     2    37    1
    32    25    29   ar
    33    30    27    1
    34    27    28   ar
    35    33    37    2
    36    33    34    1
    37    37    36    1
    38    29    28   ar
    39    29     5    1
    40    28    31    1
    41    34     5    2
    42    34    35    1
    43    36    39    1
    44    36    35    2
    45    43    41   ar
    46    40    39    1
    47    40    41    1
    48    35    38    1
    49    31    32    2
    50    41    42   ar
