@<TRIPOS>MOLECULE
2w3h_HEM_A_1.pdb
 43 50 0 0 0
SMALL
GASTEIGER

@<TRIPOS>ATOM
      1 FE          4.3420   20.3630   22.5120 Fe    500  HEM500      0.0000
      2  CHA        6.6640   17.9890   23.1220 C.2   500  HEM500      0.0000
      3  CHB        4.8340   19.9170   19.0890 C.2   500  HEM500      0.0000
      4  CHC        1.7760   22.4630   21.8120 C.2   500  HEM500      0.0000
      5  CHD        4.0470   21.0540   25.9010 C.2   500  HEM500      0.0000
      6  NA         5.5670   19.2070   21.3000 N.ar  500  HEM500      0.0000
      7  C1A        6.3600   18.1870   21.8000 C.ar  500  HEM500      0.0000
      8  C2A        6.8420   17.4050   20.6760 C.ar  500  HEM500      0.0000
      9  C3A        6.3360   17.9350   19.5630 C.ar  500  HEM500      0.0000
     10  C4A        5.5250   19.0900   19.9380 C.ar  500  HEM500      0.0000
     11  CMA        6.5320   17.4680   18.1080 C.3   500  HEM500      0.0000
     12  CAA        7.7410   16.1400   20.7690 C.3   500  HEM500      0.0000
     13  CBA        9.1940   16.4620   21.0250 C.3   500  HEM500      0.0000
     14  CGA        9.9120   15.1490   21.2210 C.2   500  HEM500      0.0000
     15  O1A        9.2440   14.0750   21.2130 O.co2 500  HEM500      0.0000
     16  O2A       11.1580   15.1940   21.3840 O.co2 500  HEM500      0.0000
     17  NB         3.4130   21.0250   20.7240 N.2   500  HEM500      0.0000
     18  C1B        3.8780   20.8300   19.4420 C.2   500  HEM500      0.0000
     19  C2B        3.1580   21.7160   18.5460 C.2   500  HEM500      0.0000
     20  C3B        2.3000   22.4200   19.3080 C.2   500  HEM500      0.0000
     21  C4B        2.4490   22.0040   20.6930 C.2   500  HEM500      0.0000
     22  CMB        3.3650   21.8180   17.0140 C.3   500  HEM500      0.0000
     23  CAB        1.3280   23.4920   18.7970 C.2   500  HEM500      0.0000
     24  CBB        0.0340   23.3730   19.0810 C.2   500  HEM500      0.0000
     25  NC         3.1230   21.5320   23.6770 N.ar  500  HEM500      0.0000
     26  C1C        2.1400   22.3380   23.1520 C.ar  500  HEM500      0.0000
     27  C2C        1.5410   23.0320   24.2730 C.ar  500  HEM500      0.0000
     28  C3C        2.1670   22.6440   25.4140 C.ar  500  HEM500      0.0000
     29  C4C        3.1800   21.6840   25.0490 C.ar  500  HEM500      0.0000
     30  CMC        0.3760   24.0540   24.1260 C.3   500  HEM500      0.0000
     31  CAC        1.9340   23.0910   26.8780 C.2   500  HEM500      0.0000
     32  CBC        0.7960   23.6850   27.2660 C.2   500  HEM500      0.0000
     33  ND         5.1790   19.6180   24.2510 N.2   500  HEM500      0.0000
     34  C1D        5.0210   20.1440   25.5360 C.2   500  HEM500      0.0000
     35  C2D        6.0450   19.6000   26.4120 C.2   500  HEM500      0.0000
     36  C3D        6.8580   18.6490   25.5340 C.2   500  HEM500      0.0000
     37  C4D        6.2530   18.7180   24.2170 C.2   500  HEM500      0.0000
     38  CMD        6.2960   19.8690   27.9170 C.3   500  HEM500      0.0000
     39  CAD        8.0750   17.8080   25.9930 C.3   500  HEM500      0.0000
     40  CBD        9.3910   18.4160   25.4690 C.3   500  HEM500      0.0000
     41  CGD        9.7150   19.7860   26.0250 C.2   500  HEM500      0.0000
     42  O1D       10.1810   20.6560   25.2340 O.co2 500  HEM500      0.0000
     43  O2D        9.5420   20.0270   27.2490 O.co2 500  HEM500      0.0000
@<TRIPOS>BOND
     1    22    19    1
     2    11     9    1
     3    19    20    2
     4    19    18    1
     5    23    24    2
     6    23    20    1
     7     3    18    1
     8     3    10    2
     9    20    21    1
    10    18    17    2
    11     9    10   ar
    12     9     8   ar
    13    10     6   ar
    14     8    12    1
    15     8     7   ar
    16    21    17    1
    17    21     4    2
    18    17     1    1
    19    12    13    1
    20    13    14    1
    21    15    14   ar
    22    14    16   ar
    23     6     7   ar
    24     6     1    1
    25     7     2    2
    26     4    26    1
    27     1    25    1
    28     1    33    1
    29     2    37    1
    30    26    25   ar
    31    26    27   ar
    32    25    29   ar
    33    30    27    1
    34    37    33    2
    35    37    36    1
    36    33    34    1
    37    27    28   ar
    38    29    28   ar
    39    29     5    1
    40    42    41   ar
    41    28    31    1
    42    40    39    1
    43    40    41    1
    44    36    39    1
    45    36    35    2
    46    34     5    2
    47    34    35    1
    48    41    43   ar
    49    35    38    1
    50    31    32    2
