@<TRIPOS>MOLECULE
2w3i_L1C_A_1.pdb
 40 44 0 0 0
SMALL
GASTEIGER

@<TRIPOS>ATOM
      1  F2        -0.9210    7.9840   26.6140 F     1246  L1C1246    -0.2041
      2  C14        0.2260    7.8330   25.9210 C.ar  1246  L1C1246     0.1424
      3  C15        1.0840    8.9090   25.7100 C.ar  1246  L1C1246     0.0590
      4  C16        2.2740    8.7330   24.9980 C.ar  1246  L1C1246     0.1407
      5  F1         3.0580    9.8100   24.8240 F     1246  L1C1246    -0.2043
      6  C17        2.6240    7.4770   24.4910 C.ar  1246  L1C1246     0.0344
      7  C18        1.7450    6.4090   24.7160 C.ar  1246  L1C1246     0.0027
      8  C13        0.5610    6.5840   25.4270 C.ar  1246  L1C1246     0.0295
      9  C8         3.9000    7.2200   23.7120 C.3   1246  L1C1246     0.1676
     10  O3         4.0340    5.8300   23.4060 O.3   1246  L1C1246    -0.2193
     11  C11        5.1570    7.5710   24.4740 C.3   1246  L1C1246     0.1300
     12  N2         6.1300    7.9890   23.4740 N.am  1246  L1C1246    -0.2528
     13  C12        7.4530    8.1580   23.6880 C.2   1246  L1C1246     0.3279
     14  O2         8.1810    8.4770   22.7690 O.2   1246  L1C1246    -0.2504
     15  N3         7.9550    7.8080   24.8800 N.am  1246  L1C1246    -0.1622
     16  C2         9.2820    7.7630   25.2280 C.ar  1246  L1C1246     0.0750
     17  C7         9.6120    7.2830   26.4910 C.ar  1246  L1C1246     0.0175
     18  C6        10.9390    7.2250   26.9070 C.ar  1246  L1C1246     0.0127
     19  C5        11.9450    7.6660   26.0510 C.ar  1246  L1C1246     0.0578
     20 CL1        13.6580    7.5930   26.5330 Cl    1246  L1C1246    -0.0822
     21  C4        11.6340    8.1560   24.7950 C.ar  1246  L1C1246     0.0127
     22  C3        10.3170    8.2080   24.3850 C.ar  1246  L1C1246     0.0175
     23  C10        5.4610    8.2640   22.1890 C.3   1246  L1C1246     0.1581
     24  C9         3.9740    8.0070   22.4260 C.3   1246  L1C1246     0.0658
     25  C1         5.9940    7.4120   21.0570 C.2   1246  L1C1246     0.2651
     26  O1         6.1700    7.9540   19.9920 O.2   1246  L1C1246    -0.2711
     27  N1         6.2730    6.1220   21.2860 N.am  1246  L1C1246    -0.1590
     28  C26        6.7840    5.2150   20.3930 C.ar  1246  L1C1246     0.1546
     29  C27        7.1110    5.5230   19.0710 C.ar  1246  L1C1246     0.0377
     30  C28        7.6240    4.5490   18.2290 C.ar  1246  L1C1246     0.0221
     31  C29        7.8110    3.2520   18.6830 C.ar  1246  L1C1246     0.0861
     32  C30        7.4750    2.9730   20.0080 C.ar  1246  L1C1246     0.1179
     33  N6         6.9770    3.9400   20.8130 N.ar  1246  L1C1246    -0.2258
     34  N4         8.3200    2.3210   17.8430 N.ar  1246  L1C1246    -0.2716
     35  C24        9.4590    1.6850   18.1590 C.ar  1246  L1C1246     0.0830
     36  C23       10.0360    0.7330   17.3230 C.ar  1246  L1C1246     0.0192
     37  C19        9.4270    0.4260   16.1110 C.ar  1246  L1C1246     0.0064
     38  C21        8.2490    1.0750   15.7580 C.ar  1246  L1C1246     0.0611
     39  C20        7.6910    2.0250   16.6120 C.ar  1246  L1C1246     0.2649
     40  O4         6.6380    2.6070   16.2770 O.2   1246  L1C1246    -0.2666
@<TRIPOS>BOND
     1    38    37   ar
     2    38    39   ar
     3    37    36   ar
     4    40    39    2
     5    39    34   ar
     6    36    35   ar
     7    34    35   ar
     8    34    31    1
     9    30    31   ar
    10    30    29   ar
    11    31    32   ar
    12    29    28   ar
    13    26    25    2
    14    32    33   ar
    15    28    33   ar
    16    28    27    1
    17    25    27   am
    18    25    23    1
    19    23    24    1
    20    23    12    1
    21    24     9    1
    22    14    13    2
    23    10     9    1
    24    12    13   am
    25    12    11    1
    26    13    15   am
    27     9    11    1
    28     9     6    1
    29    22    21   ar
    30    22    16   ar
    31     6     7   ar
    32     6     4   ar
    33     7     8   ar
    34    21    19   ar
    35     5     4    1
    36    15    16    1
    37     4     3   ar
    38    16    17   ar
    39     8     2   ar
    40     3     2   ar
    41     2     1    1
    42    19    20    1
    43    19    18   ar
    44    17    18   ar
