@<TRIPOS>MOLECULE
2w3l_DRO_A_1.pdb
 42 47 0 0 0
SMALL
GASTEIGER

@<TRIPOS>ATOM
      1  CBF       42.8420   26.9780  -10.6500 C.ar  1166  DRO1166     0.0152
      2  CBG       43.0780   28.2310  -10.0890 C.ar  1166  DRO1166     0.0013
      3  CBH       42.0500   28.9350   -9.4790 C.ar  1166  DRO1166     0.0001
      4  CBI       40.7550   28.4320   -9.4170 C.ar  1166  DRO1166     0.0013
      5  CBJ       40.5210   27.1650   -9.9990 C.ar  1166  DRO1166     0.0152
      6  CBE       41.5430   26.4520  -10.6360 C.ar  1166  DRO1166     0.0584
      7  NBB       41.3130   25.2090  -11.1710 N.am  1166  DRO1166    -0.2326
      8  CBD       40.9890   24.1940  -10.2930 C.ar  1166  DRO1166     0.0584
      9  CBK       39.6850   23.6500  -10.3650 C.ar  1166  DRO1166     0.0152
     10  CBL       39.2650   22.6330   -9.4860 C.ar  1166  DRO1166     0.0013
     11  CBM       40.1340   22.1660   -8.4870 C.ar  1166  DRO1166     0.0001
     12  CBN       41.4090   22.7280   -8.3720 C.ar  1166  DRO1166     0.0013
     13  CBO       41.8250   23.7360   -9.2690 C.ar  1166  DRO1166     0.0152
     14  CBA       41.3370   24.9230  -12.4800 C.2   1166  DRO1166     0.2768
     15  OBC       41.1000   23.7790  -12.8800 O.2   1166  DRO1166    -0.2675
     16  CAH       41.5730   26.0330  -13.5520 C.ar  1166  DRO1166     0.1668
     17  NAG       40.9820   27.2380  -13.5530 N.ar  1166  DRO1166    -0.1598
     18  CAI       42.2620   25.9350  -14.7490 C.ar  1166  DRO1166     0.0950
     19 CL1        43.1970   24.5660  -15.2720 Cl    1166  DRO1166    -0.0792
     20  CAJ       42.0910   27.1720  -15.3660 C.ar  1166  DRO1166     0.0730
     21  CAK       42.6950   27.6000  -16.7180 C.3   1166  DRO1166     0.0531
     22  NAF       41.2840   27.8960  -14.5640 N.ar  1166  DRO1166    -0.2326
     23  CAE       40.8250   29.1540  -14.7700 C.ar  1166  DRO1166     0.0868
     24  CAA       41.6730   30.2590  -14.7760 C.ar  1166  DRO1166     0.0193
     25  CAB       41.1590   31.5400  -14.9990 C.ar  1166  DRO1166     0.0015
     26  CAC       39.7990   31.7310  -15.1880 C.ar  1166  DRO1166     0.0002
     27  CAY       38.9370   30.6560  -15.1610 C.ar  1166  DRO1166     0.0060
     28  CAD       39.4440   29.3720  -14.9410 C.ar  1166  DRO1166     0.0712
     29  CAL       38.4770   28.1720  -14.9150 C.2   1166  DRO1166     0.2507
     30  OAN       38.5170   27.3230  -15.8220 O.2   1166  DRO1166    -0.2698
     31  NAM       37.5940   27.9950  -13.9150 N.am  1166  DRO1166    -0.2718
     32  CAQ       37.4770   28.9140  -12.7100 C.3   1166  DRO1166     0.1201
     33  CAR       37.2660   28.0320  -11.4440 C.ar  1166  DRO1166    -0.0062
     34  CAW       37.2270   28.6510  -10.1810 C.ar  1166  DRO1166    -0.0029
     35  CAV       37.0210   27.9080   -9.0080 C.ar  1166  DRO1166    -0.0003
     36  CAU       36.8410   26.5420   -9.0850 C.ar  1166  DRO1166    -0.0003
     37  CAT       36.8830   25.9080  -10.3210 C.ar  1166  DRO1166    -0.0045
     38  CAS       37.0810   26.6460  -11.5010 C.ar  1166  DRO1166    -0.0228
     39  CAP       37.1010   25.8520  -12.8090 C.3   1166  DRO1166     0.0474
     40  CAO       36.7270   26.7900  -13.9710 C.3   1166  DRO1166     0.0993
     41  CAX       35.2460   27.1830  -13.8690 C.3   1166  DRO1166     0.1293
     42  NAZ       34.6130   27.0100  -15.1750 N.3   1166  DRO1166    -0.1296
@<TRIPOS>BOND
     1    21    20    1
     2    30    29    2
     3    20    18   ar
     4    20    22   ar
     5    19    18    1
     6    26    27   ar
     7    26    25   ar
     8    42    41    1
     9    27    28   ar
    10    25    24   ar
    11    28    29    1
    12    28    23   ar
    13    29    31   am
    14    24    23   ar
    15    23    22    1
    16    18    16   ar
    17    22    17   ar
    18    40    31    1
    19    40    41    1
    20    40    39    1
    21    31    32    1
    22    17    16   ar
    23    16    14    1
    24    15    14    2
    25    39    38    1
    26    32    33    1
    27    14     7   am
    28    38    33   ar
    29    38    37   ar
    30    33    34   ar
    31     7     6    1
    32     7     8    1
    33     1     6   ar
    34     1     2   ar
    35     6     5   ar
    36     9     8   ar
    37     9    10   ar
    38    37    36   ar
    39     8    13   ar
    40    34    35   ar
    41     2     3   ar
    42     5     4   ar
    43    10    11   ar
    44     3     4   ar
    45    13    12   ar
    46    36    35   ar
    47    11    12   ar
