@<TRIPOS>MOLECULE
2w3m_FOL_A_1.pdb
 32 34 0 0 0
SMALL
GASTEIGER

@<TRIPOS>ATOM
      1  N1         2.3360   27.0380   -5.0090 N.2   1188  FOL1188    -0.2672
      2  C2         2.4810   27.6650   -6.2070 C.1   1188  FOL1188     0.2609
      3  NA2        2.2060   26.9280   -7.3150 N.pl3 1188  FOL1188    -0.0220
      4  N3         2.9050   28.9910   -6.2500 N.2   1188  FOL1188    -0.2466
      5  C4         3.1640   29.7030   -5.0890 C.1   1188  FOL1188     0.2569
      6  O4         3.5480   30.8900   -5.1210 O.2   1188  FOL1188    -0.2052
      7  C4A        2.9680   29.0630   -3.8700 C.2   1188  FOL1188     0.2988
      8  N5         3.1940   29.7460   -2.6770 N.2   1188  FOL1188    -0.3839
      9  C6         3.0040   29.1070   -1.4660 C.2   1188  FOL1188     0.1356
     10  C7         2.5670   27.7700   -1.4500 C.3   1188  FOL1188     0.1931
     11  N8         2.3670   27.0770   -2.6290 N.2   1188  FOL1188    -0.1992
     12  C8A        2.5480   27.7310   -3.8390 C.1   1188  FOL1188     0.1401
     13  C9         3.2120   29.8260   -0.1510 C.3   1188  FOL1188     0.1683
     14  N10        3.0910   31.2850   -0.2380 N.pl3 1188  FOL1188    -0.2303
     15  C11       -0.3340   33.5540   -0.9710 C.ar  1188  FOL1188     0.0551
     16  C12        0.8800   34.1700   -0.6630 C.ar  1188  FOL1188     0.0059
     17  C13        2.0080   33.3690   -0.4290 C.ar  1188  FOL1188     0.0162
     18  C14        1.9460   31.9690   -0.4650 C.ar  1188  FOL1188     0.0658
     19  C15        0.7180   31.3810   -0.7490 C.ar  1188  FOL1188     0.0162
     20  C16       -0.4060   32.1650   -0.9840 C.ar  1188  FOL1188     0.0059
     21  C         -1.5810   34.3490   -1.2420 C.2   1188  FOL1188     0.2652
     22  O         -1.7410   35.6550   -0.7580 O.2   1188  FOL1188    -0.2684
     23  N         -2.5340   33.7750   -1.9890 N.am  1188  FOL1188    -0.1918
     24  CA        -3.8080   34.4380   -2.2660 C.3   1188  FOL1188     0.1986
     25  CB        -3.7870   35.4400   -3.3970 C.3   1188  FOL1188     0.0451
     26  CG        -3.2270   34.8990   -4.6900 C.3   1188  FOL1188     0.1164
     27  CD        -3.1820   36.0450   -5.6660 C.2   1188  FOL1188     0.3649
     28  OE1       -2.5200   37.0530   -5.3830 O.co2 1188  FOL1188    -0.2457
     29  OE2       -3.7980   36.0310   -6.7470 O.co2 1188  FOL1188    -0.2457
     30  CT        -4.8890   33.4450   -2.5430 C.2   1188  FOL1188     0.3842
     31  O1        -4.6050   32.2260   -2.7800 O.co2 1188  FOL1188    -0.2437
     32  O2        -6.0730   33.8950   -2.5430 O.co2 1188  FOL1188    -0.2437
@<TRIPOS>BOND
     1     3     2    1
     2    29    27   ar
     3     4     2    2
     4     4     5    2
     5     2     1    2
     6    27    28   ar
     7    27    26    1
     8     6     5    2
     9     5     7    1
    10     1    12    2
    11    26    25    1
    12     7    12    1
    13     7     8    2
    14    12    11    2
    15    25    24    1
    16    31    30   ar
    17     8     9    2
    18    11    10    1
    19    30    32   ar
    20    30    24    1
    21    24    23    1
    22    23    21   am
    23     9    10    1
    24     9    13    1
    25    21    15    1
    26    21    22    2
    27    20    15   ar
    28    20    19   ar
    29    15    16   ar
    30    19    18   ar
    31    16    17   ar
    32    18    17   ar
    33    18    14    1
    34    14    13    1
