@<TRIPOS>MOLECULE
2w3m_NDP_A_1.pdb
 48 52 0 0 0
SMALL
GASTEIGER

@<TRIPOS>ATOM
      1  PA         7.3250   26.1550    7.5030 P.3   1187  NDP1187     0.2189
      2  O1A        7.3200   24.7020    7.3440 O.3   1187  NDP1187    -0.4371
      3  O2A        6.1890   26.8620    6.8960 O.2   1187  NDP1187    -0.5170
      4  O5B        7.2470   26.5480    9.0700 O.3   1187  NDP1187    -0.3112
      5  C5B        8.0900   26.0270   10.0920 C.3   1187  NDP1187     0.1813
      6  C4B        7.3150   25.8870   11.4120 C.3   1187  NDP1187     0.1820
      7  O4B        6.0540   25.2630   11.1830 O.3   1187  NDP1187    -0.3136
      8  C3B        7.9870   24.9850   12.4480 C.3   1187  NDP1187     0.2157
      9  O3B        8.9910   25.6480   13.1930 O.3   1187  NDP1187    -0.2175
     10  C2B        6.8120   24.5350   13.2780 C.3   1187  NDP1187     0.2314
     11  O2B        6.3580   25.5760   14.1230 O.3   1187  NDP1187    -0.2630
     12  C1B        5.7640   24.3270   12.1950 C.3   1187  NDP1187     0.3158
     13  N9A        5.7520   22.9920   11.5840 N.pl3 1187  NDP1187    -0.1439
     14  C8A        6.2540   22.5900   10.3620 C.3   1187  NDP1187     0.3377
     15  N7A        5.9610   21.2670   10.1990 N.2   1187  NDP1187    -0.2095
     16  C5A        5.2900   20.8350   11.3000 C.2   1187  NDP1187     0.2526
     17  C6A        4.7450   19.6100   11.6940 C.2   1187  NDP1187     0.4393
     18  N6A        4.8610   18.5040   10.9650 N.pl3 1187  NDP1187     0.2180
     19  N1A        4.0900   19.5130   12.8930 N.2   1187  NDP1187     0.0021
     20  C2A        3.9640   20.5950   13.7300 C.3   1187  NDP1187     0.5254
     21  N3A        4.4990   21.8090   13.3580 N.2   1187  NDP1187    -0.0055
     22  C4A        5.1420   21.9170   12.1650 C.2   1187  NDP1187     0.3518
     23  O3         8.7640   26.7620    7.1500 O.3   1187  NDP1187    -0.2703
     24  PN         9.7340   26.8320    5.8520 P.3   1187  NDP1187     0.2189
     25  O1N        9.9830   25.4590    5.3600 O.2   1187  NDP1187    -0.5170
     26  O2N       10.8760   27.6900    6.2750 O.3   1187  NDP1187    -0.4371
     27  O5D        8.9090   27.5770    4.6900 O.3   1187  NDP1187    -0.3112
     28  C5D        8.6610   28.9680    4.5930 C.3   1187  NDP1187     0.1813
     29  C4D        9.4320   29.5480    3.4120 C.3   1187  NDP1187     0.1799
     30  O4D        9.0650   28.8340    2.2490 O.3   1187  NDP1187    -0.3327
     31  C3D        9.1650   31.0250    3.1230 C.3   1187  NDP1187     0.2158
     32  O3D       10.2910   31.6560    2.5010 O.3   1187  NDP1187    -0.2175
     33  C2D        8.0080   30.9610    2.1460 C.3   1187  NDP1187     0.2309
     34  O2D        7.9150   32.1690    1.4200 O.3   1187  NDP1187    -0.2158
     35  C1D        8.4080   29.7230    1.3540 C.3   1187  NDP1187     0.2263
     36  N1N        7.2730   29.0660    0.7330 N.pl3 1187  NDP1187    -0.2787
     37  C2N        7.3220   28.9130   -0.6190 C.3   1187  NDP1187     0.1244
     38  C3N        6.4210   28.1390   -1.3000 C.2   1187  NDP1187     0.0544
     39  C7N        6.5860   27.9140   -2.7780 C.2   1187  NDP1187     0.2818
     40  O7N        5.6710   27.0700   -3.3680 O.2   1187  NDP1187    -0.2670
     41  N7N        7.5860   28.4790   -3.4760 N.am  1187  NDP1187    -0.0839
     42  C4N        5.5620   27.1800   -0.5200 C.2   1187  NDP1187     0.0033
     43  C5N        5.5760   27.4480    0.9520 C.2   1187  NDP1187     0.0157
     44  C6N        6.4350   28.3480    1.5250 C.2   1187  NDP1187     0.0633
     45  P2B        6.6700   25.6790   15.6880 P.3   1187  NDP1187     0.5328
     46  O1X        8.1120   26.1000   15.7980 O.2   1187  NDP1187    -0.2224
     47  O2X        5.7690   26.7100   16.3370 O.3   1187  NDP1187    -0.1145
     48  O3X        6.4260   24.3200   16.2580 O.3   1187  NDP1187    -0.1145
@<TRIPOS>BOND
     1    41    39   am
     2    40    39    2
     3    39    38    1
     4    38    37    1
     5    38    42    2
     6    37    36    1
     7    42    43    1
     8    36    35    1
     9    36    44    1
    10    43    44    2
    11    35    33    1
    12    35    30    1
    13    34    33    1
    14    33    31    1
    15    30    29    1
    16    32    31    1
    17    31    29    1
    18    29    28    1
    19    28    27    1
    20    27    24    1
    21    25    24    2
    22    24    26    1
    23    24    23    1
    24     3     1    2
    25    23     1    1
    26     2     1    1
    27     1     4    1
    28     4     5    1
    29     5     6    1
    30    15    14    1
    31    15    16    2
    32    14    13    1
    33    18    17    1
    34     7     6    1
    35     7    12    1
    36    16    17    1
    37    16    22    1
    38     6     8    1
    39    13    22    1
    40    13    12    1
    41    17    19    2
    42    22    21    2
    43    12    10    1
    44     8     9    1
    45     8    10    1
    46    19    20    1
    47    10    11    1
    48    21    20    1
    49    11    45    1
    50    45    46    2
    51    45    48    1
    52    45    47    1
