@<TRIPOS>MOLECULE
2w3r_MPN_B_1.pdb
 24 26 0 0 0
SMALL
GASTEIGER

@<TRIPOS>ATOM
      1  O3P       22.6600   10.6550   14.3740 O.3   1778  MPN1778    -0.1145
      2  P         21.6150    9.5830   14.1560 P.3   1778  MPN1778     0.5327
      3  O1P       21.8750    8.6320   13.0130 O.2   1778  MPN1778    -0.2224
      4  O2P       21.1380    8.9070   15.4170 O.3   1778  MPN1778    -0.1145
      5  O4'       20.3530   10.4470   13.6750 O.3   1778  MPN1778    -0.2660
      6  C4'       19.5980   11.1830   14.6690 C.3   1778  MPN1778     0.2023
      7  C3'       19.9390   12.4220   15.0460 C.3   1778  MPN1778     0.2279
      8  C2'       19.1690   13.0400   16.1100 C.2   1778  MPN1778     0.0647
      9  S2'       18.8600   12.2990   17.5650 S.2   1778  MPN1778    -0.0510
     10  O3'       20.8530   13.2480   14.2730 O.2   1778  MPN1778    -0.4454
     11  C7        20.3920   14.6090   14.1450 C.2   1778  MPN1778     0.3191
     12  C6        18.9700   14.7970   14.6760 C.2   1778  MPN1778     0.2063
     13  C1'       18.6780   14.2500   15.8630 C.2   1778  MPN1778     0.0770
     14  S1'       17.7550   15.0260   17.0240 S.2   1778  MPN1778    -0.0475
     15  N5        17.9830   15.1190   13.8300 N.2   1778  MPN1778    -0.3715
     16  N8        20.6320   15.0750   12.7760 N.2   1778  MPN1778    -0.2965
     17  C10       19.6300   15.4630   11.9520 C.1   1778  MPN1778     0.1969
     18  C9        18.2470   15.5010   12.4550 C.2   1778  MPN1778     0.3115
     19  C4        17.1970   15.9290   11.5040 C.1   1778  MPN1778     0.2580
     20  O4        16.0010   15.9880   11.8490 O.2   1778  MPN1778    -0.2051
     21  N3        17.5630   16.2620   10.2430 N.2   1778  MPN1778    -0.2465
     22  C2        18.8610   16.2080    9.8360 C.1   1778  MPN1778     0.2618
     23  N1        19.8690   15.8200   10.6660 N.2   1778  MPN1778    -0.2550
     24  N2        19.1580   16.5560    8.5610 N.pl3 1778  MPN1778    -0.0220
@<TRIPOS>BOND
     1    24    22    1
     2    22    21    2
     3    22    23    2
     4    21    19    2
     5    23    17    2
     6    19    20    2
     7    19    18    1
     8    17    18    1
     9    17    16    2
    10    18    15    2
    11    16    11    2
    12     3     2    2
    13     5     2    1
    14     5     6    1
    15    15    12    2
    16    11    10    1
    17    11    12    1
    18     2     1    1
    19     2     4    1
    20    10     7    1
    21     6     7    1
    22    12    13    1
    23     7     8    1
    24    13     8    1
    25    13    14    2
    26     8     9    2
