@<TRIPOS>MOLECULE
2w3r_HPA_B_1.pdb
 10 11 0 0 0
SMALL
GASTEIGER

@<TRIPOS>ATOM
      1  N1        17.6230   10.9300   23.6490 N.2   1780  HPA1780    -0.1726
      2  C2        16.3150   10.4960   23.5160 C.3   1780  HPA1780     0.2725
      3  N3        15.7450    9.6960   24.4910 N.2   1780  HPA1780    -0.1902
      4  C4        16.4670    9.3200   25.5850 C.1   1780  HPA1780     0.0598
      5  C5        17.7880    9.7420   25.7350 C.2   1780  HPA1780     0.2226
      6  C6        18.3690   10.5520   24.7560 C.1   1780  HPA1780     0.1796
      7  O6        19.5360   10.9300   24.8800 O.2   1780  HPA1780    -0.2200
      8  N7        18.2540    9.2270   26.8960 N.2   1780  HPA1780    -0.2230
      9  C8        17.2610    8.5010   27.4620 C.3   1780  HPA1780     0.2622
     10  N9        16.1690    8.5560   26.6620 N.2   1780  HPA1780    -0.1910
@<TRIPOS>BOND
     1     2     1    1
     2     2     3    1
     3     1     6    2
     4     3     4    2
     5     6     7    2
     6     6     5    1
     7     4     5    1
     8     4    10    2
     9     5     8    2
    10    10     9    1
    11     8     9    1
