@<TRIPOS>MOLECULE
2w3s_XAN_B_1.pdb
 11 12 0 0 0
SMALL
GASTEIGER

@<TRIPOS>ATOM
      1  N9        15.7250   10.3520   23.4250 N.2   1780  XAN1780    -0.1801
      2  C4        15.9460    9.7160   24.5790 C.1   1780  XAN1780     0.1305
      3  N3        15.2150    8.9370   25.3870 N.2   1780  XAN1780    -0.2508
      4  C2        15.7380    8.4270   26.5280 C.1   1780  XAN1780     0.3744
      5  O2        15.0110    7.7000   27.2530 O.2   1780  XAN1780    -0.1738
      6  N1        17.0130    8.6650   26.9260 N.2   1780  XAN1780    -0.2300
      7  C6        17.8540    9.4310   26.2100 C.1   1780  XAN1780     0.2457
      8  O6        19.0290    9.6470   26.5860 O.2   1780  XAN1780    -0.2062
      9  C5        17.3430   10.0200   24.9460 C.2   1780  XAN1780     0.2483
     10  N7        17.8470   10.8160   23.9810 N.2   1780  XAN1780    -0.2212
     11  C8        16.8630   11.0090   23.0680 C.3   1780  XAN1780     0.2633
@<TRIPOS>BOND
     1    11     1    1
     2    11    10    1
     3     1     2    2
     4    10     9    2
     5     2     9    1
     6     2     3    2
     7     9     7    1
     8     3     4    2
     9     7     8    2
    10     7     6    2
    11     4     6    2
    12     4     5    2
