@<TRIPOS>MOLECULE
2w3s_MPN_B_1.pdb
 24 26 0 0 0
SMALL
GASTEIGER

@<TRIPOS>ATOM
      1  O3P       21.0480    8.4710   12.8780 O.2   1778  MPN1778    -0.2224
      2  P         21.4200    9.2790   14.0990 P.3   1778  MPN1778     0.5327
      3  O1P       21.0810    8.6050   15.4150 O.3   1778  MPN1778    -0.1145
      4  O2P       22.7710    9.9690   14.0700 O.3   1778  MPN1778    -0.1145
      5  O4'       20.5190   10.6040   14.1060 O.3   1778  MPN1778    -0.2660
      6  C4'       20.7540   11.4790   15.2490 C.3   1778  MPN1778     0.2023
      7  C3'       20.4390   12.7650   15.1900 C.3   1778  MPN1778     0.2279
      8  C2'       19.4590   13.2950   16.1140 C.2   1778  MPN1778     0.0647
      9  S2'       19.1820   12.5780   17.5900 S.2   1778  MPN1778    -0.0510
     10  O3'       20.9620   13.5690   14.1000 O.2   1778  MPN1778    -0.4454
     11  C7        20.3750   14.8710   13.9600 C.2   1778  MPN1778     0.3191
     12  C6        18.9750   14.9340   14.5460 C.2   1778  MPN1778     0.2063
     13  C1'       18.7540   14.3710   15.7470 C.2   1778  MPN1778     0.0770
     14  S1'       17.6070   14.9970   16.7930 S.2   1778  MPN1778    -0.0475
     15  N5        17.9360   15.0810   13.7150 N.2   1778  MPN1778    -0.3715
     16  N8        20.5160   15.2110   12.5500 N.2   1778  MPN1778    -0.2965
     17  C10       19.4680   15.5220   11.7710 C.1   1778  MPN1778     0.1969
     18  C9        18.1070   15.4670   12.3300 C.2   1778  MPN1778     0.3115
     19  C4        17.0040   15.8270   11.4100 C.1   1778  MPN1778     0.2580
     20  O4        15.8130   15.8250   11.7640 O.2   1778  MPN1778    -0.2051
     21  N3        17.3160   16.1810   10.1420 N.2   1778  MPN1778    -0.2465
     22  C2        18.5950   16.2140    9.6950 C.1   1778  MPN1778     0.2618
     23  N1        19.6480   15.8900   10.4890 N.2   1778  MPN1778    -0.2550
     24  N2        18.8160   16.5810    8.4170 N.pl3 1778  MPN1778    -0.0220
@<TRIPOS>BOND
     1    24    22    1
     2    22    21    2
     3    22    23    2
     4    21    19    2
     5    23    17    2
     6    19    20    2
     7    19    18    1
     8    17    18    1
     9    17    16    2
    10    18    15    2
    11    16    11    2
    12     1     2    2
    13    15    12    2
    14    11    10    1
    15    11    12    1
    16     4     2    1
    17     2     5    1
    18     2     3    1
    19    10     7    1
    20     5     6    1
    21    12    13    1
    22     7     6    1
    23     7     8    1
    24    13     8    1
    25    13    14    2
    26     8     9    2
