@<TRIPOS>MOLECULE
2w3v_NDP_A_1.pdb
 48 52 0 0 0
SMALL
GASTEIGER

@<TRIPOS>ATOM
      1  PA        55.7480   21.1270   43.2900 P.3   1168  NDP1168     0.2189
      2  O1A       56.9170   20.3300   42.9120 O.3   1168  NDP1168    -0.4371
      3  O2A       54.5850   21.2870   42.3540 O.2   1168  NDP1168    -0.5170
      4  O5B       55.1890   20.5020   44.6650 O.3   1168  NDP1168    -0.3112
      5  C5B       55.9480   20.6190   45.8520 C.3   1168  NDP1168     0.1813
      6  C4B       55.2670   19.7820   46.9170 C.3   1168  NDP1168     0.1820
      7  O4B       55.4350   18.3840   46.6550 O.3   1168  NDP1168    -0.3136
      8  C3B       55.8320   19.9980   48.3200 C.3   1168  NDP1168     0.2157
      9  O3B       55.2760   21.1460   48.9460 O.3   1168  NDP1168    -0.2175
     10  C2B       55.3800   18.6970   48.9610 C.3   1168  NDP1168     0.2314
     11  O2B       53.9990   18.8100   49.2510 O.3   1168  NDP1168    -0.2630
     12  C1B       55.4990   17.6520   47.8640 C.3   1168  NDP1168     0.3158
     13  N9A       56.7720   16.9250   47.9490 N.pl3 1168  NDP1168    -0.1439
     14  C8A       57.9990   17.4120   47.5530 C.3   1168  NDP1168     0.3377
     15  N7A       58.9230   16.4650   47.7730 N.2   1168  NDP1168    -0.2095
     16  C5A       58.2990   15.3710   48.2970 C.2   1168  NDP1168     0.2526
     17  C6A       58.7820   14.1420   48.7080 C.2   1168  NDP1168     0.4393
     18  N6A       60.0940   13.8600   48.6380 N.pl3 1168  NDP1168     0.2180
     19  N1A       57.9020   13.2040   49.2050 N.2   1168  NDP1168     0.0021
     20  C2A       56.5600   13.4980   49.3040 C.3   1168  NDP1168     0.5254
     21  N3A       56.0780   14.7140   48.9150 N.2   1168  NDP1168    -0.0055
     22  C4A       56.9450   15.6440   48.4040 C.2   1168  NDP1168     0.3518
     23  O3        56.1380   22.6150   43.7590 O.3   1168  NDP1168    -0.2703
     24  PN        57.1000   23.7070   43.0860 P.3   1168  NDP1168     0.2189
     25  O1N       58.4590   23.1800   43.1470 O.2   1168  NDP1168    -0.5170
     26  O2N       56.8790   24.9700   43.8610 O.3   1168  NDP1168    -0.4371
     27  O5D       56.6160   23.9820   41.5990 O.3   1168  NDP1168    -0.3112
     28  C5D       55.3490   24.5560   41.3820 C.3   1168  NDP1168     0.1813
     29  C4D       55.4410   25.7040   40.4080 C.3   1168  NDP1168     0.1799
     30  O4D       55.7280   25.2270   39.1100 O.3   1168  NDP1168    -0.3327
     31  C3D       54.1260   26.4570   40.3160 C.3   1168  NDP1168     0.2158
     32  O3D       54.3940   27.8270   40.1440 O.3   1168  NDP1168    -0.2175
     33  C2D       53.5350   26.0030   39.0020 C.3   1168  NDP1168     0.2309
     34  O2D       52.7520   27.0160   38.4080 O.3   1168  NDP1168    -0.2158
     35  C1D       54.7910   25.7490   38.1840 C.3   1168  NDP1168     0.2263
     36  N1N       54.4780   24.7980   37.0880 N.pl3 1168  NDP1168    -0.2787
     37  C2N       54.9740   25.0980   35.8500 C.3   1168  NDP1168     0.1244
     38  C3N       54.9240   24.1620   34.8300 C.2   1168  NDP1168     0.0544
     39  C7N       55.5390   24.4930   33.5120 C.2   1168  NDP1168     0.2818
     40  O7N       55.7070   23.3990   32.6810 O.2   1168  NDP1168    -0.2670
     41  N7N       55.9300   25.7480   33.1740 N.am  1168  NDP1168    -0.0839
     42  C4N       54.3810   22.7560   35.0620 C.2   1168  NDP1168     0.0033
     43  C5N       53.8370   22.5400   36.4470 C.2   1168  NDP1168     0.0157
     44  C6N       53.9080   23.5710   37.3820 C.2   1168  NDP1168     0.0633
     45  P2B       53.4140   18.9530   50.7700 P.3   1168  NDP1168     0.5328
     46  O1X       53.9310   20.2970   51.2180 O.3   1168  NDP1168    -0.1145
     47  O2X       51.9170   19.0440   50.6460 O.2   1168  NDP1168    -0.2224
     48  O3X       53.8920   17.7780   51.5720 O.3   1168  NDP1168    -0.1145
@<TRIPOS>BOND
     1    40    39    2
     2    41    39   am
     3    39    38    1
     4    38    42    2
     5    38    37    1
     6    42    43    1
     7    37    36    1
     8    43    44    2
     9    36    44    1
    10    36    35    1
    11    35    33    1
    12    35    30    1
    13    34    33    1
    14    33    31    1
    15    30    29    1
    16    32    31    1
    17    31    29    1
    18    29    28    1
    19    28    27    1
    20    27    24    1
    21     3     1    2
    22     2     1    1
    23    24    25    2
    24    24    23    1
    25    24    26    1
    26     1    23    1
    27     1     4    1
    28     4     5    1
    29     5     6    1
    30     7     6    1
    31     7    12    1
    32     6     8    1
    33    14    15    1
    34    14    13    1
    35    15    16    2
    36    12    13    1
    37    12    10    1
    38    13    22    1
    39    16    22    1
    40    16    17    1
    41     8     9    1
    42     8    10    1
    43    22    21    2
    44    18    17    1
    45    17    19    2
    46    21    20    1
    47    10    11    1
    48    19    20    1
    49    11    45    1
    50    47    45    2
    51    45    46    1
    52    45    48    1
