@<TRIPOS>MOLECULE
2w3v_TOP_A_1.pdb
 21 22 0 0 0
SMALL
GASTEIGER

@<TRIPOS>ATOM
      1  C1        52.0400   22.6800   30.9990 C.2   1169  TOP1169     0.1118
      2  N2        52.7790   22.6950   29.8620 N.2   1169  TOP1169    -0.1675
      3  C3        53.7700   21.7440   29.6900 C.1   1169  TOP1169     0.1877
      4  N4        54.4860   21.7320   28.5630 N.pl3 1169  TOP1169    -0.0345
      5  N5        54.0770   20.8430   30.6390 N.2   1169  TOP1169    -0.3170
      6  C6        53.3610   20.8290   31.7910 C.2   1169  TOP1169     0.2297
      7  N7        53.6560   19.9380   32.7550 N.pl3 1169  TOP1169    -0.0924
      8  C8        52.3110   21.7290   31.9970 C.2   1169  TOP1169     0.0500
      9  C9        51.5340   21.6300   33.3160 C.3   1169  TOP1169     0.0585
     10  C10       50.3460   22.5620   33.3730 C.ar  1169  TOP1169    -0.0114
     11  C11       49.2160   22.4700   32.5540 C.ar  1169  TOP1169     0.0363
     12  C12       48.1860   23.4240   32.7030 C.ar  1169  TOP1169     0.1751
     13  O13       47.0630   23.3870   31.9200 O.3   1169  TOP1169    -0.4683
     14  C14       46.6480   22.2350   31.2020 C.3   1169  TOP1169     0.2526
     15  C15       48.2870   24.4680   33.6310 C.ar  1169  TOP1169     0.2060
     16  O16       47.2690   25.4010   33.7670 O.3   1169  TOP1169    -0.4654
     17  C17       47.2240   26.5480   32.9180 C.3   1169  TOP1169     0.2528
     18  C18       49.4210   24.5440   34.4400 C.ar  1169  TOP1169     0.1751
     19  O19       49.5510   25.5290   35.3910 O.3   1169  TOP1169    -0.4683
     20  C20       50.5120   25.4200   36.4510 C.3   1169  TOP1169     0.2526
     21  C21       50.4210   23.5830   34.3120 C.ar  1169  TOP1169     0.0363
@<TRIPOS>BOND
     1     4     3    1
     2     3     2    2
     3     3     5    2
     4     2     1    1
     5     5     6    2
     6     1     8    2
     7    14    13    1
     8     6     8    1
     9     6     7    1
    10    13    12    1
    11     8     9    1
    12    11    12   ar
    13    11    10   ar
    14    12    15   ar
    15    17    16    1
    16     9    10    1
    17    10    21   ar
    18    15    16    1
    19    15    18   ar
    20    21    18   ar
    21    18    19    1
    22    19    20    1
