@<TRIPOS>MOLECULE
2w3w_NDP_A_1.pdb
 48 52 0 0 0
SMALL
GASTEIGER

@<TRIPOS>ATOM
      1  PA        21.2390    4.9620   52.6200 P.3   1169  NDP1169     0.2189
      2  O1A       20.7970    3.5790   52.8850 O.3   1169  NDP1169    -0.4371
      3  O2A       20.3320    5.8430   51.8450 O.2   1169  NDP1169    -0.5170
      4  O5B       21.6040    5.7740   53.9490 O.3   1169  NDP1169    -0.3112
      5  C5B       22.5010    5.1640   54.8460 C.3   1169  NDP1169     0.1813
      6  C4B       22.4270    5.9410   56.1630 C.3   1169  NDP1169     0.1820
      7  O4B       21.2550    5.4790   56.8340 O.3   1169  NDP1169    -0.3136
      8  C3B       23.5720    5.7710   57.1710 C.3   1169  NDP1169     0.2157
      9  O3B       24.6300    6.6640   56.8020 O.3   1169  NDP1169    -0.2175
     10  C2B       22.8180    6.1770   58.4200 C.3   1169  NDP1169     0.2314
     11  O2B       22.6350    7.5830   58.5160 O.3   1169  NDP1169    -0.2630
     12  C1B       21.4270    5.5400   58.2140 C.3   1169  NDP1169     0.3158
     13  N9A       21.3780    4.1910   58.7940 N.pl3 1169  NDP1169    -0.1439
     14  C8A       21.9000    3.0390   58.2750 C.3   1169  NDP1169     0.3377
     15  N7A       21.6590    2.0330   59.1430 N.2   1169  NDP1169    -0.2095
     16  C5A       20.9840    2.5520   60.2040 C.2   1169  NDP1169     0.2526
     17  C6A       20.4810    1.9950   61.3460 C.2   1169  NDP1169     0.4393
     18  N6A       20.7370    0.6980   61.6150 N.pl3 1169  NDP1169     0.2180
     19  N1A       19.8230    2.7830   62.2510 N.2   1169  NDP1169     0.0021
     20  C2A       19.6360    4.1250   62.0070 C.3   1169  NDP1169     0.5254
     21  N3A       20.1480    4.6670   60.8460 N.2   1169  NDP1169    -0.0055
     22  C4A       20.7900    3.8990   59.9760 C.2   1169  NDP1169     0.3518
     23  O3        22.6840    5.0310   51.8810 O.3   1169  NDP1169    -0.2703
     24  PN        23.4210    4.0680   50.8400 P.3   1169  NDP1169     0.2189
     25  O1N       23.4060    2.6690   51.2370 O.3   1169  NDP1169    -0.4371
     26  O2N       24.7570    4.7170   50.5760 O.2   1169  NDP1169    -0.5170
     27  O5D       22.5730    4.3220   49.5140 O.3   1169  NDP1169    -0.3112
     28  C5D       22.4510    5.5510   48.8060 C.3   1169  NDP1169     0.1813
     29  C4D       22.8090    5.3190   47.3490 C.3   1169  NDP1169     0.1799
     30  O4D       21.7140    4.6000   46.7430 O.3   1169  NDP1169    -0.3327
     31  C3D       22.9770    6.5520   46.4730 C.3   1169  NDP1169     0.2158
     32  O3D       23.9290    6.2580   45.4610 O.3   1169  NDP1169    -0.2175
     33  C2D       21.6090    6.7710   45.8250 C.3   1169  NDP1169     0.2309
     34  O2D       21.6740    7.5190   44.6560 O.3   1169  NDP1169    -0.2158
     35  C1D       21.2260    5.3190   45.6250 C.3   1169  NDP1169     0.2263
     36  N1N       19.7730    5.1360   45.4880 N.pl3 1169  NDP1169    -0.2787
     37  C2N       19.3380    4.3830   44.4560 C.3   1169  NDP1169     0.1244
     38  C3N       18.0030    4.1220   44.2980 C.2   1169  NDP1169     0.0544
     39  C7N       17.5990    3.2420   43.1950 C.2   1169  NDP1169     0.2818
     40  O7N       16.3620    2.7120   43.2660 O.2   1169  NDP1169    -0.2670
     41  N7N       18.4190    2.9870   42.1940 N.am  1169  NDP1169    -0.0839
     42  C4N       16.9880    4.4050   45.3590 C.2   1169  NDP1169     0.0033
     43  C5N       17.5730    5.2010   46.4400 C.2   1169  NDP1169     0.0157
     44  C6N       18.9110    5.5130   46.4820 C.2   1169  NDP1169     0.0633
     45  P2B       23.6330    8.4960   59.4960 P.3   1169  NDP1169     0.5328
     46  O1X       24.9560    8.3030   58.8090 O.2   1169  NDP1169    -0.2224
     47  O2X       23.0680    9.8650   59.3950 O.3   1169  NDP1169    -0.1145
     48  O3X       23.6230    7.9010   60.8740 O.3   1169  NDP1169    -0.1145
@<TRIPOS>BOND
     1    41    39   am
     2    39    40    2
     3    39    38    1
     4    38    37    1
     5    38    42    2
     6    37    36    1
     7    34    33    1
     8    42    43    1
     9    32    31    1
    10    36    35    1
    11    36    44    1
    12    35    33    1
    13    35    30    1
    14    33    31    1
    15    43    44    2
    16    31    29    1
    17    30    29    1
    18    29    28    1
    19    28    27    1
    20    27    24    1
    21    26    24    2
    22    24    25    1
    23    24    23    1
    24     3     1    2
    25    23     1    1
    26     1     2    1
    27     1     4    1
    28     4     5    1
    29     5     6    1
    30     6     7    1
    31     6     8    1
    32     9     8    1
    33     7    12    1
    34     8    10    1
    35    12    10    1
    36    12    13    1
    37    14    13    1
    38    14    15    1
    39    10    11    1
    40    11    45    1
    41    13    22    1
    42    46    45    2
    43    15    16    2
    44    47    45    1
    45    45    48    1
    46    22    16    1
    47    22    21    2
    48    16    17    1
    49    21    20    1
    50    17    18    1
    51    17    19    2
    52    20    19    1
