@<TRIPOS>MOLECULE
2w3w_VG9_A_1.pdb
 27 29 0 0 0
SMALL
GASTEIGER

@<TRIPOS>ATOM
      1  N2        12.3240    2.5150   40.9770 N.pl3 1168  VG91168    -0.0226
      2  C2        12.8900    3.4990   41.7090 C.1   1168  VG91168     0.2517
      3  N3        12.8500    3.4680   43.0660 N.2   1168  VG91168    -0.3061
      4  C4        13.4030    4.4360   43.8070 C.2   1168  VG91168     0.2427
      5  N4        13.3680    4.2000   45.1270 N.pl3 1168  VG91168    -0.0914
      6  N1        13.4900    4.5160   41.0550 N.2   1168  VG91168    -0.2706
      7  C8A       13.9870    5.5470   41.7640 C.1   1168  VG91168     0.1046
      8  N8        14.5240    6.5620   41.0610 N.2   1168  VG91168    -0.1818
      9  C7        15.0520    7.6290   41.6840 C.2   1168  VG91168     0.1077
     10  C6        15.0760    7.7530   43.0560 C.2   1168  VG91168     0.0162
     11  C5        14.5300    6.6960   43.8180 C.2   1168  VG91168    -0.0083
     12  C5A       14.5260    6.8420   45.3120 C.3   1168  VG91168     0.0317
     13  C4A       13.9750    5.5680   43.1630 C.2   1168  VG91168     0.1186
     14  C9        15.7110    8.9930   43.7120 C.3   1168  VG91168     0.1399
     15  N10       15.8430   10.0910   42.7350 N.pl3 1168  VG91168    -0.2296
     16  C11       14.8150   10.8190   42.2170 C.ar  1168  VG91168     0.1025
     17  C12       15.0940   11.6620   41.1400 C.ar  1168  VG91168     0.1534
     18  O2        16.3690   11.7320   40.6170 O.3   1168  VG91168    -0.4742
     19  C21       16.6160   12.4590   39.4280 C.3   1168  VG91168     0.2056
     20  C22       18.0750   12.2400   39.0660 C.3   1168  VG91168     0.0512
     21  C13       14.0880   12.4120   40.5580 C.ar  1168  VG91168     0.0413
     22  C14       12.7970   12.3850   41.0580 C.ar  1168  VG91168     0.0401
     23  C15       12.4910   11.5570   42.1210 C.ar  1168  VG91168     0.1400
     24  C16       13.5020   10.7810   42.7010 C.ar  1168  VG91168     0.0560
     25  O5        11.2120   11.4990   42.6170 O.3   1168  VG91168    -0.4754
     26  C51       10.1430   12.3610   42.1930 C.3   1168  VG91168     0.2055
     27  C52        8.9070   12.1310   43.0360 C.3   1168  VG91168     0.0512
@<TRIPOS>BOND
     1    20    19    1
     2    19    18    1
     3    21    22   ar
     4    21    17   ar
     5    18    17    1
     6     1     2    1
     7     6     2    2
     8     6     7    2
     9    22    23   ar
    10     8     9    1
    11     8     7    2
    12    17    16   ar
    13     9    10    2
    14     2     3    2
    15     7    13    1
    16    23    25    1
    17    23    24   ar
    18    26    25    1
    19    26    27    1
    20    16    24   ar
    21    16    15    1
    22    15    14    1
    23    10    14    1
    24    10    11    1
    25     3     4    2
    26    13     4    1
    27    13    11    2
    28     4     5    1
    29    11    12    1
