@<TRIPOS>MOLECULE
2w3x_JEF_A_1.pdb
 22 21 0 0 0
SMALL
GASTEIGER

@<TRIPOS>ATOM
      1  C3        10.6520  -14.8370   37.1070 C.3   1147  JEF1147     0.1741
      2  O2        10.4530  -16.1930   37.5160 O.3   1147  JEF1147    -0.3510
      3  C5         9.4620  -16.2560   38.5530 C.3   1147  JEF1147     0.1449
      4  C6         9.1190  -17.7230   38.8280 C.3   1147  JEF1147     0.0347
      5  C4         9.9840  -15.6040   39.8220 C.3   1147  JEF1147     0.1715
      6  O3         8.9640  -15.5960   40.8340 O.3   1147  JEF1147    -0.3511
      7  C7         9.4930  -15.1020   42.0760 C.3   1147  JEF1147     0.1449
      8  C9        10.6610  -15.9790   42.5300 C.3   1147  JEF1147     0.0347
      9  C8         9.9390  -13.6550   41.9370 C.3   1147  JEF1147     0.1715
     10  O4         8.7810  -12.8560   41.6650 O.3   1147  JEF1147    -0.3511
     11  C11        9.1360  -11.5060   41.3130 C.3   1147  JEF1147     0.1449
     12  C12        9.6700  -10.7520   42.5270 C.3   1147  JEF1147     0.0347
     13  C10        7.8810  -10.8300   40.7860 C.3   1147  JEF1147     0.1715
     14  O5         7.4720  -11.5360   39.6050 O.3   1147  JEF1147    -0.3511
     15  C13        6.0830  -11.3300   39.3060 C.3   1147  JEF1147     0.1449
     16  C15        5.7780   -9.8350   39.2230 C.3   1147  JEF1147     0.0347
     17  C14        5.2220  -11.9970   40.3680 C.3   1147  JEF1147     0.1715
     18  O6         4.2510  -12.8290   39.7170 O.3   1147  JEF1147    -0.3497
     19  C16        3.2690  -13.2900   40.6630 C.3   1147  JEF1147     0.1611
     20  C30        2.2750  -14.1900   39.9470 C.3   1147  JEF1147     0.1214
     21  C31        1.0580  -14.5140   40.8340 C.3   1147  JEF1147     0.0232
     22  N1         2.9370  -15.4300   39.5130 N.3   1147  JEF1147    -0.1303
@<TRIPOS>BOND
     1     1     2    1
     2     2     3    1
     3     3     4    1
     4     3     5    1
     5    16    15    1
     6    15    14    1
     7    15    17    1
     8    22    20    1
     9    14    13    1
    10    18    17    1
    11    18    19    1
    12     5     6    1
    13    20    19    1
    14    20    21    1
    15    13    11    1
    16     6     7    1
    17    11    10    1
    18    11    12    1
    19    10     9    1
    20     9     7    1
    21     7     8    1
