@<TRIPOS>MOLECULE
2w41_ADP_A_1.pdb
 27 29 0 0 0
SMALL
GASTEIGER

@<TRIPOS>ATOM
      1  PB        10.5900   -8.2220  115.1300 P.3   1502  ADP1502     0.5373
      2  O1B       10.5580   -6.7210  114.9100 O.2   1502  ADP1502    -0.2221
      3  O2B        9.5370   -8.6450  116.1380 O.3   1502  ADP1502    -0.1143
      4  O3B       11.9840   -8.8000  115.3750 O.3   1502  ADP1502    -0.1143
      5  PA         9.4750  -10.3780  113.4270 P.3   1502  ADP1502     0.2231
      6  O1A        7.9890  -10.3340  113.7840 O.2   1502  ADP1502    -0.5169
      7  O2A       10.3520  -11.4780  113.9870 O.3   1502  ADP1502    -0.4370
      8  O3A       10.0880   -8.8820  113.7200 O.3   1502  ADP1502    -0.2261
      9  O5'        9.5920  -10.4210  111.8090 O.3   1502  ADP1502    -0.3111
     10  C5'        9.2810   -9.2520  111.0680 C.3   1502  ADP1502     0.1813
     11  C4'       10.4250   -9.0300  110.0920 C.3   1502  ADP1502     0.1821
     12  O4'       10.3800  -10.0950  109.1520 O.3   1502  ADP1502    -0.3135
     13  C3'       10.2700   -7.7990  109.2400 C.3   1502  ADP1502     0.2184
     14  O3'       11.6030   -7.4510  108.8890 O.3   1502  ADP1502    -0.2174
     15  C2'        9.5760   -8.3170  107.9900 C.3   1502  ADP1502     0.2570
     16  O2'        9.7260   -7.4720  106.8560 O.3   1502  ADP1502    -0.2130
     17  C1'       10.2530   -9.6470  107.8000 C.3   1502  ADP1502     0.3186
     18  N9         9.4570  -10.6360  107.0230 N.pl3 1502  ADP1502    -0.1439
     19  C8         8.2050  -10.9980  107.3320 C.3   1502  ADP1502     0.3377
     20  N7         7.7220  -11.9040  106.4450 N.2   1502  ADP1502    -0.2095
     21  C5         8.6780  -12.1520  105.5410 C.2   1502  ADP1502     0.2526
     22  C6         8.7780  -13.0220  104.3540 C.2   1502  ADP1502     0.4393
     23  N6         7.7070  -13.7850  104.0270 N.pl3 1502  ADP1502     0.2180
     24  N1         9.9480  -13.0130  103.6480 N.2   1502  ADP1502     0.0021
     25  C2        10.9910  -12.2190  104.0130 C.3   1502  ADP1502     0.5254
     26  N3        10.9540  -11.3850  105.0850 N.2   1502  ADP1502    -0.0055
     27  C4         9.8390  -11.3170  105.8990 C.2   1502  ADP1502     0.3518
@<TRIPOS>BOND
     1    24    25    1
     2    24    22    2
     3    25    26    1
     4    23    22    1
     5    22    21    1
     6    26    27    2
     7    21    27    1
     8    21    20    2
     9    27    18    1
    10    20    19    1
    11    16    15    1
    12    18    19    1
    13    18    17    1
    14    17    15    1
    15    17    12    1
    16    15    13    1
    17    14    13    1
    18    12    11    1
    19    13    11    1
    20    11    10    1
    21    10     9    1
    22     9     5    1
    23     5     8    1
    24     5     6    2
    25     5     7    1
    26     8     1    1
    27     2     1    2
    28     1     4    1
    29     1     3    1
