@<TRIPOS>MOLECULE
2w47_UNF_A_1.pdb
 24 25 0 0 0
SMALL
GASTEIGER

@<TRIPOS>ATOM
      1  C1        -1.6660   16.2910    9.7560 C.3   1138  UNF1138     0.3223
      2  C2        -2.1860   17.5440    9.0590 C.3   1138  UNF1138     0.2558
      3  C3        -1.7040   17.5670    7.6140 C.3   1138  UNF1138     0.2138
      4  C4        -0.1890   17.5130    7.6320 C.2   1138  UNF1138     0.0528
      5  C5         0.4560   16.7810    8.5700 C.2   1138  UNF1138     0.2189
      6  C6         1.7680   16.5540    8.4920 C.2   1138  UNF1138     0.4209
      7  O1        -2.2090   15.1360    9.1100 O.3   1138  UNF1138    -0.3153
      8  O2        -3.6130   17.5680    9.1240 O.3   1138  UNF1138    -0.2132
      9  O3        -2.1830   18.7470    6.9540 O.3   1138  UNF1138    -0.2152
     10  O5        -0.2350   16.2310    9.7290 O.2   1138  UNF1138    -0.4439
     11  O6         2.3230   15.8720    9.3980 O.co2 1138  UNF1138    -0.2371
     12  C1'       -3.6910   12.0660    8.3570 C.3   1138  UNF1138     0.3028
     13  C2'       -2.3940   12.5410    7.6960 C.3   1138  UNF1138     0.2434
     14  C3'       -1.3470   12.9050    8.7520 C.3   1138  UNF1138     0.2173
     15  C4'       -1.9160   13.8990    9.7670 C.3   1138  UNF1138     0.1900
     16  C5'       -3.1940   13.3090   10.3790 C.3   1138  UNF1138     0.2498
     17  C6'       -3.8160   14.2420   11.3830 C.2   1138  UNF1138     0.3940
     18  O1'       -3.4930   10.7820    8.9700 O.3   1138  UNF1138    -0.1869
     19  O2'       -1.8890   11.5220    6.8280 O.3   1138  UNF1138    -0.2148
     20  O3'       -0.1720   13.4310    8.1210 O.3   1138  UNF1138    -0.2175
     21  O5'       -4.1350   13.0210    9.3320 O.3   1138  UNF1138    -0.3149
     22  O6'       -3.1310   14.6390   12.3520 O.co2 1138  UNF1138    -0.2429
     23  OAC       -5.0070   14.5950   11.2200 O.co2 1138  UNF1138    -0.2429
     24  OAN        2.4090   17.0340    7.5220 O.co2 1138  UNF1138    -0.2371
@<TRIPOS>BOND
     1    19    13    1
     2     9     3    1
     3    24     6   ar
     4     3     4    1
     5     3     2    1
     6     4     5    2
     7    13    12    1
     8    13    14    1
     9    20    14    1
    10    12    18    1
    11    12    21    1
    12     6     5    1
    13     6    11   ar
    14     5    10    1
    15    14    15    1
    16     2     8    1
    17     2     1    1
    18     7     1    1
    19     7    15    1
    20    21    16    1
    21    10     1    1
    22    15    16    1
    23    16    17    1
    24    23    17   ar
    25    17    22   ar
