@<TRIPOS>MOLECULE
2w4i_VGA_B_1.pdb
 27 31 0 0 0
SMALL
GASTEIGER

@<TRIPOS>ATOM
      1  N1        15.9620   -1.0420    4.7040 N.2   1256  VGA1256    -0.3931
      2  C2        17.2450   -0.8280    4.8860 C.2   1256  VGA1256     0.1869
      3  C3        17.6710    0.0300    6.0610 C.3   1256  VGA1256     0.1973
      4  C4        15.9730    1.6150    5.9020 C.2   1256  VGA1256     0.0789
      5  N5        17.2240    1.3990    5.7600 N.2   1256  VGA1256    -0.2587
      6  C6        14.9550    0.5950    6.2440 C.2   1256  VGA1256     0.0430
      7  C7        14.9560   -0.6190    5.5650 C.2   1256  VGA1256     0.1160
      8  C8        13.9200   -1.4920    5.8640 C.3   1256  VGA1256     0.0850
      9  C9        12.9080   -1.2060    6.7670 C.2   1256  VGA1256    -0.0187
     10  C10       12.8790    0.0020    7.4350 C.2   1256  VGA1256    -0.0040
     11  C11       13.9090    0.8930    7.1600 C.2   1256  VGA1256     0.0034
     12  C12       15.4240    2.9330    5.5090 C.ar  1256  VGA1256     0.0173
     13  N13       18.1730   -1.3400    4.0020 N.pl3 1256  VGA1256    -0.2799
     14  C14       18.1130   -2.2440    2.8210 C.3   1256  VGA1256     0.1275
     15  C15       19.5950   -1.9540    2.5100 C.3   1256  VGA1256     0.1913
     16  C16       19.6360   -1.2310    3.8470 C.3   1256  VGA1256     0.1275
     17  C17       16.2570    4.0230    5.2400 C.ar  1256  VGA1256     0.0015
     18  C18       15.7180    5.2340    4.8330 C.ar  1256  VGA1256     0.0000
     19  C19       14.3490    5.3750    4.6810 C.ar  1256  VGA1256     0.0000
     20  C20       13.5090    4.2940    4.9120 C.ar  1256  VGA1256     0.0000
     21  C21       14.0430    3.0740    5.3090 C.ar  1256  VGA1256     0.0015
     22  C22       19.1040    0.1500    6.4670 C.ar  1256  VGA1256     0.0374
     23  S23       19.8440    1.7350    6.4890 S.2   1256  VGA1256    -0.0884
     24  C24       21.3280    1.0350    7.1180 C.ar  1256  VGA1256     0.0352
     25  C25       21.1870   -0.2810    7.2690 C.ar  1256  VGA1256     0.0072
     26  C26       19.9430   -0.7830    6.9190 C.ar  1256  VGA1256     0.0050
     27  O27       20.4520   -3.0900    2.4900 O.3   1256  VGA1256    -0.2195
@<TRIPOS>BOND
     1    27    15    1
     2    15    14    1
     3    15    16    1
     4    14    13    1
     5    16    13    1
     6    13     2    1
     7    19    18   ar
     8    19    20   ar
     9     1     2    2
    10     1     7    2
    11    18    17   ar
    12     2     3    1
    13    20    21   ar
    14    17    12   ar
    15    21    12   ar
    16    12     4    1
    17     7     8    1
    18     7     6    1
    19     5     4    2
    20     5     3    1
    21     8     9    1
    22     4     6    1
    23     3    22    1
    24     6    11    2
    25    22    23   ar
    26    22    26   ar
    27    23    24   ar
    28     9    10    2
    29    26    25   ar
    30    24    25   ar
    31    11    10    1
