@<TRIPOS>MOLECULE
2w4i_DGL_A_1.pdb
 10 9 0 0 0
SMALL
GASTEIGER

@<TRIPOS>ATOM
      1  N         25.1160    6.2410   11.4480 N.3   1256  DGL1256    -0.1208
      2  CA        23.9360    6.9880   10.9080 C.3   1256  DGL1256     0.1949
      3  C         24.2290    8.4560   10.8310 C.2   1256  DGL1256     0.3819
      4  O         23.2890    9.2620   10.7480 O.co2 1256  DGL1256    -0.2441
      5  CB        23.5470    6.4190    9.5260 C.3   1256  DGL1256     0.0424
      6  CG        22.8830    5.0340    9.5780 C.3   1256  DGL1256     0.1161
      7  CD        21.7110    5.0400   10.5520 C.2   1256  DGL1256     0.3649
      8  OE1       21.8630    4.4980   11.6830 O.co2 1256  DGL1256    -0.2457
      9  OE2       20.6550    5.6350   10.2140 O.co2 1256  DGL1256    -0.2457
     10  OXT       25.4130    8.8810   10.8290 O.co2 1256  DGL1256    -0.2441
@<TRIPOS>BOND
     1     5     6    1
     2     5     2    1
     3     6     7    1
     4     9     7   ar
     5     7     8   ar
     6     4     3   ar
     7    10     3   ar
     8     3     2    1
     9     2     1    1
