@<TRIPOS>MOLECULE
2w4j_ADP_A_1.pdb
 27 29 0 0 0
SMALL
GASTEIGER

@<TRIPOS>ATOM
      1  PB        29.1270   32.5570   11.3500 P.3   1278  ADP1278     0.5373
      2  O1B       28.7450   33.9890   11.3030 O.3   1278  ADP1278    -0.1143
      3  O2B       29.3520   31.8340   12.6930 O.3   1278  ADP1278    -0.1143
      4  O3B       30.3170   32.3620   10.3520 O.2   1278  ADP1278    -0.2221
      5  PA        27.2260   30.3790   10.8990 P.3   1278  ADP1278     0.2231
      6  O1A       27.1510   29.6210    9.6170 O.2   1278  ADP1278    -0.5169
      7  O2A       27.8150   29.6690   12.0940 O.3   1278  ADP1278    -0.4370
      8  O3A       27.9120   31.7860   10.5890 O.3   1278  ADP1278    -0.2261
      9  O5'       25.7300   30.7580   11.2860 O.3   1278  ADP1278    -0.3111
     10  C5'       25.4340   31.4310   12.4900 C.3   1278  ADP1278     0.1813
     11  C4'       24.4660   30.6120   13.3020 C.3   1278  ADP1278     0.1821
     12  O4'       23.2480   30.4340   12.5650 O.3   1278  ADP1278    -0.3135
     13  C3'       24.8850   29.2080   13.7210 C.3   1278  ADP1278     0.2184
     14  O3'       25.7150   29.2160   14.8990 O.3   1278  ADP1278    -0.2174
     15  C2'       23.5560   28.5560   13.9210 C.3   1278  ADP1278     0.2570
     16  O2'       22.9790   28.9740   15.1670 O.3   1278  ADP1278    -0.2130
     17  C1'       22.6780   29.1570   12.8420 C.3   1278  ADP1278     0.3186
     18  N9        22.7530   28.3330   11.5990 N.pl3 1278  ADP1278    -0.1439
     19  C8        23.7240   28.3770   10.6300 C.3   1278  ADP1278     0.3377
     20  N7        23.4740   27.4710    9.6920 N.2   1278  ADP1278    -0.2095
     21  C5        22.3520   26.8460   10.0340 C.2   1278  ADP1278     0.2526
     22  C6        21.5740   25.8140    9.4670 C.2   1278  ADP1278     0.4393
     23  N6        21.9420   25.2300    8.3130 N.pl3 1278  ADP1278     0.2180
     24  N1        20.4390   25.4360   10.0860 N.2   1278  ADP1278     0.0021
     25  C2        20.0800   26.0080   11.2480 C.3   1278  ADP1278     0.5254
     26  N3        20.7240   26.9820   11.8940 N.2   1278  ADP1278    -0.0055
     27  C4        21.8690   27.4050   11.2600 C.2   1278  ADP1278     0.3518
@<TRIPOS>BOND
     1    23    22    1
     2    22    21    1
     3    22    24    2
     4     6     5    2
     5    20    21    2
     6    20    19    1
     7    21    27    1
     8    24    25    1
     9     4     1    2
    10     8     5    1
    11     8     1    1
    12    19    18    1
    13     5     9    1
    14     5     7    1
    15    25    26    1
    16    27    18    1
    17    27    26    2
    18     9    10    1
    19     2     1    1
    20     1     3    1
    21    18    17    1
    22    10    11    1
    23    12    17    1
    24    12    11    1
    25    17    15    1
    26    11    13    1
    27    13    15    1
    28    13    14    1
    29    15    16    1
