@<TRIPOS>MOLECULE
2w4k_ADP_A_1.pdb
 27 29 0 0 0
SMALL
GASTEIGER

@<TRIPOS>ATOM
      1  PB       -15.8280   13.0450  -19.8730 P.3   1303  ADP1303     0.5373
      2  O1B      -15.5250   13.8460  -21.1240 O.2   1303  ADP1303    -0.2221
      3  O2B      -16.7170   13.7980  -18.9040 O.3   1303  ADP1303    -0.1143
      4  O3B      -16.1470   11.5800  -20.1120 O.3   1303  ADP1303    -0.1143
      5  PA       -13.9270   12.2760  -17.7870 P.3   1303  ADP1303     0.2231
      6  O1A      -14.5660   10.9170  -17.6180 O.2   1303  ADP1303    -0.5169
      7  O2A      -14.0730   13.3280  -16.7120 O.3   1303  ADP1303    -0.4370
      8  O3A      -14.3520   12.9780  -19.1830 O.3   1303  ADP1303    -0.2261
      9  O5'      -12.3760   11.9870  -18.0050 O.3   1303  ADP1303    -0.3111
     10  C5'      -11.9940   11.0600  -19.0160 C.3   1303  ADP1303     0.1813
     11  C4'      -11.0780   10.0270  -18.4040 C.3   1303  ADP1303     0.1821
     12  O4'       -9.9020   10.6560  -17.8850 O.3   1303  ADP1303    -0.3135
     13  C3'      -11.7200    9.3140  -17.2210 C.3   1303  ADP1303     0.2184
     14  O3'      -12.4610    8.1620  -17.6210 O.3   1303  ADP1303    -0.2174
     15  C2'      -10.5130    8.9380  -16.4110 C.3   1303  ADP1303     0.2570
     16  O2'       -9.9450    7.7880  -17.0200 O.3   1303  ADP1303    -0.2130
     17  C1'       -9.5600   10.1070  -16.6070 C.3   1303  ADP1303     0.3186
     18  N9        -9.7600   11.0980  -15.4980 N.pl3 1303  ADP1303    -0.1439
     19  C8       -10.7630   11.9920  -15.3550 C.3   1303  ADP1303     0.3377
     20  N7       -10.6600   12.7070  -14.2040 N.2   1303  ADP1303    -0.2095
     21  C5        -9.5420   12.2520  -13.5950 C.2   1303  ADP1303     0.2526
     22  C6        -8.8140   12.5750  -12.3440 C.2   1303  ADP1303     0.4393
     23  N6        -9.2920   13.5310  -11.5150 N.pl3 1303  ADP1303     0.2180
     24  N1        -7.6930   11.8670  -12.0640 N.2   1303  ADP1303     0.0021
     25  C2        -7.2340   10.8900  -12.8850 C.3   1303  ADP1303     0.5254
     26  N3        -7.8410   10.5560  -14.0470 N.2   1303  ADP1303    -0.0055
     27  C4        -8.9670   11.1990  -14.4420 C.2   1303  ADP1303     0.3518
@<TRIPOS>BOND
     1     2     1    2
     2     4     1    1
     3     1     8    1
     4     1     3    1
     5     8     5    1
     6    10    11    1
     7    10     9    1
     8    11    12    1
     9    11    13    1
    10     9     5    1
    11    12    17    1
    12     5     6    2
    13     5     7    1
    14    14    13    1
    15    13    15    1
    16    16    15    1
    17    17    15    1
    18    17    18    1
    19    18    19    1
    20    18    27    1
    21    19    20    1
    22    27    26    2
    23    27    21    1
    24    20    21    2
    25    26    25    1
    26    21    22    1
    27    25    24    1
    28    22    24    2
    29    22    23    1
