@<TRIPOS>MOLECULE
2w4q_NAP_A_1.pdb
 48 52 0 0 0
SMALL
GASTEIGER

@<TRIPOS>ATOM
      1  PA         9.3250  -10.3280   15.7570 P.3   1349  NAP1349     0.2189
      2  O1A        7.9850   -9.9010   16.3240 O.3   1349  NAP1349    -0.4371
      3  O2A        9.9690   -9.5340   14.7190 O.2   1349  NAP1349    -0.5170
      4  O5B        9.0930  -11.7920   15.1860 O.3   1349  NAP1349    -0.3112
      5  C5B       10.1470  -12.3890   14.4680 C.3   1349  NAP1349     0.1813
      6  C4B        9.9110  -12.1840   12.9510 C.3   1349  NAP1349     0.1820
      7  O4B       11.1900  -12.4480   12.2840 O.3   1349  NAP1349    -0.3136
      8  C3B        8.9350  -13.0890   12.2460 C.3   1349  NAP1349     0.2157
      9  O3B        7.5970  -12.5800   12.3480 O.3   1349  NAP1349    -0.2175
     10  C2B        9.4060  -13.0030   10.7710 C.3   1349  NAP1349     0.2314
     11  O2B        8.6890  -11.9980   10.0220 O.3   1349  NAP1349    -0.2630
     12  C1B       10.8690  -12.5920   10.8790 C.3   1349  NAP1349     0.3158
     13  N9A       11.7800  -13.6330   10.3710 N.pl3 1349  NAP1349    -0.1439
     14  C8A       11.8660  -14.8960   10.8240 C.3   1349  NAP1349     0.3377
     15  N7A       12.8040  -15.5570   10.1580 N.2   1349  NAP1349    -0.2095
     16  C5A       13.3350  -14.7230    9.2650 C.2   1349  NAP1349     0.2526
     17  C6A       14.3150  -14.8650    8.2730 C.2   1349  NAP1349     0.4393
     18  N6A       15.0140  -16.0080    8.1050 N.pl3 1349  NAP1349     0.2180
     19  N1A       14.6010  -13.7810    7.5220 N.2   1349  NAP1349     0.0021
     20  C2A       13.9500  -12.6110    7.7080 C.3   1349  NAP1349     0.5254
     21  N3A       12.9840  -12.4530    8.6220 N.2   1349  NAP1349    -0.0055
     22  C4A       12.6740  -13.4860    9.4150 C.2   1349  NAP1349     0.3518
     23  O3        10.3290  -10.5610   16.9310 O.3   1349  NAP1349    -0.2703
     24  PN        10.9120   -9.3600   17.8340 P.3   1349  NAP1349     0.2189
     25  O1N       10.6200   -8.0510   17.2380 O.2   1349  NAP1349    -0.5170
     26  O2N       10.5470   -9.7010   19.2590 O.3   1349  NAP1349    -0.4371
     27  O5D       12.4910   -9.6560   17.7420 O.3   1349  NAP1349    -0.3112
     28  C5D       13.2340   -9.1680   16.6340 C.3   1349  NAP1349     0.1813
     29  C4D       14.7340   -9.4250   16.7760 C.3   1349  NAP1349     0.1799
     30  O4D       15.2150   -8.4860   17.7690 O.3   1349  NAP1349    -0.3327
     31  C3D       15.1360  -10.8310   17.2360 C.3   1349  NAP1349     0.2158
     32  O3D       16.4490  -11.1520   16.7130 O.3   1349  NAP1349    -0.2175
     33  C2D       15.1910  -10.6220   18.7600 C.3   1349  NAP1349     0.2309
     34  O2D       15.9680  -11.6220   19.4130 O.3   1349  NAP1349    -0.2158
     35  C1D       15.8590   -9.2810   18.8170 C.3   1349  NAP1349     0.2263
     36  N1N       15.7720   -8.4650   20.0460 N.pl3 1349  NAP1349    -0.2787
     37  C2N       16.9050   -7.7970   20.4710 C.3   1349  NAP1349     0.1244
     38  C3N       16.8260   -7.0540   21.6300 C.2   1349  NAP1349     0.0544
     39  C7N       18.0400   -6.3470   22.0940 C.2   1349  NAP1349     0.2818
     40  O7N       18.0880   -5.8590   23.3470 O.2   1349  NAP1349    -0.2670
     41  N7N       19.0290   -6.2360   21.2060 N.am  1349  NAP1349    -0.0839
     42  C4N       15.6470   -6.9680   22.3720 C.2   1349  NAP1349     0.0033
     43  C5N       14.5200   -7.6290   21.9450 C.2   1349  NAP1349     0.0157
     44  C6N       14.5660   -8.3620   20.7680 C.2   1349  NAP1349     0.0633
     45  P2B        8.7360  -12.0560    8.3200 P.3   1349  NAP1349     0.5328
     46  O1X        7.2970  -12.4350    7.9040 O.2   1349  NAP1349    -0.2224
     47  O2X        8.9850  -10.5380    8.0140 O.3   1349  NAP1349    -0.1145
     48  O3X        9.8540  -12.9460    7.9120 O.3   1349  NAP1349    -0.1145
@<TRIPOS>BOND
     1    19    20    1
     2    19    17    2
     3    20    21    1
     4    46    45    2
     5    48    45    1
     6    47    45    1
     7    18    17    1
     8    17    16    1
     9    45    11    1
    10    21    22    2
    11    16    22    1
    12    16    15    2
    13    22    13    1
    14    11    10    1
    15    15    14    1
    16    13    14    1
    17    13    12    1
    18    10    12    1
    19    10     8    1
    20    12     7    1
    21     8     9    1
    22     8     6    1
    23     7     6    1
    24     6     5    1
    25     5     4    1
    26     3     1    2
    27     4     1    1
    28     1     2    1
    29     1    23    1
    30    28    29    1
    31    28    27    1
    32    32    31    1
    33    29    31    1
    34    29    30    1
    35    23    24    1
    36    31    33    1
    37    25    24    2
    38    27    24    1
    39    30    35    1
    40    24    26    1
    41    33    35    1
    42    33    34    1
    43    35    36    1
    44    36    37    1
    45    36    44    1
    46    37    38    1
    47    44    43    2
    48    41    39   am
    49    38    39    1
    50    38    42    2
    51    43    42    1
    52    39    40    2
