@<TRIPOS>MOLECULE
2w4q_CBW_A_1.pdb
 34 38 0 0 0
SMALL
GASTEIGER

@<TRIPOS>ATOM
      1  C1        15.3460  -11.1550   26.5180 C.3   1350  CBW1350     0.0030
      2  C2        14.6450  -11.1060   27.9240 C.3   1350  CBW1350     0.0329
      3  C3        15.6060  -11.4820   29.0750 C.3   1350  CBW1350     0.1519
      4  C4        16.8120  -10.5460   29.1310 C.3   1350  CBW1350     0.0282
      5  C5        17.4880  -10.5840   27.7000 C.3   1350  CBW1350     0.0028
      6  C6        18.8050   -9.8090   27.5780 C.3   1350  CBW1350     0.0001
      7  C7        19.6230  -10.3540   26.3890 C.3   1350  CBW1350     0.0007
      8  C8        18.8600  -10.2350   25.0620 C.3   1350  CBW1350     0.0100
      9  C9        17.4110  -10.7480   25.1880 C.3   1350  CBW1350     0.0621
     10  C10       16.5890  -10.2820   26.4500 C.3   1350  CBW1350     0.0070
     11  C11       16.6710  -10.5990   23.8360 C.2   1350  CBW1350     0.1721
     12  C12       17.3930  -10.7810   22.6400 C.2   1350  CBW1350     0.0289
     13  C13       18.7730  -10.9950   22.6340 C.2   1350  CBW1350    -0.0423
     14  C14       19.5710  -11.1110   23.9710 C.3   1350  CBW1350     0.0156
     15  C15       21.0240  -10.6070   23.7860 C.3   1350  CBW1350     0.0038
     16  C16       21.6370  -11.0670   22.4420 C.3   1350  CBW1350     0.0006
     17  C17       20.8600  -10.5630   21.2230 C.3   1350  CBW1350     0.0035
     18  C18       19.4560  -11.1700   21.2360 C.3   1350  CBW1350     0.0189
     19  C19       16.1210   -8.8170   26.3420 C.3   1350  CBW1350     0.0004
     20  C20       19.3380  -12.6710   20.7790 C.3   1350  CBW1350     0.0147
     21  C21       20.1260  -13.0700   19.5090 C.3   1350  CBW1350     0.0941
     22  C22       21.5360  -12.5300   19.6980 C.3   1350  CBW1350     0.0107
     23  C23       21.5630  -11.0010   19.9140 C.3   1350  CBW1350     0.0008
     24  C24       16.3770   -9.1430   29.5620 C.3   1350  CBW1350     0.0025
     25  C25       17.7810  -11.1320   30.1990 C.3   1350  CBW1350     0.0025
     26  C26       18.8140   -8.7240   24.6870 C.3   1350  CBW1350     0.0007
     27  C27       19.5830  -12.6110   24.2870 C.3   1350  CBW1350     0.0041
     28  C28       20.7660   -9.0270   21.2480 C.3   1350  CBW1350     0.0003
     29  C33       19.4750  -12.4700   18.2580 C.2   1350  CBW1350     0.3638
     30  C34       20.1130  -14.6160   19.2990 C.3   1350  CBW1350     0.0113
     31  O3        14.8790  -11.5280   30.3340 O.3   1350  CBW1350    -0.2232
     32  O11       15.4610  -10.3550   23.7920 O.2   1350  CBW1350    -0.2914
     33  O34       18.2310  -12.4300   18.2660 O.co2 1350  CBW1350    -0.2457
     34  O35       20.2240  -12.1260   17.2990 O.co2 1350  CBW1350    -0.2457
@<TRIPOS>BOND
     1    34    29   ar
     2    29    33   ar
     3    29    21    1
     4    30    21    1
     5    21    22    1
     6    21    20    1
     7    22    23    1
     8    23    17    1
     9    20    18    1
    10    17    18    1
    11    17    28    1
    12    17    16    1
    13    18    13    1
    14    16    15    1
    15    13    12    2
    16    13    14    1
    17    12    11    1
    18    15    14    1
    19    32    11    2
    20    11     9    1
    21    14    27    1
    22    14     8    1
    23    26     8    1
    24     8     9    1
    25     8     7    1
    26     9    10    1
    27    19    10    1
    28     7     6    1
    29    10     1    1
    30    10     5    1
    31     1     2    1
    32     6     5    1
    33     5     4    1
    34     2     3    1
    35     3     4    1
    36     3    31    1
    37     4    24    1
    38     4    25    1
