@<TRIPOS>MOLECULE
2w4x_STZ_A_1.pdb
 18 18 0 0 0
SMALL
GASTEIGER

@<TRIPOS>ATOM
      1  O3        -9.2680  -12.1810   11.2210 O.3   1591  STZ1591    -0.2183
      2  C3        -8.7480  -11.0160   10.5860 C.3   1591  STZ1591     0.2096
      3  C4        -7.9610  -10.1780   11.5810 C.3   1591  STZ1591     0.2136
      4  O4        -8.8680   -9.6690   12.5840 O.3   1591  STZ1591    -0.2176
      5  C5        -7.2120   -9.0840   10.8250 C.3   1591  STZ1591     0.1835
      6  C6        -6.4480   -8.1600   11.7630 C.3   1591  STZ1591     0.2142
      7  O6        -5.7580   -8.9270   12.7530 O.3   1591  STZ1591    -0.2176
      8  O5        -6.3150   -9.6680    9.8570 O.3   1591  STZ1591    -0.3242
      9  C1        -7.0480  -10.3630    8.8640 C.3   1591  STZ1591     0.2918
     10  O1        -6.1340  -10.9620    7.9730 O.3   1591  STZ1591    -0.1879
     11  C2        -7.8420  -11.5020    9.4800 C.3   1591  STZ1591     0.1887
     12  N2        -8.6350  -12.1170    8.4380 N.am  1591  STZ1591    -0.1807
     13  CAM       -9.4680  -11.4540    7.6510 C.2   1591  STZ1591     0.3448
     14  OAG       -9.6550  -10.2590    7.7290 O.2   1591  STZ1591    -0.2489
     15  NAN      -10.1250  -12.1610    6.7470 N.am  1591  STZ1591    -0.1267
     16  CAH      -11.0950  -11.6520    5.7970 C.3   1591  STZ1591     0.1478
     17  NAO       -9.8710  -13.5410    6.7170 N.2   1591  STZ1591     0.0535
     18  OAP      -10.5100  -14.2030    5.9250 O.2   1591  STZ1591    -0.1256
@<TRIPOS>BOND
     1    16    15    1
     2    18    17    2
     3    17    15    1
     4    15    13   am
     5    13    14    2
     6    13    12   am
     7    10     9    1
     8    12    11    1
     9     9    11    1
    10     9     8    1
    11    11     2    1
    12     8     5    1
    13     2     1    1
    14     2     3    1
    15     5     3    1
    16     5     6    1
    17     3     4    1
    18     6     7    1
