@<TRIPOS>MOLECULE
2w4y_AMP_A_1.pdb
 22 24 0 0 0
SMALL
GASTEIGER

@<TRIPOS>ATOM
      1  P        203.9100   18.7650   76.6570 P.3   1125  AMP1125     0.3942
      2  O1P      202.4660   19.1650   76.7640 O.3   1125  AMP1125    -0.1425
      3  O2P      204.8720   19.1390   77.7540 O.3   1125  AMP1125    -0.1425
      4  O5'      203.9810   17.1900   76.4290 O.3   1125  AMP1125    -0.2926
      5  C5'      204.4910   16.3250   77.4330 C.3   1125  AMP1125     0.1831
      6  C4'      204.5320   14.9250   76.9020 C.3   1125  AMP1125     0.1822
      7  O4'      205.2790   14.9370   75.6620 O.3   1125  AMP1125    -0.3135
      8  C3'      205.2350   13.8840   77.7520 C.3   1125  AMP1125     0.2184
      9  O3'      204.3610   13.3630   78.7440 O.3   1125  AMP1125    -0.2174
     10  C2'      205.5870   12.8330   76.7050 C.3   1125  AMP1125     0.2570
     11  O2'      204.4800   12.0340   76.3340 O.3   1125  AMP1125    -0.2130
     12  C1'      205.9840   13.7180   75.5210 C.3   1125  AMP1125     0.3186
     13  N9       207.4120   14.0220   75.4970 N.pl3 1125  AMP1125    -0.1439
     14  C8       208.2740   14.0890   76.5590 C.3   1125  AMP1125     0.3377
     15  N7       209.5050   14.3620   76.2180 N.2   1125  AMP1125    -0.2095
     16  C5       209.4460   14.4900   74.8430 C.2   1125  AMP1125     0.2526
     17  C6       210.4150   14.7710   73.8990 C.2   1125  AMP1125     0.4393
     18  N6       211.6850   14.9850   74.2150 N.pl3 1125  AMP1125     0.2180
     19  N1       210.0430   14.8270   72.6020 N.2   1125  AMP1125     0.0021
     20  C2       208.7670   14.6090   72.3010 C.3   1125  AMP1125     0.5254
     21  N3       207.7550   14.3340   73.1090 N.2   1125  AMP1125    -0.0055
     22  C4       208.1670   14.2870   74.3840 C.2   1125  AMP1125     0.3518
@<TRIPOS>BOND
     1    20    19    1
     2    20    21    1
     3    19    17    2
     4    21    22    2
     5    17    18    1
     6    17    16    1
     7    22    16    1
     8    22    13    1
     9    16    15    2
    10    13    12    1
    11    13    14    1
    12    12     7    1
    13    12    10    1
    14     7     6    1
    15    15    14    1
    16    11    10    1
    17     4     1    1
    18     4     5    1
    19     1     2    1
    20     1     3    1
    21    10     8    1
    22     6     5    1
    23     6     8    1
    24     8     9    1
