@<TRIPOS>MOLECULE
2w4z_AMP_A_1.pdb
 22 24 0 0 0
SMALL
GASTEIGER

@<TRIPOS>ATOM
      1  P         76.6520   84.9970    9.3200 P.3   1124  AMP1124     0.3942
      2  O1P       75.1870   84.8870    9.1170 O.3   1124  AMP1124    -0.1425
      3  O2P       77.3800   86.1770    8.7870 O.3   1124  AMP1124    -0.1425
      4  O5'       76.9450   84.8900   10.8810 O.3   1124  AMP1124    -0.2926
      5  C5'       76.4860   85.9000   11.7860 C.3   1124  AMP1124     0.1831
      6  C4'       76.9380   85.6530   13.2050 C.3   1124  AMP1124     0.1822
      7  O4'       78.3370   85.9970   13.3260 O.3   1124  AMP1124    -0.3135
      8  C3'       76.2940   86.5410   14.2550 C.3   1124  AMP1124     0.2184
      9  O3'       74.9240   86.1890   14.5360 O.3   1124  AMP1124    -0.2174
     10  C2'       77.2840   86.4500   15.4190 C.3   1124  AMP1124     0.2570
     11  O2'       77.1320   85.3180   16.2580 O.3   1124  AMP1124    -0.2130
     12  C1'       78.6170   86.3480   14.6760 C.3   1124  AMP1124     0.3186
     13  N9        79.3170   87.6230   14.6840 N.pl3 1124  AMP1124    -0.1439
     14  C8        78.7710   88.8700   14.8150 C.3   1124  AMP1124     0.3377
     15  N7        79.6540   89.8330   14.7870 N.2   1124  AMP1124    -0.2095
     16  C5        80.8570   89.1700   14.6210 C.2   1124  AMP1124     0.2526
     17  C6        82.1410   89.6260   14.4930 C.2   1124  AMP1124     0.4393
     18  N6        82.4270   90.9050   14.5060 N.pl3 1124  AMP1124     0.2180
     19  N1        83.1330   88.7210   14.3390 N.2   1124  AMP1124     0.0021
     20  C2        82.8120   87.4390   14.3120 C.3   1124  AMP1124     0.5254
     21  N3        81.6180   86.8780   14.4130 N.2   1124  AMP1124    -0.0055
     22  C4        80.6690   87.8150   14.5670 C.2   1124  AMP1124     0.3518
@<TRIPOS>BOND
     1     3     1    1
     2     2     1    1
     3     1     4    1
     4     4     5    1
     5     5     6    1
     6     6     7    1
     7     6     8    1
     8     7    12    1
     9     8     9    1
    10     8    10    1
    11    20    19    1
    12    20    21    1
    13    19    17    2
    14    21    22    2
    15    17    18    1
    16    17    16    1
    17    22    16    1
    18    22    13    1
    19    16    15    2
    20    12    13    1
    21    12    10    1
    22    13    14    1
    23    15    14    1
    24    10    11    1
