@<TRIPOS>MOLECULE
2w52_MAN_A_1.pdb
 11 11 0 0 0
SMALL
GASTEIGER

@<TRIPOS>ATOM
      1  C1       -11.0360   44.0220   57.1900 C.3   307  MAN307      0.1777
      2  C2        -9.7020   43.3320   57.4920 C.3   307  MAN307      0.2141
      3  C3        -9.1220   43.8630   58.7980 C.3   307  MAN307      0.2173
      4  C4        -9.0130   45.3900   58.7680 C.3   307  MAN307      0.2142
      5  C5       -10.3590   46.0140   58.3470 C.3   307  MAN307      0.1810
      6  C6       -10.2780   47.5310   58.1840 C.3   307  MAN307      0.2141
      7  O2        -8.7950   43.6390   56.4640 O.3   307  MAN307     -0.2176
      8  O3        -7.8470   43.3140   59.0220 O.3   307  MAN307     -0.2175
      9  O4        -8.6030   45.8180   60.0540 O.3   307  MAN307     -0.2176
     10  O5       -10.8460   45.4340   57.1370 O.3   307  MAN307     -0.3481
     11  O6       -11.5970   48.0440   58.2130 O.3   307  MAN307     -0.2176
@<TRIPOS>BOND
     1     7     2    1
     2    10     1    1
     3    10     5    1
     4     1     2    1
     5     2     3    1
     6     6    11    1
     7     6     5    1
     8     5     4    1
     9     4     3    1
    10     4     9    1
    11     3     8    1
