@<TRIPOS>MOLECULE
2w52_NAG_A_1.pdb
 14 14 0 0 0
SMALL
GASTEIGER

@<TRIPOS>ATOM
      1  C1        -7.9840   41.6150   47.8480 C.3   301  NAG301      0.1665
      2  C2        -9.0650   42.6140   47.4080 C.3   301  NAG301      0.1576
      3  C3        -9.9710   43.0160   48.5850 C.3   301  NAG301      0.2069
      4  C4       -10.2840   41.9150   49.5820 C.3   301  NAG301      0.2134
      5  C5        -9.0230   41.1010   49.8630 C.3   301  NAG301      0.1809
      6  C6        -9.2900   40.0210   50.9160 C.3   301  NAG301      0.2141
      7  C7        -8.4070   44.1880   45.6200 C.2   301  NAG301      0.2420
      8  C8        -7.4080   45.2540   45.2490 C.3   301  NAG301      0.0964
      9  N2        -8.4160   43.8180   46.8970 N.am  301  NAG301     -0.2019
     10  O3       -11.2100   43.5140   48.0990 O.3   301  NAG301     -0.2184
     11  O4       -10.6610   42.5150   50.8100 O.3   301  NAG301     -0.2176
     12  O5        -8.5440   40.5730   48.6340 O.3   301  NAG301     -0.3489
     13  O6       -10.1770   39.0790   50.3660 O.3   301  NAG301     -0.2176
     14  O7        -9.1610   43.7090   44.7660 O.2   301  NAG301     -0.2733
@<TRIPOS>BOND
     1    14     7    2
     2     8     7    1
     3     7     9   am
     4     9     2    1
     5     2     1    1
     6     2     3    1
     7     1    12    1
     8    10     3    1
     9     3     4    1
    10    12     5    1
    11     4     5    1
    12     4    11    1
    13     5     6    1
    14    13     6    1
