@<TRIPOS>MOLECULE
2w52_BGC_A_1.pdb
 11 11 0 0 0
SMALL
GASTEIGER

@<TRIPOS>ATOM
      1  C2         4.7020    9.4070   48.6470 C.3   402  BGC402      0.2141
      2  C3         3.5000    9.8700   49.4830 C.3   402  BGC402      0.2173
      3  C4         2.1740    9.3330   48.9190 C.3   402  BGC402      0.2142
      4  C5         2.2630    7.8250   48.6820 C.3   402  BGC402      0.1810
      5  C6         1.0180    7.3160   47.9690 C.3   402  BGC402      0.2141
      6  C1         4.6420    7.8850   48.4330 C.3   402  BGC402      0.1777
      7  O2         5.9230    9.7810   49.3120 O.3   402  BGC402     -0.2176
      8  O3         3.5070   11.3050   49.5620 O.3   402  BGC402     -0.2175
      9  O4         1.0640    9.6360   49.8000 O.3   402  BGC402     -0.2176
     10  O5         3.3780    7.5610   47.8340 O.3   402  BGC402     -0.3481
     11  O6         1.1100    5.8870   47.8150 O.3   402  BGC402     -0.2176
@<TRIPOS>BOND
     1    11     5    1
     2    10     6    1
     3    10     4    1
     4     5     4    1
     5     6     1    1
     6     1     7    1
     7     1     2    1
     8     4     3    1
     9     3     2    1
    10     3     9    1
    11     2     8    1
