@<TRIPOS>MOLECULE
2w54_HHR_B_1.pdb
 14 15 0 0 0
SMALL
GASTEIGER

@<TRIPOS>ATOM
      1  C7        14.6360    8.8370   24.8920 C.3   1780  HHR1780     0.1993
      2  N8        15.2850    9.6180   24.0400 N.2   1780  HHR1780    -0.1988
      3  C9        16.5500    9.9980   24.2860 C.1   1780  HHR1780     0.1401
      4  N1        17.1830   10.7940   23.4030 N.2   1780  HHR1780    -0.2672
      5  C2        18.4510   11.1970   23.6140 C.1   1780  HHR1780     0.2609
      6  N2        19.0460   11.9840   22.7230 N.pl3 1780  HHR1780    -0.0220
      7  C10       17.1910    9.5690   25.4590 C.2   1780  HHR1780     0.2992
      8  C4        18.5050    9.9690   25.7120 C.1   1780  HHR1780     0.2569
      9  N3        19.1460   10.7960   24.7750 N.2   1780  HHR1780    -0.2466
     10  O4        19.0970    9.6090   26.7300 O.2   1780  HHR1780    -0.2052
     11  N5        16.5310    8.7760   26.3230 N.2   1780  HHR1780    -0.3778
     12  C6        15.2650    8.4030   26.0580 C.2   1780  HHR1780     0.1781
     13  C6A       14.5110    7.5060   27.0380 C.2   1780  HHR1780     0.2637
     14  O6A       14.6710    7.6240   28.2510 O.2   1780  HHR1780    -0.2806
@<TRIPOS>BOND
     1     6     5    1
     2     4     5    2
     3     4     3    2
     4     5     9    2
     5     2     3    2
     6     2     1    1
     7     3     7    1
     8     9     8    2
     9     1    12    1
    10     7     8    1
    11     7    11    2
    12     8    10    2
    13    12    11    2
    14    12    13    1
    15    13    14    2
