@<TRIPOS>MOLECULE
2w54_MPN_B_1.pdb
 24 26 0 0 0
SMALL
GASTEIGER

@<TRIPOS>ATOM
      1  O3P       22.0180    8.3030   13.2490 O.2   1778  MPN1778    -0.2224
      2  P         21.7220    9.3910   14.2530 P.3   1778  MPN1778     0.5327
      3  O1P       20.9480    8.9300   15.4660 O.3   1778  MPN1778    -0.1145
      4  O2P       22.8680   10.3240   14.5730 O.3   1778  MPN1778    -0.1145
      5  O4'       20.7150   10.3470   13.4520 O.3   1778  MPN1778    -0.2660
      6  C4'       19.7670   11.1610   14.1850 C.3   1778  MPN1778     0.2023
      7  C3'       20.1040   12.3670   14.6490 C.3   1778  MPN1778     0.2279
      8  C2'       19.3590   12.9160   15.7650 C.2   1778  MPN1778     0.0647
      9  S2'       19.0290   12.0690   17.1530 S.2   1778  MPN1778    -0.0510
     10  O3'       21.0080   13.2300   13.9140 O.2   1778  MPN1778    -0.4454
     11  C7        20.6010   14.6090   13.9240 C.2   1778  MPN1778     0.3191
     12  C6        19.2080   14.7980   14.5050 C.2   1778  MPN1778     0.2063
     13  C1'       18.9140   14.1580   15.6370 C.2   1778  MPN1778     0.0770
     14  S1'       18.0260   14.8660   16.8640 S.2   1778  MPN1778    -0.0475
     15  N5        18.2060   15.1970   13.7150 N.2   1778  MPN1778    -0.3715
     16  N8        20.8040   15.1620   12.5880 N.2   1778  MPN1778    -0.2965
     17  C10       19.7740   15.4870   11.7760 C.1   1778  MPN1778     0.1969
     18  C9        18.4110   15.5200   12.3200 C.2   1778  MPN1778     0.3115
     19  C4        17.3260   15.8820   11.3870 C.1   1778  MPN1778     0.2580
     20  O4        16.1400   15.9310   11.7700 O.2   1778  MPN1778    -0.2051
     21  N3        17.6490   16.1660   10.1030 N.2   1778  MPN1778    -0.2465
     22  C2        18.9340   16.1190    9.6570 C.1   1778  MPN1778     0.2618
     23  N1        19.9700   15.7900   10.4710 N.2   1778  MPN1778    -0.2550
     24  N2        19.1960   16.4100    8.3620 N.pl3 1778  MPN1778    -0.0220
@<TRIPOS>BOND
     1    24    22    1
     2    22    21    2
     3    22    23    2
     4    21    19    2
     5    23    17    2
     6    19    20    2
     7    19    18    1
     8    17    18    1
     9    17    16    2
    10    18    15    2
    11    16    11    2
    12     1     2    2
    13     5     6    1
    14     5     2    1
    15    15    12    2
    16    10    11    1
    17    10     7    1
    18    11    12    1
    19     6     7    1
    20     2     4    1
    21     2     3    1
    22    12    13    1
    23     7     8    1
    24    13     8    1
    25    13    14    2
    26     8     9    2
