@<TRIPOS>MOLECULE
2w55_HPA_B_1.pdb
 10 11 0 0 0
SMALL
GASTEIGER

@<TRIPOS>ATOM
      1  N1        17.8750   11.0890   23.4950 N.2   1780  HPA1780    -0.1726
      2  C2        16.5390   10.8850   23.1710 C.3   1780  HPA1780     0.2725
      3  N3        15.7060   10.1610   24.0140 N.2   1780  HPA1780    -0.1902
      4  C4        16.1920    9.6340   25.1770 C.1   1780  HPA1780     0.0598
      5  C5        17.5320    9.8220   25.5300 C.2   1780  HPA1780     0.2226
      6  C6        18.3810   10.5540   24.6810 C.1   1780  HPA1780     0.1796
      7  O6        19.5680   10.7230   24.9910 O.2   1780  HPA1780    -0.2200
      8  N7        17.7280    9.2010   26.7220 N.2   1780  HPA1780    -0.2230
      9  C8        16.5600    8.6370   27.1160 C.3   1780  HPA1780     0.2622
     10  N9        15.6230    8.9060   26.1710 N.2   1780  HPA1780    -0.1910
@<TRIPOS>BOND
     1     2     1    1
     2     2     3    1
     3     1     6    2
     4     3     4    2
     5     6     7    2
     6     6     5    1
     7     4     5    1
     8     4    10    2
     9     5     8    2
    10    10     9    1
    11     8     9    1
