@<TRIPOS>MOLECULE
2w55_MPN_B_1.pdb
 24 26 0 0 0
SMALL
GASTEIGER

@<TRIPOS>ATOM
      1  O3P       22.7550    9.9970   14.8220 O.3   1778  MPN1778    -0.1145
      2  P         21.5640    9.2800   14.2270 P.3   1778  MPN1778     0.5327
      3  O1P       21.8420    8.4130   13.0210 O.2   1778  MPN1778    -0.2224
      4  O2P       20.6650    8.6170   15.2380 O.3   1778  MPN1778    -0.1145
      5  O4'       20.6760   10.4930   13.6650 O.3   1778  MPN1778    -0.2660
      6  C4'       19.7780   11.1650   14.5780 C.3   1778  MPN1778     0.2023
      7  C3'       20.0330   12.3960   15.0320 C.3   1778  MPN1778     0.2279
      8  C2'       19.1990   12.9230   16.0960 C.2   1778  MPN1778     0.0647
      9  S2'       18.8690   12.0880   17.4990 S.2   1778  MPN1778    -0.0510
     10  O3'       20.9180   13.3020   14.3210 O.2   1778  MPN1778    -0.4454
     11  C7        20.3940   14.6400   14.2110 C.2   1778  MPN1778     0.3191
     12  C6        18.9720   14.7620   14.7530 C.2   1778  MPN1778     0.2063
     13  C1'       18.6740   14.1270   15.8970 C.2   1778  MPN1778     0.0770
     14  S1'       17.6850   14.7850   17.0720 S.2   1778  MPN1778    -0.0475
     15  N5        17.9810   15.0970   13.9150 N.2   1778  MPN1778    -0.3715
     16  N8        20.6020   15.0930   12.8340 N.2   1778  MPN1778    -0.2965
     17  C10       19.5820   15.4050   12.0060 C.1   1778  MPN1778     0.1969
     18  C9        18.2100   15.4210   12.5210 C.2   1778  MPN1778     0.3115
     19  C4        17.1490   15.7720   11.5570 C.1   1778  MPN1778     0.2580
     20  O4        15.9580   15.8150   11.9030 O.2   1778  MPN1778    -0.2051
     21  N3        17.4880   16.0600   10.2790 N.2   1778  MPN1778    -0.2465
     22  C2        18.7810   16.0280    9.8590 C.1   1778  MPN1778     0.2618
     23  N1        19.8000   15.7090   10.7040 N.2   1778  MPN1778    -0.2550
     24  N2        19.0730   16.3210    8.5680 N.pl3 1778  MPN1778    -0.0220
@<TRIPOS>BOND
     1    24    22    1
     2    22    21    2
     3    22    23    2
     4    21    19    2
     5    23    17    2
     6    19    20    2
     7    19    18    1
     8    17    18    1
     9    17    16    2
    10    18    15    2
    11    16    11    2
    12     3     2    2
    13     5     2    1
    14     5     6    1
    15    15    12    2
    16    11    10    1
    17    11    12    1
    18     2     1    1
    19     2     4    1
    20    10     7    1
    21     6     7    1
    22    12    13    1
    23     7     8    1
    24    13     8    1
    25    13    14    2
    26     8     9    2
