@<TRIPOS>MOLECULE
2w58_ADP_A_1.pdb
 27 29 0 0 0
SMALL
GASTEIGER

@<TRIPOS>ATOM
      1  PB       -20.7680   14.6450  -31.0360 P.3   1310  ADP1310     0.5373
      2  O1B      -20.8900   16.1110  -31.6780 O.2   1310  ADP1310    -0.2221
      3  O2B      -22.1230   13.7160  -31.2310 O.3   1310  ADP1310    -0.1143
      4  O3B      -19.7480   14.5910  -29.8620 O.3   1310  ADP1310    -0.1143
      5  PA       -22.4060   14.3130  -28.8040 P.3   1310  ADP1310     0.2231
      6  O1A      -21.3800   13.4190  -28.1920 O.3   1310  ADP1310    -0.4370
      7  O2A      -23.5750   13.4550  -29.4750 O.2   1310  ADP1310    -0.5169
      8  O3A      -21.7370   15.3470  -29.9460 O.3   1310  ADP1310    -0.2261
      9  O5'      -23.1380   15.1870  -27.6810 O.3   1310  ADP1310    -0.3111
     10  C5'      -23.8280   14.2020  -26.8710 C.3   1310  ADP1310     0.1813
     11  C4'      -24.5120   14.6670  -25.5630 C.3   1310  ADP1310     0.1821
     12  O4'      -25.2730   15.8740  -25.6370 O.3   1310  ADP1310    -0.3135
     13  C3'      -25.3490   13.4870  -25.0930 C.3   1310  ADP1310     0.2184
     14  O3'      -24.9360   12.9030  -23.8300 O.3   1310  ADP1310    -0.2174
     15  C2'      -26.7960   14.0620  -25.1050 C.3   1310  ADP1310     0.2570
     16  O2'      -27.4700   13.8800  -23.8620 O.3   1310  ADP1310    -0.2130
     17  C1'      -26.6570   15.5930  -25.4630 C.3   1310  ADP1310     0.3186
     18  N9       -27.3790   16.0930  -26.6400 N.pl3 1310  ADP1310    -0.1439
     19  C8       -26.8540   16.3130  -27.9040 C.3   1310  ADP1310     0.3377
     20  N7       -27.7470   16.8390  -28.6820 N.2   1310  ADP1310    -0.2095
     21  C5       -28.9000   16.9970  -27.9840 C.2   1310  ADP1310     0.2526
     22  C6       -30.1790   17.5630  -28.2670 C.2   1310  ADP1310     0.4393
     23  N6       -30.4610   18.0460  -29.5400 N.pl3 1310  ADP1310     0.2180
     24  N1       -31.1200   17.5700  -27.2910 N.2   1310  ADP1310     0.0021
     25  C2       -30.8450   17.1160  -26.0460 C.3   1310  ADP1310     0.5254
     26  N3       -29.6590   16.5880  -25.7380 N.2   1310  ADP1310    -0.0055
     27  C4       -28.6460   16.5840  -26.6400 C.2   1310  ADP1310     0.3518
@<TRIPOS>BOND
     1     2     1    2
     2     3     1    1
     3     1     8    1
     4     1     4    1
     5     8     5    1
     6    23    22    1
     7     7     5    2
     8     5     6    1
     9     5     9    1
    10    20    21    2
    11    20    19    1
    12    22    21    1
    13    22    24    2
    14    21    27    1
    15    19    18    1
    16     9    10    1
    17    24    25    1
    18    10    11    1
    19    27    18    1
    20    27    26    2
    21    18    17    1
    22    25    26    1
    23    12    11    1
    24    12    17    1
    25    11    13    1
    26    17    15    1
    27    15    13    1
    28    15    16    1
    29    13    14    1
