@<TRIPOS>MOLECULE
2w59_MAN_A_1.pdb
 11 11 0 0 0
SMALL
GASTEIGER

@<TRIPOS>ATOM
      1  C1        -3.5880   -5.1690   17.3600 C.3   1569  MAN1569     0.1777
      2  C2        -3.8850   -6.6500   17.1000 C.3   1569  MAN1569     0.2141
      3  C3        -4.2120   -6.9890   15.6420 C.3   1569  MAN1569     0.2173
      4  C4        -4.9390   -5.8700   14.9120 C.3   1569  MAN1569     0.2142
      5  C5        -4.2420   -4.5490   15.1870 C.3   1569  MAN1569     0.1810
      6  C6        -4.8790   -3.4010   14.4130 C.3   1569  MAN1569     0.2141
      7  O2        -4.9620   -7.0550   17.9230 O.3   1569  MAN1569    -0.2176
      8  O3        -5.0010   -8.1580   15.5880 O.3   1569  MAN1569    -0.2175
      9  O4        -4.9440   -6.1370   13.5280 O.3   1569  MAN1569    -0.2176
     10  O5        -4.3630   -4.2990   16.5650 O.3   1569  MAN1569    -0.3481
     11  O6        -4.7890   -3.6520   13.0310 O.3   1569  MAN1569    -0.2176
@<TRIPOS>BOND
     1    11     6    1
     2     9     4    1
     3     6     5    1
     4     4     5    1
     5     4     3    1
     6     5    10    1
     7     8     3    1
     8     3     2    1
     9    10     1    1
    10     2     1    1
    11     2     7    1
