@<TRIPOS>MOLECULE
2w5a_ADP_A_1.pdb
 27 29 0 0 0
SMALL
GASTEIGER

@<TRIPOS>ATOM
      1  PB       -25.4370   14.1100   12.1140 P.3   1280  ADP1280     0.5373
      2  O1B      -25.5870   15.0730   13.2610 O.3   1280  ADP1280    -0.1143
      3  O2B      -24.0290   13.6270   11.9310 O.3   1280  ADP1280    -0.1143
      4  O3B      -26.0490   14.5570   10.8110 O.2   1280  ADP1280    -0.2221
      5  PA       -26.1890   11.7770   13.7240 P.3   1280  ADP1280     0.2231
      6  O1A      -24.7390   11.4910   13.9940 O.3   1280  ADP1280    -0.4370
      7  O2A      -27.1160   10.6310   13.3760 O.2   1280  ADP1280    -0.5169
      8  O3A      -26.3130   12.7980   12.4720 O.3   1280  ADP1280    -0.2261
      9  O5'      -26.7940   12.4770   15.0420 O.3   1280  ADP1280    -0.3111
     10  C5'      -28.1990   12.5150   15.3280 C.3   1280  ADP1280     0.1813
     11  C4'      -28.3940   12.4230   16.8410 C.3   1280  ADP1280     0.1821
     12  O4'      -28.0580   11.1080   17.3010 O.3   1280  ADP1280    -0.3135
     13  C3'      -27.4870   13.3810   17.5910 C.3   1280  ADP1280     0.2184
     14  O3'      -28.1900   13.8230   18.7540 O.3   1280  ADP1280    -0.2174
     15  C2'      -26.3230   12.5160   18.0360 C.3   1280  ADP1280     0.2570
     16  O2'      -25.7400   12.9900   19.2510 O.3   1280  ADP1280    -0.2130
     17  C1'      -26.9860   11.1700   18.2520 C.3   1280  ADP1280     0.3186
     18  N9       -26.1060   10.0130   17.9870 N.pl3 1280  ADP1280    -0.1439
     19  C8       -25.4360    9.7540   16.8450 C.3   1280  ADP1280     0.3377
     20  N7       -24.7500    8.5860   16.9390 N.2   1280  ADP1280    -0.2095
     21  C5       -25.0030    8.0700   18.1600 C.2   1280  ADP1280     0.2526
     22  C6       -24.6040    6.8580   18.9070 C.2   1280  ADP1280     0.4393
     23  N6       -23.7790    5.9350   18.3550 N.pl3 1280  ADP1280     0.2180
     24  N1       -25.0750    6.7080   20.1640 N.2   1280  ADP1280     0.0021
     25  C2       -25.8940    7.6180   20.7210 C.3   1280  ADP1280     0.5254
     26  N3       -26.2980    8.7460   20.1070 N.2   1280  ADP1280    -0.0055
     27  C4       -25.8900    9.0180   18.8450 C.2   1280  ADP1280     0.3518
@<TRIPOS>BOND
     1     4     1    2
     2     3     1    1
     3     1     8    1
     4     1     2    1
     5     8     5    1
     6     7     5    2
     7     5     6    1
     8     5     9    1
     9     9    10    1
    10    10    11    1
    11    11    12    1
    12    11    13    1
    13    19    20    1
    14    19    18    1
    15    20    21    2
    16    12    17    1
    17    13    15    1
    18    13    14    1
    19    18    17    1
    20    18    27    1
    21    15    17    1
    22    15    16    1
    23    21    27    1
    24    21    22    1
    25    23    22    1
    26    27    26    2
    27    22    24    2
    28    26    25    1
    29    24    25    1
