@<TRIPOS>MOLECULE
2w5b_AGS_A_1.pdb
 31 33 0 0 0
SMALL
GASTEIGER

@<TRIPOS>ATOM
      1  PG        24.9670   15.7430  -10.8840 P.3   1280  AGS1280     0.4340
      2  O2G       23.8150   16.0580  -11.8120 O.2   1280  AGS1280    -0.2423
      3  O3G       25.0050   16.4030   -9.5260 O.3   1280  AGS1280    -0.1305
      4  S1G       25.0160   13.6830  -10.5900 S.3   1280  AGS1280     0.0416
      5  PB        26.4160   16.1300  -13.2550 P.3   1280  AGS1280     0.2262
      6  O1B       27.8270   16.4610  -13.6790 O.3   1280  AGS1280    -0.4369
      7  O2B       25.2690   16.8790  -13.8950 O.2   1280  AGS1280    -0.5168
      8  O3B       26.3230   16.1770  -11.6450 O.3   1280  AGS1280    -0.2405
      9  PA        27.2150   13.5400  -14.0790 P.3   1280  AGS1280     0.2189
     10  O1A       28.3360   13.5010  -13.0660 O.3   1280  AGS1280    -0.4371
     11  O2A       26.4440   12.2890  -14.3900 O.2   1280  AGS1280    -0.5170
     12  O3A       26.1510   14.5560  -13.4440 O.3   1280  AGS1280    -0.2701
     13  O5'       27.7340   14.2390  -15.4450 O.3   1280  AGS1280    -0.3112
     14  C5'       29.0060   13.9000  -16.0020 C.3   1280  AGS1280     0.1813
     15  C4'       28.9400   13.7560  -17.5190 C.3   1280  AGS1280     0.1821
     16  O4'       28.6510   12.3970  -17.8680 O.3   1280  AGS1280    -0.3135
     17  C3'       27.9030   14.6410  -18.1880 C.3   1280  AGS1280     0.2184
     18  O3'       28.4920   15.1800  -19.3650 O.3   1280  AGS1280    -0.2174
     19  C2'       26.8300   13.6790  -18.6420 C.3   1280  AGS1280     0.2570
     20  O2'       26.3210   14.0860  -19.9100 O.3   1280  AGS1280    -0.2130
     21  C1'       27.5430   12.3430  -18.7670 C.3   1280  AGS1280     0.3186
     22  N9        26.6600   11.2490  -18.3240 N.pl3 1280  AGS1280    -0.1439
     23  C8        26.0470   11.1610  -17.1290 C.3   1280  AGS1280     0.3377
     24  N7        25.3230   10.0120  -17.0540 N.2   1280  AGS1280    -0.2095
     25  C5        25.4830    9.3430  -18.2120 C.2   1280  AGS1280     0.2526
     26  C6        25.0120    8.0640  -18.7980 C.2   1280  AGS1280     0.4393
     27  N6        24.1860    7.2290  -18.1190 N.pl3 1280  AGS1280     0.2180
     28  N1        25.4340    7.7650  -20.0480 N.2   1280  AGS1280     0.0021
     29  C2        26.2510    8.5660  -20.7550 C.3   1280  AGS1280     0.5254
     30  N3        26.7160    9.7340  -20.2830 N.2   1280  AGS1280    -0.0055
     31  C4        26.3760   10.1640  -19.0440 C.2   1280  AGS1280     0.3518
@<TRIPOS>BOND
     1    29    30    1
     2    29    28    1
     3    30    31    2
     4    28    26    2
     5    20    19    1
     6    18    17    1
     7    31    22    1
     8    31    25    1
     9    26    25    1
    10    26    27    1
    11    21    19    1
    12    21    22    1
    13    21    16    1
    14    19    17    1
    15    22    23    1
    16    25    24    2
    17    17    15    1
    18    16    15    1
    19    15    14    1
    20    23    24    1
    21    14    13    1
    22    13     9    1
    23    11     9    2
    24     9    12    1
    25     9    10    1
    26     7     5    2
    27     6     5    1
    28    12     5    1
    29     5     8    1
    30     2     1    2
    31     8     1    1
    32     1     4    1
    33     1     3    1
