@<TRIPOS>MOLECULE
2w5f_XYP_A_1.pdb
 10 10 0 0 0
SMALL
GASTEIGER

@<TRIPOS>ATOM
      1  O4A      134.5100   38.1350   19.3970 O.3   1001  XYP1001    -0.1869
      2  C1B      133.9400   39.0090   20.3560 C.3   1001  XYP1001     0.3024
      3  C2B      132.8840   39.8870   19.6730 C.3   1001  XYP1001     0.2434
      4  C3B      131.9600   40.5520   20.7030 C.3   1001  XYP1001     0.2199
      5  C4B      131.4620   39.5070   21.6960 C.3   1001  XYP1001     0.2143
      6  C5B      132.6700   38.8800   22.3940 C.3   1001  XYP1001     0.1804
      7  O2B      133.5530   40.9190   18.9240 O.3   1001  XYP1001    -0.2148
      8  O3B      130.8350   41.1970   20.0840 O.3   1001  XYP1001    -0.2174
      9  O4B      130.6400   40.1820   22.6620 O.3   1001  XYP1001    -0.2176
     10  O5B      133.3610   38.1590   21.3530 O.3   1001  XYP1001    -0.3237
@<TRIPOS>BOND
     1     7     3    1
     2     1     2    1
     3     3     2    1
     4     3     4    1
     5     8     4    1
     6     2    10    1
     7     4     5    1
     8    10     6    1
     9     5     6    1
    10     5     9    1
