@<TRIPOS>MOLECULE
2w5g_ATP_A_1.pdb
 31 33 0 0 0
SMALL
GASTEIGER

@<TRIPOS>ATOM
      1  PG        37.4210   -2.8850   22.9320 P.3   1125  ATP1125     0.5373
      2  O1G       38.0700   -1.5240   23.0400 O.3   1125  ATP1125    -0.1143
      3  O2G       37.7740   -3.6740   21.6910 O.2   1125  ATP1125    -0.2221
      4  O3G       35.9250   -2.8360   23.0740 O.3   1125  ATP1125    -0.1143
      5  PB        39.7030   -4.1740   24.0130 P.3   1125  ATP1125     0.2277
      6  O1B       40.1130   -4.7190   25.3530 O.3   1125  ATP1125    -0.4368
      7  O2B       39.9120   -5.0210   22.7740 O.2   1125  ATP1125    -0.5168
      8  O3B       38.1300   -3.7590   24.0800 O.3   1125  ATP1125    -0.2258
      9  PA        41.7360   -2.5750   22.7930 P.3   1125  ATP1125     0.2189
     10  O1A       42.6040   -1.4480   23.2890 O.3   1125  ATP1125    -0.4371
     11  O2A       42.3900   -3.9030   22.4850 O.2   1125  ATP1125    -0.5170
     12  O3A       40.5120   -2.7850   23.8390 O.3   1125  ATP1125    -0.2700
     13  O5'       40.9420   -2.0460   21.4860 O.3   1125  ATP1125    -0.3112
     14  C5'       41.3420   -2.3830   20.1620 C.3   1125  ATP1125     0.1813
     15  C4'       40.6350   -3.6700   19.7670 C.3   1125  ATP1125     0.1821
     16  O4'       39.4770   -3.4110   18.9720 O.3   1125  ATP1125    -0.3135
     17  C3'       41.5420   -4.5600   18.9440 C.3   1125  ATP1125     0.2184
     18  O3'       41.4770   -5.8580   19.5380 O.3   1125  ATP1125    -0.2174
     19  C2'       40.9150   -4.5720   17.5620 C.3   1125  ATP1125     0.2570
     20  O2'       41.1310   -5.8150   16.8730 O.3   1125  ATP1125    -0.2130
     21  C1'       39.4370   -4.2910   17.8490 C.3   1125  ATP1125     0.3186
     22  N9        38.7580   -3.6360   16.6930 N.pl3 1125  ATP1125    -0.1439
     23  C8        38.9490   -2.3520   16.3140 C.3   1125  ATP1125     0.3377
     24  N7        38.1950   -2.0240   15.2510 N.2   1125  ATP1125    -0.2095
     25  C5        37.4930   -3.1370   14.9440 C.2   1125  ATP1125     0.2526
     26  C6        36.5190   -3.4920   13.9330 C.2   1125  ATP1125     0.4393
     27  N6        36.1830   -2.5580   13.0190 N.pl3 1125  ATP1125     0.2180
     28  N1        36.0040   -4.7730   13.9580 N.2   1125  ATP1125     0.0021
     29  C2        36.3760   -5.6940   14.8650 C.3   1125  ATP1125     0.5254
     30  N3        37.2780   -5.4330   15.8320 N.2   1125  ATP1125    -0.0055
     31  C4        37.8620   -4.1950   15.8970 C.2   1125  ATP1125     0.3518
@<TRIPOS>BOND
     1    27    26    1
     2    26    28    2
     3    26    25    1
     4    28    29    1
     5    29    30    1
     6    25    24    2
     7    25    31    1
     8    24    23    1
     9    30    31    2
    10    31    22    1
    11    23    22    1
    12    22    21    1
    13    20    19    1
    14    19    21    1
    15    19    17    1
    16    21    16    1
    17    17    18    1
    18    17    15    1
    19    16    15    1
    20    15    14    1
    21    14    13    1
    22    13     9    1
    23     3     1    2
    24    11     9    2
    25     7     5    2
    26     9    10    1
    27     9    12    1
    28     1     2    1
    29     1     4    1
    30     1     8    1
    31    12     5    1
    32     5     8    1
    33     5     6    1
