@<TRIPOS>MOLECULE
2w5i_ATP_A_1.pdb
 31 33 0 0 0
SMALL
GASTEIGER

@<TRIPOS>ATOM
      1  PG        38.7520   -1.7230   24.7630 P.3   1125  ATP1125     0.5373
      2  O1G       40.0900   -2.1310   25.3460 O.3   1125  ATP1125    -0.1143
      3  O2G       38.8580   -0.6890   23.6680 O.2   1125  ATP1125    -0.2221
      4  O3G       37.6370   -1.4520   25.7590 O.3   1125  ATP1125    -0.1143
      5  PB        37.1220   -3.2250   22.9640 P.3   1125  ATP1125     0.2277
      6  O1B       35.8120   -3.5210   23.6370 O.3   1125  ATP1125    -0.4368
      7  O2B       37.2400   -2.0440   22.0440 O.2   1125  ATP1125    -0.5168
      8  O3B       38.2940   -3.1140   24.0620 O.3   1125  ATP1125    -0.2258
      9  PA        39.0190   -4.6980   21.4980 P.3   1125  ATP1125     0.2189
     10  O1A       39.6030   -3.3540   21.1040 O.2   1125  ATP1125    -0.5170
     11  O2A       39.7710   -5.5720   22.4890 O.3   1125  ATP1125    -0.4371
     12  O3A       37.5470   -4.5100   22.1170 O.3   1125  ATP1125    -0.2700
     13  O5'       38.6160   -5.5220   20.1650 O.3   1125  ATP1125    -0.3112
     14  C5'       37.9130   -6.7530   20.3350 C.3   1125  ATP1125     0.1813
     15  C4'       37.8280   -7.5550   19.0430 C.3   1125  ATP1125     0.1821
     16  O4'       36.9740   -6.8760   18.1260 O.3   1125  ATP1125    -0.3135
     17  C3'       39.1630   -7.7830   18.3170 C.3   1125  ATP1125     0.2184
     18  O3'       39.5230   -9.1700   18.4320 O.3   1125  ATP1125    -0.2174
     19  C2'       38.9170   -7.4030   16.8580 C.3   1125  ATP1125     0.2570
     20  O2'       39.1260   -8.4690   15.9380 O.3   1125  ATP1125    -0.2130
     21  C1'       37.4190   -7.1850   16.7880 C.3   1125  ATP1125     0.3186
     22  N9        37.0420   -6.1660   15.7600 N.pl3 1125  ATP1125    -0.1439
     23  C8        36.1890   -6.4390   14.7620 C.3   1125  ATP1125     0.3377
     24  N7        35.9820   -5.3570   13.9930 N.2   1125  ATP1125    -0.2095
     25  C5        36.7490   -4.3810   14.4890 C.2   1125  ATP1125     0.2526
     26  C6        36.9500   -2.9980   14.0980 C.2   1125  ATP1125     0.4393
     27  N6        36.2890   -2.5630   12.9860 N.pl3 1125  ATP1125     0.2180
     28  N1        37.7730   -2.2510   14.8740 N.2   1125  ATP1125     0.0021
     29  C2        38.4250   -2.7690   15.9570 C.3   1125  ATP1125     0.5254
     30  N3        38.2740   -4.0510   16.3710 N.2   1125  ATP1125    -0.0055
     31  C4        37.4420   -4.8870   15.6700 C.2   1125  ATP1125     0.3518
@<TRIPOS>BOND
     1    27    26    1
     2    24    25    2
     3    24    23    1
     4    26    25    1
     5    26    28    2
     6    25    31    1
     7    23    22    1
     8    28    29    1
     9    31    22    1
    10    31    30    2
    11    22    21    1
    12    20    19    1
    13    29    30    1
    14    21    19    1
    15    21    16    1
    16    19    17    1
    17    16    15    1
    18    17    18    1
    19    17    15    1
    20    15    14    1
    21    13    14    1
    22    13     9    1
    23    10     9    2
    24     9    12    1
    25     9    11    1
    26     7     5    2
    27    12     5    1
    28     5     6    1
    29     5     8    1
    30     3     1    2
    31     8     1    1
    32     1     2    1
    33     1     4    1
