@<TRIPOS>MOLECULE
2w5k_NDP_A_1.pdb
 27 29 0 0 0
SMALL
GASTEIGER

@<TRIPOS>ATOM
      1  PA        43.4860   -1.5650   22.6540 P.3   1125  NDP1125     0.5327
      2  O1A       44.2400   -1.9470   21.4300 O.2   1125  NDP1125    -0.2224
      3  O2A       44.3650   -0.5600   23.5540 O.3   1125  NDP1125    -0.1145
      4  O5B       42.1580   -0.7020   22.2990 O.3   1125  NDP1125    -0.2675
      5  C5B       42.1160    0.1850   21.1960 C.3   1125  NDP1125     0.1860
      6  C4B       40.7450    0.1760   20.5060 C.3   1125  NDP1125     0.1822
      7  O4B       40.6390   -0.8220   19.4960 O.3   1125  NDP1125    -0.3136
      8  C3B       39.6100   -0.1120   21.4720 C.3   1125  NDP1125     0.2157
      9  O3B       38.5130    0.6430   20.9960 O.3   1125  NDP1125    -0.2175
     10  C2B       39.3490   -1.6070   21.2980 C.3   1125  NDP1125     0.2314
     11  O2B       37.9980   -1.9020   21.6010 O.3   1125  NDP1125    -0.2630
     12  C1B       39.6730   -1.8350   19.8220 C.3   1125  NDP1125     0.3158
     13  N9A       40.2730   -3.1570   19.5130 N.pl3 1125  NDP1125    -0.1439
     14  C8A       41.0160   -3.9610   20.3450 C.3   1125  NDP1125     0.3377
     15  N7A       41.3870   -5.0880   19.6730 N.2   1125  NDP1125    -0.2095
     16  C5A       40.9010   -5.0120   18.4050 C.2   1125  NDP1125     0.2526
     17  C6A       40.9800   -5.8680   17.2890 C.2   1125  NDP1125     0.4393
     18  N6A       41.6380   -7.0350   17.3330 N.pl3 1125  NDP1125     0.2180
     19  N1A       40.3520   -5.4890   16.1130 N.2   1125  NDP1125     0.0021
     20  C2A       39.6580   -4.2930   16.0310 C.3   1125  NDP1125     0.5254
     21  N3A       39.5980   -3.4580   17.1290 N.2   1125  NDP1125    -0.0055
     22  C4A       40.2060   -3.8050   18.2990 C.2   1125  NDP1125     0.3518
     23  O3        43.1220   -2.7670   23.4470 O.3   1125  NDP1125    -0.1145
     24  P2B       37.5950   -2.8640   22.8550 P.3   1125  NDP1125     0.5328
     25  O1X       38.4000   -2.5300   24.0890 O.3   1125  NDP1125    -0.1145
     26  O2X       36.1160   -2.7850   23.1000 O.3   1125  NDP1125    -0.1145
     27  O3X       38.0240   -4.2570   22.3900 O.2   1125  NDP1125    -0.2224
@<TRIPOS>BOND
     1    20    19    1
     2    20    21    1
     3    19    17    2
     4    21    22    2
     5    17    18    1
     6    17    16    1
     7    22    16    1
     8    22    13    1
     9    16    15    2
    10     7    12    1
    11     7     6    1
    12    13    12    1
    13    13    14    1
    14    15    14    1
    15    12    10    1
    16     6     5    1
    17     6     8    1
    18     9     8    1
    19     5     4    1
    20    10     8    1
    21    10    11    1
    22     2     1    2
    23    11    24    1
    24     4     1    1
    25    27    24    2
    26     1    23    1
    27     1     3    1
    28    24    26    1
    29    24    25    1
