@<TRIPOS>MOLECULE
2w5l_NAP_A_1.pdb
 27 29 0 0 0
SMALL
GASTEIGER

@<TRIPOS>ATOM
      1  PA        43.4800    2.0070   14.3180 P.3   1125  NAP1125     0.5327
      2  O1A       44.3130    2.4750   15.4550 O.3   1125  NAP1125    -0.1145
      3  O2A       44.2380    0.8530   13.4880 O.3   1125  NAP1125    -0.1145
      4  O5B       42.1280    1.2580   14.8230 O.3   1125  NAP1125    -0.2675
      5  C5B       42.0940    0.4000   15.9470 C.3   1125  NAP1125     0.1860
      6  C4B       40.6950    0.3790   16.5840 C.3   1125  NAP1125     0.1822
      7  O4B       40.5640    1.3560   17.6090 O.3   1125  NAP1125    -0.3136
      8  C3B       39.5720    0.6650   15.5960 C.3   1125  NAP1125     0.2157
      9  O3B       38.4680   -0.1170   16.0290 O.3   1125  NAP1125    -0.2175
     10  C2B       39.3060    2.1590   15.7760 C.3   1125  NAP1125     0.2314
     11  O2B       37.9520    2.4880   15.4690 O.3   1125  NAP1125    -0.2630
     12  C1B       39.6350    2.3920   17.2540 C.3   1125  NAP1125     0.3158
     13  N9A       40.2580    3.7070   17.5610 N.pl3 1125  NAP1125    -0.1439
     14  C8A       41.0210    4.4970   16.7270 C.3   1125  NAP1125     0.3377
     15  N7A       41.3960    5.6210   17.3940 N.2   1125  NAP1125    -0.2095
     16  C5A       40.8970    5.5700   18.6570 C.2   1125  NAP1125     0.2526
     17  C6A       40.9860    6.4360   19.7660 C.2   1125  NAP1125     0.4393
     18  N6A       41.6620    7.5980   19.7110 N.pl3 1125  NAP1125     0.2180
     19  N1A       40.3410    6.0810   20.9340 N.2   1125  NAP1125     0.0021
     20  C2A       39.6220    4.8970   21.0330 C.3   1125  NAP1125     0.5254
     21  N3A       39.5610    4.0490   19.9420 N.2   1125  NAP1125    -0.0055
     22  C4A       40.1820    4.3730   18.7700 C.2   1125  NAP1125     0.3518
     23  O3        43.1350    3.1240   13.4070 O.2   1125  NAP1125    -0.2224
     24  P2B       37.5660    3.4250   14.1970 P.3   1125  NAP1125     0.5328
     25  O1X       38.3830    3.0940   12.9770 O.2   1125  NAP1125    -0.2224
     26  O2X       36.0880    3.3150   13.9400 O.3   1125  NAP1125    -0.1145
     27  O3X       37.9790    4.8450   14.6350 O.3   1125  NAP1125    -0.1145
@<TRIPOS>BOND
     1    25    24    2
     2    23     1    2
     3     3     1    1
     4    26    24    1
     5    24    27    1
     6    24    11    1
     7     1     4    1
     8     1     2    1
     9     4     5    1
    10    11    10    1
    11     8    10    1
    12     8     9    1
    13     8     6    1
    14    10    12    1
    15     5     6    1
    16     6     7    1
    17    14    15    1
    18    14    13    1
    19    12    13    1
    20    12     7    1
    21    15    16    2
    22    13    22    1
    23    16    22    1
    24    16    17    1
    25    22    21    2
    26    18    17    1
    27    17    19    2
    28    21    20    1
    29    19    20    1
