@<TRIPOS>MOLECULE
2w5o_AHR_A_1.pdb
 10 10 0 0 0
SMALL
GASTEIGER

@<TRIPOS>ATOM
      1  O5'       12.9220   24.6780   18.1950 O.3   500  AHR500     -0.2176
      2  C5'       11.5940   24.1980   18.0540 C.3   500  AHR500      0.2142
      3  C4'       10.9380   24.4960   19.3690 C.3   500  AHR500      0.1837
      4  O4'       11.3220   23.4490   20.2750 O.3   500  AHR500     -0.3236
      5  C3'        9.4270   24.4090   19.2310 C.3   500  AHR500      0.2169
      6  O3'        8.9110   25.6860   18.9040 O.3   500  AHR500     -0.2175
      7  C2'        8.9980   23.8800   20.6020 C.3   500  AHR500      0.2433
      8  O2'        7.8130   23.0960   20.3750 O.3   500  AHR500     -0.2148
      9  C1'       10.2300   23.0980   21.1370 C.3   500  AHR500      0.3024
     10  O1'       10.7410   23.1850   22.4940 O.3   500  AHR500     -0.1869
@<TRIPOS>BOND
     1     2     1    1
     2     2     3    1
     3     6     5    1
     4     5     3    1
     5     5     7    1
     6     3     4    1
     7     4     9    1
     8     8     7    1
     9     7     9    1
    10     9    10    1
