@<TRIPOS>MOLECULE
2w5r_GP9_A_1.pdb
 10 9 0 0 0
SMALL
GASTEIGER

@<TRIPOS>ATOM
      1  C2       -19.7340    9.8550  -36.4130 C.3   1644  GP91644     0.2538
      2  C3       -19.7390    9.0180  -35.3460 C.2   1644  GP91644     0.2434
      3  C4       -20.4620    7.8750  -35.3900 C.2   1644  GP91644     0.2231
      4  O2       -19.0150   10.9940  -36.3710 O.3   1644  GP91644    -0.2114
      5  O3       -19.0460    9.3540  -34.2530 O.2   1644  GP91644    -0.2852
      6  O4       -20.5010    6.9380  -34.2730 O.2   1644  GP91644    -0.3935
      7  P1       -21.8400    6.2360  -33.7040 P.3   1644  GP91644     0.5888
      8  O8       -22.6080    7.2660  -32.9260 O.3   1644  GP91644    -0.1039
      9  O9       -22.6110    5.7170  -34.8880 O.2   1644  GP91644    -0.2114
     10  O10      -21.2530    5.1160  -32.8640 O.3   1644  GP91644    -0.1039
@<TRIPOS>BOND
     1     1     4    1
     2     1     2    1
     3     3     2    2
     4     3     6    1
     5     2     5    1
     6     9     7    2
     7     6     7    1
     8     7     8    1
     9     7    10    1
