@<TRIPOS>MOLECULE
2w5s_GP9_A_1.pdb
 10 9 0 0 0
SMALL
GASTEIGER

@<TRIPOS>ATOM
      1  C2         4.2320   47.4360   36.0180 C.3   1644  GP91644     0.2538
      2  C3         3.9140   48.1320   34.9190 C.2   1644  GP91644     0.2434
      3  C4         3.2280   49.2590   35.1460 C.2   1644  GP91644     0.2231
      4  O2         4.4960   46.1520   35.9290 O.3   1644  GP91644    -0.2114
      5  O3         4.5740   47.9730   33.7640 O.2   1644  GP91644    -0.2852
      6  O4         3.0870   50.1610   34.0300 O.2   1644  GP91644    -0.3935
      7  P1         1.7770   51.0310   33.7290 P.3   1644  GP91644     0.5888
      8  O8         2.4500   52.2610   33.0890 O.3   1644  GP91644    -0.1039
      9  O9         0.9850   50.0950   32.8630 O.2   1644  GP91644    -0.2114
     10  O10        1.1160   51.3790   35.0150 O.3   1644  GP91644    -0.1039
@<TRIPOS>BOND
     1     9     7    2
     2     8     7    1
     3     7     6    1
     4     7    10    1
     5     5     2    1
     6     6     3    1
     7     2     3    2
     8     2     1    1
     9     4     1    1
