@<TRIPOS>MOLECULE
2w5t_GP9_A_1.pdb
 10 9 0 0 0
SMALL
GASTEIGER

@<TRIPOS>ATOM
      1  C2         3.9930   47.2670   35.9330 C.2   1644  GP91644     0.2740
      2  C3         4.0190   48.2100   34.9600 C.2   1644  GP91644     0.2453
      3  C4         3.1410   49.2340   35.0380 C.3   1644  GP91644     0.2258
      4  O2         4.7890   46.1900   35.9420 O.2   1644  GP91644    -0.2799
      5  O3         4.7010   48.0380   33.8180 O.2   1644  GP91644    -0.2851
      6  O4         3.1900   50.3230   34.0740 O.3   1644  GP91644    -0.2617
      7  P1         1.8510   51.1240   33.5990 P.3   1644  GP91644     0.5330
      8  O8         2.4400   52.3440   32.9140 O.3   1644  GP91644    -0.1145
      9  O9         1.1250   50.1430   32.7090 O.2   1644  GP91644    -0.2224
     10  O10        1.1150   51.4650   34.8750 O.3   1644  GP91644    -0.1145
@<TRIPOS>BOND
     1     9     7    2
     2     8     7    1
     3     7     6    1
     4     7    10    1
     5     5     2    1
     6     6     3    1
     7     2     3    1
     8     2     1    2
     9     1     4    1
