@<TRIPOS>MOLECULE
2w5u_IC3_A_1.pdb
 21 22 0 0 0
SMALL
GASTEIGER

@<TRIPOS>ATOM
      1  N4        23.5760    3.1410   34.5280 N.1   166  IC3166     -0.1907
      2  C11       23.6400    2.2760   33.7030 C.1   166  IC3166      0.1050
      3  C9        23.3710    1.3380   32.7850 C.ar  166  IC3166      0.1240
      4  C10       22.3680    1.4830   31.7370 C.ar  166  IC3166      0.1822
      5  N5        21.6190    2.5930   31.6070 N.pl3 166  IC3166     -0.1064
      6  C8        23.9660    0.0960   32.6610 C.ar  166  IC3166      0.1337
      7  N2        23.3530   -0.5000   31.5770 N.ar  166  IC3166     -0.1615
      8  N1        22.3920    0.3570   31.0100 N.ar  166  IC3166     -0.2105
      9  C1        21.5770    0.0320   29.9630 C.ar  166  IC3166      0.1067
     10  C2        21.4130   -1.2280   29.3370 C.ar  166  IC3166      0.1604
     11  N3        22.1530   -2.3390   29.7060 N.pl3 166  IC3166      0.0592
     12  O2        23.0240   -2.2530   30.5500 O.2   166  IC3166     -0.1261
     13  O1        21.9070   -3.4140   29.1770 O.2   166  IC3166     -0.1261
     14  C3        20.5300   -1.4780   28.2810 C.ar  166  IC3166      0.0295
     15  C4        19.7290   -0.4630   27.7980 C.ar  166  IC3166      0.0732
     16  C7        18.7510   -0.6630   26.6970 C.3   166  IC3166      0.4186
     17  F3        19.1870   -0.2570   25.5170 F     166  IC3166     -0.1659
     18  F2        18.4620   -1.9410   26.6620 F     166  IC3166     -0.1659
     19  F1        17.6680    0.0170   26.9940 F     166  IC3166     -0.1659
     20  C5        19.8260    0.7690   28.3840 C.ar  166  IC3166      0.0055
     21  C6        20.7220    0.9820   29.4230 C.ar  166  IC3166      0.0208
@<TRIPOS>BOND
     1    17    16    1
     2    18    16    1
     3    16    19    1
     4    16    15    1
     5    15    14   ar
     6    15    20   ar
     7    14    10   ar
     8    20    21   ar
     9    13    11    2
    10    10    11    1
    11    10     9   ar
    12    21     9   ar
    13    11    12    2
    14     9     8    1
    15     8     7   ar
    16     8     4   ar
    17     7     6   ar
    18     5     4    1
    19     4     3   ar
    20     6     3   ar
    21     3     2    1
    22     2     1    3
