@<TRIPOS>MOLECULE
2w5u_FMN_A_1.pdb
 31 33 0 0 0
SMALL
GASTEIGER

@<TRIPOS>ATOM
      1  N1        19.4010    0.8160   27.7960 N.2   165  FMN165     -0.2890
      2  C2        19.0250   -0.2590   27.0190 C.1   165  FMN165      0.3669
      3  O2        18.2190   -0.1140   26.1080 O.2   165  FMN165     -0.1744
      4  N3        19.5560   -1.5050   27.2480 N.2   165  FMN165     -0.2300
      5  C4        20.4710   -1.6870   28.2470 C.1   165  FMN165      0.2513
      6  O4        20.8420   -2.8280   28.4920 O.2   165  FMN165     -0.2057
      7  C4A       20.8590   -0.6090   29.0420 C.2   165  FMN165      0.2700
      8  N5        21.7750   -0.8100   30.0470 N.2   165  FMN165     -0.3878
      9  C5A       22.1690    0.2490   30.8290 C.2   165  FMN165      0.1320
     10  C6        23.1010    0.0000   31.8330 C.2   165  FMN165      0.0250
     11  C7        23.5410    1.0150   32.6720 C.2   165  FMN165     -0.0238
     12  C7M       24.2840    0.6110   33.9360 C.3   165  FMN165      0.0308
     13  C8        23.0260    2.3090   32.4840 C.2   165  FMN165     -0.0280
     14  C8M       23.3730    3.4400   33.4230 C.3   165  FMN165      0.0304
     15  C9        22.0990    2.5570   31.4690 C.2   165  FMN165     -0.0041
     16  C9A       21.6480    1.5390   30.6240 C.3   165  FMN165      0.1497
     17  N10       20.7030    1.7660   29.6100 N.pl3 165  FMN165     -0.2691
     18  C10       20.3210    0.6710   28.8200 C.2   165  FMN165      0.2416
     19  C1'       20.0990    3.1540   29.3420 C.3   165  FMN165      0.1294
     20  C2'       19.0730    3.5700   30.4110 C.3   165  FMN165      0.2044
     21  O2'       18.0500    2.6200   30.6320 O.3   165  FMN165     -0.2185
     22  C3'       18.4910    4.9190   30.0230 C.3   165  FMN165      0.2164
     23  O3'       19.5440    5.8540   30.0060 O.3   165  FMN165     -0.2175
     24  C4'       17.3730    5.3390   30.9770 C.3   165  FMN165      0.2147
     25  O4'       16.5670    6.2700   30.2590 O.3   165  FMN165     -0.2176
     26  C5'       17.8600    5.8550   32.3390 C.3   165  FMN165      0.1892
     27  O5'       16.7920    5.8100   33.2080 O.3   165  FMN165     -0.2674
     28  P         16.6970    6.8590   34.3340 P.3   165  FMN165      0.5327
     29  O1P       17.2000    8.1810   33.8920 O.2   165  FMN165     -0.2224
     30  O2P       17.5830    6.2900   35.4260 O.3   165  FMN165     -0.1145
     31  O3P       15.2030    6.8280   34.7320 O.3   165  FMN165     -0.1145
@<TRIPOS>BOND
     1     3     2    2
     2     2     4    2
     3     2     1    2
     4     4     5    2
     5     1    18    2
     6     5     6    2
     7     5     7    1
     8    18     7    1
     9    18    17    1
    10     7     8    2
    11    19    17    1
    12    19    20    1
    13    17    16    1
    14    23    22    1
    15    22    20    1
    16    22    24    1
    17     8     9    2
    18    25    24    1
    19    20    21    1
    20    16     9    1
    21    16    15    1
    22     9    10    1
    23    24    26    1
    24    15    13    2
    25    10    11    2
    26    26    27    1
    27    13    11    1
    28    13    14    1
    29    11    12    1
    30    27    28    1
    31    29    28    2
    32    28    31    1
    33    28    30    1
