@<TRIPOS>MOLECULE
2w5y_SAH_A_1.pdb
 26 28 0 0 0
SMALL
GASTEIGER

@<TRIPOS>ATOM
      1  N        -40.3820    6.3370   17.7410 N.3   4971  SAH4971    -0.1208
      2  CA       -40.8700    7.3420   16.8000 C.3   4971  SAH4971     0.1952
      3  CB       -39.7860    8.3860   16.4780 C.3   4971  SAH4971     0.0422
      4  CG       -39.7230    9.5370   17.4830 C.3   4971  SAH4971     0.0597
      5  SD       -41.1380   10.6720   17.2870 S.3   4971  SAH4971    -0.1375
      6  C        -41.4840    6.6880   15.5550 C.2   4971  SAH4971     0.3819
      7  O        -41.4960    5.4670   15.4140 O.co2 4971  SAH4971    -0.2441
      8  OXT      -41.9980    7.3510   14.6610 O.co2 4971  SAH4971    -0.2441
      9  C5'      -41.4890   10.8460   19.0540 C.3   4971  SAH4971     0.0899
     10  C4'      -42.5860    9.8920   19.5300 C.3   4971  SAH4971     0.1630
     11  O4'      -42.0700    8.5820   19.7330 O.3   4971  SAH4971    -0.3153
     12  C3'      -43.1950   10.3270   20.8510 C.3   4971  SAH4971     0.2168
     13  O3'      -44.3590   11.0880   20.6480 O.3   4971  SAH4971    -0.2175
     14  C2'      -43.5550    9.0220   21.5080 C.3   4971  SAH4971     0.2569
     15  O2'      -44.8110    8.6380   21.0150 O.3   4971  SAH4971    -0.2130
     16  C1'      -42.5410    8.0420   20.9550 C.3   4971  SAH4971     0.3185
     17  N9       -41.4210    7.9200   21.9070 N.pl3 4971  SAH4971    -0.1439
     18  C8       -40.1770    8.4830   21.7670 C.3   4971  SAH4971     0.3377
     19  N7       -39.4330    8.1480   22.8460 N.2   4971  SAH4971    -0.2095
     20  C5       -40.1800    7.3880   23.6810 C.2   4971  SAH4971     0.2526
     21  C6       -39.9150    6.7910   24.9100 C.2   4971  SAH4971     0.4393
     22  N6       -38.7260    6.9140   25.4900 N.pl3 4971  SAH4971     0.2180
     23  N1       -40.9050    6.0600   25.5360 N.2   4971  SAH4971     0.0021
     24  C2       -42.1440    5.9180   24.9420 C.3   4971  SAH4971     0.5254
     25  N3       -42.3980    6.5130   23.7210 N.2   4971  SAH4971    -0.0055
     26  C4       -41.4360    7.2380   23.1000 C.2   4971  SAH4971     0.3518
@<TRIPOS>BOND
     1     8     6   ar
     2     7     6   ar
     3     6     2    1
     4     3     2    1
     5     3     4    1
     6     2     1    1
     7     5     4    1
     8     5     9    1
     9     9    10    1
    10    10    11    1
    11    10    12    1
    12    11    16    1
    13    13    12    1
    14    12    14    1
    15    16    14    1
    16    16    17    1
    17    15    14    1
    18    18    17    1
    19    18    19    1
    20    17    26    1
    21    19    20    2
    22    26    20    1
    23    26    25    2
    24    20    21    1
    25    25    24    1
    26    21    22    1
    27    21    23    2
    28    24    23    1
