@<TRIPOS>MOLECULE
2w5z_SAH_A_1.pdb
 26 28 0 0 0
SMALL
GASTEIGER

@<TRIPOS>ATOM
      1  N        -15.9670   21.8290  -17.5970 N.3   4971  SAH4971    -0.1208
      2  CA       -16.5820   20.7120  -16.8880 C.3   4971  SAH4971     0.1952
      3  CB       -15.4700   19.7140  -16.5110 C.3   4971  SAH4971     0.0422
      4  CG       -15.3500   18.6270  -17.5940 C.3   4971  SAH4971     0.0597
      5  SD       -16.7350   17.4420  -17.4870 S.3   4971  SAH4971    -0.1375
      6  C        -17.2810   21.2430  -15.6240 C.2   4971  SAH4971     0.3819
      7  O        -17.6410   20.5020  -14.7700 O.co2 4971  SAH4971    -0.2441
      8  OXT      -17.2350   22.6110  -15.3580 O.co2 4971  SAH4971    -0.2441
      9  C5'      -17.3300   17.0620  -19.1670 C.3   4971  SAH4971     0.0899
     10  C4'      -18.3440   18.1090  -19.6630 C.3   4971  SAH4971     0.1630
     11  O4'      -17.7400   19.4470  -19.7920 O.3   4971  SAH4971    -0.3153
     12  C3'      -18.8360   17.7430  -21.0650 C.3   4971  SAH4971     0.2168
     13  O3'      -19.9590   16.9030  -20.9940 O.3   4971  SAH4971    -0.2175
     14  C2'      -19.2360   19.0780  -21.6300 C.3   4971  SAH4971     0.2569
     15  O2'      -20.5250   19.4180  -21.1900 O.3   4971  SAH4971    -0.2130
     16  C1'      -18.2190   20.0520  -21.0400 C.3   4971  SAH4971     0.3185
     17  N9       -17.0910   20.1680  -21.9550 N.pl3 4971  SAH4971    -0.1439
     18  C8       -15.7340   19.5980  -21.7080 C.3   4971  SAH4971     0.3377
     19  N7       -14.8990   19.9300  -22.8530 N.2   4971  SAH4971    -0.2095
     20  C5       -15.7000   20.6990  -23.8180 C.2   4971  SAH4971     0.2526
     21  C6       -15.3700   21.3030  -25.1570 C.2   4971  SAH4971     0.4393
     22  N6       -14.0380   21.1660  -25.7260 N.pl3 4971  SAH4971     0.2180
     23  N1       -16.3920   22.0230  -25.8990 N.2   4971  SAH4971     0.0021
     24  C2       -17.7680   22.1660  -25.3230 C.3   4971  SAH4971     0.5254
     25  N3       -18.0820   21.5720  -24.0070 N.2   4971  SAH4971    -0.0055
     26  C4       -17.0600   20.8420  -23.2470 C.2   4971  SAH4971     0.3518
@<TRIPOS>BOND
     1    23    24    1
     2    23    21    2
     3    22    21    1
     4    24    25    1
     5    21    20    1
     6    25    26    2
     7    20    26    1
     8    20    19    2
     9    26    17    1
    10    19    18    1
    11    17    18    1
    12    17    16    1
    13    14    15    1
    14    14    12    1
    15    14    16    1
    16    12    13    1
    17    12    10    1
    18    16    11    1
    19    11    10    1
    20    10     9    1
    21     9     5    1
    22     1     2    1
    23     4     5    1
    24     4     3    1
    25     2     3    1
    26     2     6    1
    27     6     8   ar
    28     6     7   ar
