@<TRIPOS>MOLECULE
2w62_BGC_A_1.pdb
 12 12 0 0 0
SMALL
GASTEIGER

@<TRIPOS>ATOM
      1  O3        12.6680   23.3310   22.6390 O.3   1490  BGC1490    -0.2174
      2  C2        14.2630   24.9020   21.6680 C.3   1490  BGC1490     0.2434
      3  C3        13.1590   24.6920   22.7190 C.3   1490  BGC1490     0.2199
      4  C4        13.6870   24.8520   24.1410 C.3   1490  BGC1490     0.2144
      5  C5        14.3190   26.2490   24.2680 C.3   1490  BGC1490     0.1836
      6  C6        14.8780   26.5370   25.6920 C.3   1490  BGC1490     0.2142
      7  C1        15.0020   26.2240   21.9510 C.3   1490  BGC1490     0.3024
      8  O1        16.1550   26.2930   21.1080 O.3   1490  BGC1490    -0.1869
      9  O2        13.6690   24.9510   20.3440 O.3   1490  BGC1490    -0.2148
     10  O4        12.6070   24.6710   25.0900 O.3   1490  BGC1490    -0.2176
     11  O5        15.4380   26.2600   23.3570 O.3   1490  BGC1490    -0.3236
     12  O6        15.9180   25.5820   25.9410 O.3   1490  BGC1490    -0.2176
@<TRIPOS>BOND
     1     9     2    1
     2     8     7    1
     3     2     7    1
     4     2     3    1
     5     7    11    1
     6     1     3    1
     7     3     4    1
     8    11     5    1
     9     4     5    1
    10     4    10    1
    11     5     6    1
    12     6    12    1
