@<TRIPOS>MOLECULE
2w63_BGC_A_1.pdb
 12 12 0 0 0
SMALL
GASTEIGER

@<TRIPOS>ATOM
      1  C2       -10.6120   10.5930  -21.6790 C.3   1484  BGC1484     0.2434
      2  C3       -11.7220   10.8150  -22.7120 C.3   1484  BGC1484     0.2199
      3  C4       -11.1760   10.6730  -24.1380 C.3   1484  BGC1484     0.2144
      4  C5       -10.5030    9.2910  -24.2800 C.3   1484  BGC1484     0.1836
      5  C6        -9.9730    8.9550  -25.6780 C.3   1484  BGC1484     0.2142
      6  C1        -9.8500    9.2900  -21.9560 C.3   1484  BGC1484     0.3024
      7  O1        -8.7400    9.1850  -21.0510 O.3   1484  BGC1484    -0.1869
      8  O2       -11.1920   10.5680  -20.3720 O.3   1484  BGC1484    -0.2148
      9  O3       -12.1770   12.1700  -22.5700 O.3   1484  BGC1484    -0.2174
     10  O4       -12.2250   10.8990  -25.1150 O.3   1484  BGC1484    -0.2176
     11  O5        -9.3820    9.2830  -23.3550 O.3   1484  BGC1484    -0.3236
     12  O6        -8.9440    9.8720  -26.0030 O.3   1484  BGC1484    -0.2176
@<TRIPOS>BOND
     1    12     5    1
     2     5     4    1
     3    10     3    1
     4     4     3    1
     5     4    11    1
     6     3     2    1
     7    11     6    1
     8     2     9    1
     9     2     1    1
    10     6     1    1
    11     6     7    1
    12     1     8    1
