@<TRIPOS>MOLECULE
2w66_HQ6_A_1.pdb
 16 16 0 0 0
SMALL
GASTEIGER

@<TRIPOS>ATOM
      1  O9         5.8140  -10.0040    5.5050 O.2   1716  HQ61716    -0.2733
      2  C9         6.9450   -9.9230    5.9600 C.2   1716  HQ61716     0.2420
      3  C10        7.2630   -9.2940    7.3280 C.3   1716  HQ61716     0.0964
      4  N2         8.0650  -10.4360    5.2000 N.am  1716  HQ61716    -0.2018
      5  C5         7.9890  -11.3450    4.0440 C.3   1716  HQ61716     0.1598
      6  C6         7.4050  -12.7960    4.2300 C.3   1716  HQ61716     0.1916
      7  O6         7.7260  -13.6770    3.1340 O.3   1716  HQ61716    -0.2197
      8  C4         7.5180  -10.4890    2.8460 C.3   1716  HQ61716     0.2059
      9  O4         8.6890  -10.1550    2.0970 O.3   1716  HQ61716    -0.2184
     10  C3         6.4740  -11.0700    1.8760 C.3   1716  HQ61716     0.2023
     11  O3         6.3160  -10.1960    0.7820 O.3   1716  HQ61716    -0.2188
     12  C2         5.1280  -11.4320    2.5620 C.3   1716  HQ61716     0.1386
     13  C8         3.9690  -11.5510    1.5390 C.3   1716  HQ61716     0.2020
     14  O8         4.1680  -12.6890    0.7190 O.3   1716  HQ61716    -0.2188
     15  N1         5.2440  -12.7780    3.1200 N.3   1716  HQ61716    -0.2114
     16  C7         5.8780  -12.8890    4.4070 C.3   1716  HQ61716     0.1235
@<TRIPOS>BOND
     1    14    13    1
     2    11    10    1
     3    13    12    1
     4    10    12    1
     5    10     8    1
     6     9     8    1
     7    12    15    1
     8     8     5    1
     9    15    16    1
    10     7     6    1
    11     5     6    1
    12     5     4    1
    13     6    16    1
    14     4     2   am
    15     1     2    2
    16     2     3    1
