@<TRIPOS>MOLECULE
2w67_F34_A_1.pdb
 14 14 0 0 0
SMALL
GASTEIGER

@<TRIPOS>ATOM
      1  O8       -16.2050    2.8620   -3.5010 O.2   1716  F341716    -0.2733
      2  C8       -15.0350    2.7940   -3.8510 C.2   1716  F341716     0.2419
      3  C9       -14.6370    2.1650   -5.1690 C.3   1716  F341716     0.0964
      4  N2       -14.0380    3.3180   -3.1330 N.am  1716  F341716    -0.2030
      5  C3       -14.1600    3.9600   -1.8160 C.3   1716  F341716     0.1455
      6  C4       -14.6830    2.9220   -0.8580 C.3   1716  F341716     0.2059
      7  O4       -13.5300    2.1410   -0.4030 O.3   1716  F341716    -0.2184
      8  C5       -15.3270    3.4800    0.3840 C.3   1716  F341716     0.2154
      9  O5       -15.5900    2.3270    1.1740 O.3   1716  F341716    -0.2176
     10  C6       -16.5870    4.3380    0.2030 C.3   1716  F341716     0.2020
     11  O6       -17.6180    3.6160    0.8590 O.3   1716  F341716    -0.2188
     12  C7       -17.1020    4.6030   -1.2180 C.3   1716  F341716     0.1243
     13  N1       -16.2080    5.3070   -2.1390 N.3   1716  F341716    -0.2134
     14  C2       -14.8300    5.3410   -1.6680 C.3   1716  F341716     0.1131
@<TRIPOS>BOND
     1     3     2    1
     2     2     1    2
     3     2     4   am
     4     4     5    1
     5    13    14    1
     6    13    12    1
     7     5    14    1
     8     5     6    1
     9    12    10    1
    10     6     7    1
    11     6     8    1
    12    10     8    1
    13    10    11    1
    14     8     9    1
