@<TRIPOS>MOLECULE
2w68_SIA_A_1.pdb
 20 20 0 0 0
SMALL
GASTEIGER

@<TRIPOS>ATOM
      1  C1        25.4450  -37.8050   -6.3780 C.2   1217  SIA1217     0.3914
      2  C2        24.2850  -36.9760   -5.8170 C.3   1217  SIA1217     0.2203
      3  C3        23.0430  -37.1290   -6.6950 C.3   1217  SIA1217     0.0760
      4  C4        22.3470  -38.4590   -6.5130 C.3   1217  SIA1217     0.1773
      5  C5        22.0200  -38.6050   -5.0460 C.3   1217  SIA1217     0.1552
      6  C6        23.3610  -38.6050   -4.3370 C.3   1217  SIA1217     0.1710
      7  C7        23.3070  -38.9580   -2.8570 C.3   1217  SIA1217     0.2134
      8  C8        24.6640  -38.7050   -2.1970 C.3   1217  SIA1217     0.2173
      9  C9        24.6990  -39.1910   -0.7560 C.3   1217  SIA1217     0.2175
     10  C10       20.2160  -40.2250   -4.5900 C.2   1217  SIA1217     0.2420
     11  C11       19.8840  -41.6910   -4.5720 C.3   1217  SIA1217     0.0964
     12  N5        21.4750  -39.9490   -4.9500 N.am  1217  SIA1217    -0.2020
     13  O1A       26.0360  -38.6360   -5.6390 O.co2 1217  SIA1217    -0.2430
     14  O1B       25.7990  -37.6280   -7.5790 O.co2 1217  SIA1217    -0.2430
     15  O4        21.1700  -38.4970   -7.3160 O.3   1217  SIA1217    -0.2211
     16  O6        24.0040  -37.3500   -4.4710 O.3   1217  SIA1217    -0.3429
     17  O7        22.2390  -38.2680   -2.2230 O.3   1217  SIA1217    -0.2176
     18  O8        25.6650  -39.4960   -2.8780 O.3   1217  SIA1217    -0.2175
     19  O9        25.2470  -40.5300   -0.7550 O.3   1217  SIA1217    -0.2175
     20  O10       19.3880  -39.3750   -4.2860 O.2   1217  SIA1217    -0.2733
@<TRIPOS>BOND
     1    14     1   ar
     2    15     4    1
     3     3     4    1
     4     3     2    1
     5     4     5    1
     6     1     2    1
     7     1    13   ar
     8     2    16    1
     9     5    12    1
    10     5     6    1
    11    12    10   am
    12    10    11    1
    13    10    20    2
    14    16     6    1
    15     6     7    1
    16    18     8    1
    17     7    17    1
    18     7     8    1
    19     8     9    1
    20     9    19    1
