@<TRIPOS>MOLECULE
2w6c_BM4_X_1.pdb
 26 27 0 0 0
SMALL
GASTEIGER

@<TRIPOS>ATOM
      1  OAU        5.8970   64.0220   63.0090 O.3   1536  BM41536    -0.2866
      2  CAS        4.8440   64.6790   63.5850 C.ar  1536  BM41536     0.1954
      3  CAQ        4.7150   66.0620   63.4300 C.ar  1536  BM41536     0.0378
      4  CAT        3.9020   63.9670   64.3270 C.ar  1536  BM41536     0.0420
      5  CAR        2.8340   64.6550   64.8960 C.ar  1536  BM41536     0.0030
      6  CAP        2.7210   66.0400   64.7500 C.ar  1536  BM41536    -0.0040
      7  CAO        3.6720   66.7680   64.0310 C.ar  1536  BM41536    -0.0183
      8  CAC        3.5540   68.3130   63.8530 C.3   1536  BM41536     0.0337
      9  CAM        2.5890   68.5520   62.6900 C.3   1536  BM41536     0.0054
     10  CAN        3.3220   68.4300   61.3340 C.3   1536  BM41536     0.0004
     11  CAB        2.9960   69.0340   65.1070 C.3   1536  BM41536     0.0761
     12  CAD        4.9130   68.9230   63.4080 C.3   1536  BM41536     0.0054
     13  CAE        5.9280   69.2000   64.5270 C.3   1536  BM41536     0.0018
     14  CAF        5.3930   70.2400   65.5200 C.3   1536  BM41536     0.0173
     15  CAG        4.7830   69.5700   66.7540 C.3   1536  BM41536     0.0721
     16  NAA        3.7200   68.6370   66.3380 N.3   1536  BM41536    -0.2724
     17  CAH        2.8680   68.2230   67.4750 C.3   1536  BM41536     0.0721
     18  CAI        3.7430   67.4010   68.4660 C.3   1536  BM41536     0.0173
     19  CAJ        3.0570   66.1110   68.9420 C.3   1536  BM41536     0.0014
     20  CAK        4.0510   64.9850   69.2810 C.3   1536  BM41536     0.0000
     21  CAL        3.3270   63.6260   69.4550 C.3   1536  BM41536     0.0000
     22  CAV        2.7070   63.4570   70.8470 C.3   1536  BM41536     0.0000
     23  CAW        1.3820   62.6860   70.8250 C.3   1536  BM41536     0.0015
     24  CAX        1.2000   61.8240   72.0920 C.3   1536  BM41536     0.0205
     25  CAY       -0.2190   61.9460   72.6800 C.3   1536  BM41536     0.1093
     26  NAZ       -0.6340   60.6860   73.3320 N.3   1536  BM41536    -0.1314
@<TRIPOS>BOND
     1    10     9    1
     2     9     8    1
     3     1     2    1
     4    12     8    1
     5    12    13    1
     6     3     2   ar
     7     3     7   ar
     8     2     4   ar
     9     8     7    1
    10     8    11    1
    11     7     6   ar
    12     4     5   ar
    13    13    14    1
    14     6     5   ar
    15    11    16    1
    16    14    15    1
    17    16    15    1
    18    16    17    1
    19    17    18    1
    20    18    19    1
    21    19    20    1
    22    20    21    1
    23    21    22    1
    24    23    22    1
    25    23    24    1
    26    24    25    1
    27    25    26    1
