@<TRIPOS>MOLECULE
2w6d_GDP_A_1.pdb
 28 30 0 0 0
SMALL
GASTEIGER

@<TRIPOS>ATOM
      1  PB       229.4690   -7.6190   66.8600 P.3   1696  GDP1696     0.5373
      2  O1B      229.8450   -6.3080   66.3220 O.3   1696  GDP1696    -0.1143
      3  O2B      228.0390   -8.0180   66.2780 O.2   1696  GDP1696    -0.2221
      4  O3B      229.4180   -7.5880   68.4730 O.3   1696  GDP1696    -0.1143
      5  O3A      230.4730   -8.7560   66.4080 O.3   1696  GDP1696    -0.2261
      6  PA       231.9990   -8.5240   66.9050 P.3   1696  GDP1696     0.2231
      7  O1A      232.6710   -7.3310   66.3290 O.2   1696  GDP1696    -0.5169
      8  O2A      232.0450   -8.4310   68.5080 O.3   1696  GDP1696    -0.4370
      9  O5'      232.7160   -9.8540   66.3810 O.3   1696  GDP1696    -0.3111
     10  C5'      234.0510   -9.7900   66.7490 C.3   1696  GDP1696     0.1813
     11  C4'      234.7020  -11.0680   66.3010 C.3   1696  GDP1696     0.1799
     12  O4'      234.5280  -11.2260   64.8890 O.3   1696  GDP1696    -0.3326
     13  C3'      236.1740  -10.9780   66.6650 C.3   1696  GDP1696     0.2158
     14  O3'      236.5630  -12.0390   67.5620 O.3   1696  GDP1696    -0.2175
     15  C2'      236.9160  -11.0220   65.3390 C.3   1696  GDP1696     0.2310
     16  O2'      237.8520  -12.1080   65.3180 O.3   1696  GDP1696    -0.2158
     17  C1'      235.8190  -11.1850   64.2610 C.3   1696  GDP1696     0.2293
     18  N9       235.8750  -10.1180   63.2610 N.pl3 1696  GDP1696    -0.2354
     19  C8       235.2610   -8.8910   63.2970 C.3   1696  GDP1696     0.2246
     20  N7       235.5500   -8.2200   62.2160 N.2   1696  GDP1696    -0.2322
     21  C5       236.3630   -8.9730   61.4370 C.2   1696  GDP1696     0.2182
     22  C6       237.0020   -8.7920   60.1660 C.1   1696  GDP1696     0.2372
     23  O6       236.8600   -7.7570   59.5310 O.2   1696  GDP1696    -0.2069
     24  N1       237.7840   -9.8170   59.6820 N.2   1696  GDP1696    -0.2485
     25  C2       237.9460  -10.9900   60.4000 C.1   1696  GDP1696     0.2531
     26  N2       238.7300  -11.9880   59.9020 N.pl3 1696  GDP1696    -0.0226
     27  N3       237.3570  -11.1580   61.5610 N.2   1696  GDP1696    -0.3074
     28  C4       236.5740  -10.1950   62.1070 C.2   1696  GDP1696     0.2300
@<TRIPOS>BOND
     1    23    22    2
     2    24    22    2
     3    24    25    2
     4    26    25    1
     5    22    21    1
     6    25    27    2
     7    21    28    1
     8    21    20    2
     9    27    28    2
    10    28    18    1
    11    20    19    1
    12    18    19    1
    13    18    17    1
    14    17    12    1
    15    17    15    1
    16    12    11    1
    17    16    15    1
    18    15    13    1
    19     3     1    2
    20    11    13    1
    21    11    10    1
    22     2     1    1
    23     7     6    2
    24     9    10    1
    25     9     6    1
    26     5     1    1
    27     5     6    1
    28    13    14    1
    29     1     4    1
    30     6     8    1
