@<TRIPOS>MOLECULE
2w6e_ADP_D_1.pdb
 27 29 0 0 0
SMALL
GASTEIGER

@<TRIPOS>ATOM
      1  O2B       59.5340    0.4950   36.4780 O.2   1476  ADP1476    -0.2221
      2  PB        60.1760   -0.5850   37.3040 P.3   1476  ADP1476     0.5373
      3  O3B       61.1290   -1.4000   36.4930 O.3   1476  ADP1476    -0.1143
      4  O1B       59.1760   -1.4440   37.9950 O.3   1476  ADP1476    -0.1143
      5  O3A       60.9740    0.3170   38.3600 O.3   1476  ADP1476    -0.2261
      6  PA        62.4400    0.3380   39.0390 P.3   1476  ADP1476     0.2231
      7  O2A       62.8690   -1.0400   39.3420 O.3   1476  ADP1476    -0.4370
      8  O1A       63.3970    1.1520   38.2650 O.2   1476  ADP1476    -0.5169
      9  O5'       62.1110    1.1410   40.4120 O.3   1476  ADP1476    -0.3111
     10  C5'       61.9730    2.5930   40.2300 C.3   1476  ADP1476     0.1813
     11  C4'       62.6650    3.2520   41.3850 C.3   1476  ADP1476     0.1821
     12  O4'       61.9740    2.7680   42.5650 O.3   1476  ADP1476    -0.3135
     13  C3'       64.1160    2.8560   41.7070 C.3   1476  ADP1476     0.2184
     14  O3'       65.0370    3.6770   41.0120 O.3   1476  ADP1476    -0.2174
     15  C2'       64.1910    3.3260   43.1730 C.3   1476  ADP1476     0.2570
     16  O2'       64.2980    4.7510   43.2150 O.3   1476  ADP1476    -0.2130
     17  C1'       62.8550    2.8120   43.6950 C.3   1476  ADP1476     0.3186
     18  N9        62.8830    1.4280   44.1770 N.pl3 1476  ADP1476    -0.1439
     19  C8        62.4330    0.3650   43.4380 C.3   1476  ADP1476     0.3377
     20  N7        62.5990   -0.7810   44.0790 N.2   1476  ADP1476    -0.2095
     21  C5        63.1790   -0.4190   45.2720 C.2   1476  ADP1476     0.2526
     22  C4        63.3580    0.9390   45.3720 C.2   1476  ADP1476     0.3518
     23  N3        63.8940    1.5990   46.4370 N.2   1476  ADP1476    -0.0055
     24  C2        64.2250    0.7790   47.3980 C.3   1476  ADP1476     0.5254
     25  N1        64.0980   -0.5800   47.4270 N.2   1476  ADP1476     0.0021
     26  C6        63.5690   -1.2160   46.3660 C.2   1476  ADP1476     0.4393
     27  N6        63.3740   -2.5240   46.3040 N.pl3 1476  ADP1476     0.2180
@<TRIPOS>BOND
     1     1     2    2
     2     3     2    1
     3     2     4    1
     4     2     5    1
     5     8     6    2
     6     5     6    1
     7     6     7    1
     8     6     9    1
     9    10     9    1
    10    10    11    1
    11    14    13    1
    12    11    13    1
    13    11    12    1
    14    13    15    1
    15    12    17    1
    16    15    16    1
    17    15    17    1
    18    19    20    1
    19    19    18    1
    20    17    18    1
    21    20    21    2
    22    18    22    1
    23    21    22    1
    24    21    26    1
    25    22    23    2
    26    27    26    1
    27    26    25    2
    28    23    24    1
    29    24    25    1
