@<TRIPOS>MOLECULE
2w6i_III_H_1.pdb
 45 44 0 0 0
SMALL
GASTEIGER

@<TRIPOS>ATOM
      1  N        -21.5030   -2.6190 -103.2120 N.3    79  SER79      -0.1202
      2  CA       -22.3760   -1.5360 -103.6470 C.3    79  SER79       0.2020
      3  C        -22.1370   -0.2940 -102.7880 C.2    79  SER79       0.2619
      4  O        -21.1910   -0.2640 -102.0040 O.2    79  SER79      -0.2717
      5  CB       -23.8480   -1.9520 -103.5510 C.3    79  SER79       0.2103
      6  OG       -24.1570   -2.3830 -102.2380 O.3    79  SER79      -0.2182
      7  N        -22.9890    0.7140 -102.9390 N.am   80  GLY80      -0.1942
      8  CA       -22.8360    1.9330 -102.1540 C.3    80  GLY80       0.2014
      9  C        -22.8100    3.1810 -103.0190 C.2    80  GLY80       0.2640
     10  O        -23.5740    3.2980 -103.9740 O.2    80  GLY80      -0.2714
     11  N        -21.9380    4.1270 -102.6690 N.am   81  SER81      -0.1935
     12  CA       -21.8420    5.3720 -103.4160 C.3    81  SER81       0.2055
     13  C        -20.4260    5.9280 -103.4670 C.2    81  SER81       0.2643
     14  O        -19.5400    5.5390 -102.7170 O.2    81  SER81      -0.2714
     15  CB       -22.7800    6.4300 -102.8180 C.3    81  SER81       0.2130
     16  OG       -22.3500    6.8030 -101.5170 O.3    81  SER81      -0.2179
     17  N        -20.2340    6.8650 -104.3870 N.am   82  VAL82      -0.1963
     18  CA       -18.9740    7.5700 -104.5680 C.3    82  VAL82       0.1727
     19  C        -19.2780    9.0410 -104.8570 C.2    82  VAL82       0.2617
     20  O        -20.3040    9.3420 -105.4710 O.2    82  VAL82      -0.2715
     21  CB       -18.1090    6.9820 -105.6860 C.3    82  VAL82       0.0290
     22  CG1      -18.7930    7.0980 -107.0370 C.3    82  VAL82       0.0023
     23  CG2      -16.7370    7.6470 -105.7160 C.3    82  VAL82       0.0023
     24  N        -18.4330    9.9430 -104.3760 N.am   83  THR83      -0.1937
     25  CA       -18.7090   11.3650 -104.5640 C.3    83  THR83       0.2028
     26  C        -17.4460   12.1730 -104.8090 C.2    83  THR83       0.2642
     27  O        -16.4180   11.9990 -104.1660 O.2    83  THR83      -0.2714
     28  CB       -19.4750   11.9300 -103.3540 C.3    83  THR83       0.1808
     29  OG1      -20.6500   11.1370 -103.1340 O.3    83  THR83      -0.2208
     30  CG2      -19.9010   13.3690 -103.5860 C.3    83  THR83       0.0379
     31  N        -17.5390   13.0630 -105.7880 N.am   84  VAL84      -0.1963
     32  CA       -16.4490   13.9660 -106.1670 C.3    84  VAL84       0.1727
     33  C        -16.9890   15.3910 -106.1320 C.2    84  VAL84       0.2616
     34  O        -17.9800   15.6820 -106.8070 O.2    84  VAL84      -0.2715
     35  CB       -15.9040   13.5990 -107.5510 C.3    84  VAL84       0.0290
     36  CG1      -15.0160   12.3590 -107.4740 C.3    84  VAL84       0.0023
     37  CG2      -17.0440   13.3200 -108.5250 C.3    84  VAL84       0.0023
     38  N        -16.4360   16.2480 -105.2790 N.am   85  ASN85      -0.1972
     39  CA       -16.9700   17.5920 -105.0940 C.3    85  ASN85       0.1688
     40  C        -16.1880   18.6870 -105.7980 C.2    85  ASN85       0.2292
     41  O        -15.1830   18.4320 -106.4570 O.2    85  ASN85      -0.2864
     42  CB       -17.0430   17.8960 -103.5840 C.3    85  ASN85       0.1181
     43  CG       -17.7870   16.8050 -102.8320 C.2    85  ASN85       0.2629
     44  OD1      -19.0110   16.8440 -102.7200 O.2    85  ASN85      -0.2716
     45  ND2      -17.0440   15.8290 -102.3260 N.am   85  ASN85      -0.0877
@<TRIPOS>BOND
     1    37    35    1
     2    35    36    1
     3    35    32    1
     4    22    21    1
     5    34    33    2
     6    41    40    2
     7    32    33    1
     8    32    31    1
     9    33    38   am
    10    40    39    1
    11    31    26   am
    12    23    21    1
    13    21    18    1
    14    20    19    2
    15    38    39    1
    16    39    42    1
    17    19    18    1
    18    19    24   am
    19    26    25    1
    20    26    27    2
    21    18    17    1
    22    25    24    1
    23    25    28    1
    24    17    13   am
    25    10     9    2
    26     2     5    1
    27     2     1    1
    28     2     3    1
    29    30    28    1
    30    42    43    1
    31     5     6    1
    32    13    12    1
    33    13    14    2
    34    12    15    1
    35    12    11    1
    36    28    29    1
    37     9    11   am
    38     9     8    1
    39     7     3   am
    40     7     8    1
    41    43    44    2
    42    43    45   am
    43    15    16    1
    44     3     4    2
