@<TRIPOS>MOLECULE
2w6m_OA1_A_1.pdb
 15 16 0 0 0
SMALL
GASTEIGER

@<TRIPOS>ATOM
      1 BR1         0.0340  -19.7960   22.6570 Br    1447  OA11447    -0.0490
      2  C7         1.7520  -20.4620   23.1640 C.ar  1447  OA11447     0.0347
      3  C3         1.9230  -21.9170   23.3010 C.ar  1447  OA11447     0.0100
      4  C11        2.7250  -19.6750   23.3700 C.ar  1447  OA11447     0.0067
      5  C8         3.8380  -20.0480   23.6890 C.ar  1447  OA11447     0.0006
      6  C4         4.1540  -21.2660   23.8550 C.ar  1447  OA11447     0.0033
      7  C1         3.1400  -22.3240   23.6600 C.ar  1447  OA11447     0.0426
      8  C2         3.4680  -23.7410   23.8280 C.2   1447  OA11447     0.2314
      9  O6         4.5840  -24.1360   23.5240 O.2   1447  OA11447    -0.2832
     10  C5         2.5260  -24.7370   24.3420 C.ar  1447  OA11447     0.2063
     11  O10        2.8320  -26.1340   24.1480 O.2   1447  OA11447    -0.4183
     12  C14        1.6790  -26.6790   24.8070 C.ar  1447  OA11447     0.3294
     13  N15        1.4580  -27.9850   24.9210 N.pl3 1447  OA11447    -0.0684
     14  N13        0.9820  -25.7120   25.2230 N.ar  1447  OA11447    -0.1903
     15  C9         1.4350  -24.5940   24.9800 C.ar  1447  OA11447     0.1443
@<TRIPOS>BOND
     1     1     2    1
     2     2     3   ar
     3     2     4   ar
     4     3     7   ar
     5     4     5   ar
     6     9     8    2
     7     7     8    1
     8     7     6   ar
     9     5     6   ar
    10     8    10    1
    11    11    10   ar
    12    11    12   ar
    13    10    15   ar
    14    12    13    1
    15    12    14   ar
    16    15    14   ar
