@<TRIPOS>MOLECULE
2w6n_OA2_A_1.pdb
 23 25 0 0 0
SMALL
GASTEIGER

@<TRIPOS>ATOM
      1  O2         4.7780  -24.3280   23.2950 O.2   1446  OA21446    -0.2665
      2  C1         3.8310  -23.6740   23.7420 C.2   1446  OA21446     0.2859
      3  C3         2.6920  -24.4920   24.3020 C.ar  1446  OA21446     0.2208
      4  O4         2.9270  -25.8280   24.1360 O.2   1446  OA21446    -0.4169
      5  C6         1.8280  -26.3890   24.6940 C.ar  1446  OA21446     0.3295
      6  N8         1.6810  -27.7340   24.7320 N.pl3 1446  OA21446    -0.0684
      7  N7         0.9390  -25.5240   25.2090 N.ar  1446  OA21446    -0.1902
      8  C5         1.4700  -24.2950   24.9650 C.ar  1446  OA21446     0.1457
      9  N13        3.8840  -22.3260   23.7160 N.am  1446  OA21446    -0.2653
     10  C10        4.9510  -21.6090   23.0110 C.3   1446  OA21446     0.1209
     11  C9         5.7770  -20.7960   23.9920 C.ar  1446  OA21446    -0.0023
     12  C11        5.9040  -19.4100   23.8250 C.ar  1446  OA21446    -0.0026
     13  C14        6.6590  -18.6640   24.7270 C.ar  1446  OA21446    -0.0003
     14  C17        7.2910  -19.2950   25.7920 C.ar  1446  OA21446    -0.0000
     15  C15        7.1600  -20.6720   25.9670 C.ar  1446  OA21446    -0.0003
     16  C12        6.3940  -21.4260   25.0660 C.ar  1446  OA21446    -0.0026
     17  C16        2.9350  -21.4250   24.3540 C.3   1446  OA21446     0.1209
     18  C18        2.0070  -20.7970   23.3440 C.ar  1446  OA21446    -0.0023
     19  C19        1.7350  -21.4000   22.1220 C.ar  1446  OA21446    -0.0026
     20  C21        0.8780  -20.7840   21.2200 C.ar  1446  OA21446    -0.0003
     21  C23        0.2840  -19.5650   21.5410 C.ar  1446  OA21446    -0.0000
     22  C22        0.5620  -18.9610   22.7560 C.ar  1446  OA21446    -0.0003
     23  C20        1.4250  -19.5760   23.6570 C.ar  1446  OA21446    -0.0026
@<TRIPOS>BOND
     1    20    21   ar
     2    20    19   ar
     3    21    22   ar
     4    19    18   ar
     5    22    23   ar
     6    10     9    1
     7    10    11    1
     8     1     2    2
     9    18    23   ar
    10    18    17    1
    11     9     2   am
    12     9    17    1
    13     2     3    1
    14    12    11   ar
    15    12    13   ar
    16    11    16   ar
    17     4     3   ar
    18     4     5   ar
    19     3     8   ar
    20     5     6    1
    21     5     7   ar
    22    13    14   ar
    23     8     7   ar
    24    16    15   ar
    25    14    15   ar
