@<TRIPOS>MOLECULE
2w6o_OA3_A_1.pdb
 14 15 0 0 0
SMALL
GASTEIGER

@<TRIPOS>ATOM
      1  O8        19.4530   10.8210    0.5560 O.2   1446  OA31446    -0.2951
      2  C3        18.6550   10.2790   -0.1970 C.2   1446  OA31446     0.1675
      3  C7        17.6110    9.3320    0.3580 C.3   1446  OA31446     0.0659
      4  C11       17.6120    8.0660   -0.4880 C.3   1446  OA31446     0.0122
      5  C38       16.6110    7.0540    0.0590 C.3   1446  OA31446     0.0008
      6  C40       18.9970    7.4230   -0.4020 C.3   1446  OA31446     0.0008
      7  C5        17.2590    8.4090   -1.9390 C.3   1446  OA31446     0.0425
      8  C2        17.9970    9.6140   -2.5140 C.2   1446  OA31446     0.0545
      9  N6        18.0050    9.8290   -3.8530 N.2   1446  OA31446    -0.2264
     10  C12       18.6380   10.8770   -4.4040 C.3   1446  OA31446     0.3912
     11  N9        19.2900   11.7510   -3.6210 N.2   1446  OA31446    -0.0325
     12  C4        19.3140   11.5810   -2.2750 C.2   1446  OA31446     0.4007
     13  C1        18.6670   10.5080   -1.6900 C.3   1446  OA31446     0.2064
     14  N10       19.9680   12.4670   -1.5010 N.pl3 1446  OA31446     0.2115
@<TRIPOS>BOND
     1    10     9    1
     2    10    11    1
     3     9     8    2
     4    11    12    2
     5     8     7    1
     6     8    13    1
     7    12    13    1
     8    12    14    1
     9     7     4    1
    10    13     2    1
    11     4     6    1
    12     4     5    1
    13     4     3    1
    14     2     3    1
    15     2     1    2
