@<TRIPOS>MOLECULE
2w6p_OA4_A_1.pdb
 19 21 0 0 0
SMALL
GASTEIGER

@<TRIPOS>ATOM
      1  C1         3.8980  -24.7580   24.4630 C.2   1447  OA41447     0.1342
      2  C2         3.1600  -23.8480   25.2400 C.3   1447  OA41447     0.1424
      3  C3         1.9130  -24.3210   25.7360 C.2   1447  OA41447     0.2201
      4  N4         1.5130  -25.5850   25.4710 N.2   1447  OA41447    -0.3112
      5  C5         2.2700  -26.4180   24.7280 C.1   1447  OA41447     0.2422
      6  N6         3.4480  -26.0070   24.2230 N.2   1447  OA41447    -0.3295
      7  N7         1.0210  -23.6410   26.4960 N.pl3 1447  OA41447    -0.0962
      8  C8         5.1270  -24.4250   23.9150 C.2   1447  OA41447     0.0293
      9  C9         5.6500  -23.1650   24.1240 C.2   1447  OA41447     0.0017
     10  C12        4.9510  -22.2260   24.8820 C.2   1447  OA41447    -0.0070
     11  C13        3.7080  -22.5530   25.4540 C.2   1447  OA41447    -0.0295
     12  N14        1.8390  -27.6700   24.4780 N.pl3 1447  OA41447    -0.0232
     13  C26        7.6540  -19.7410   25.7260 C.ar  1447  OA41447    -0.0000
     14  C27        7.0590  -18.5320   25.3870 C.ar  1447  OA41447    -0.0000
     15  C10        2.9910  -21.5090   26.2790 C.3   1447  OA41447     0.0272
     16  C22        5.7630  -18.5070   24.8820 C.ar  1447  OA41447    -0.0000
     17  C23        5.0510  -19.6940   24.7070 C.ar  1447  OA41447    -0.0000
     18  CAP        5.6390  -20.9100   25.0510 C.ar  1447  OA41447    -0.0006
     19  C25        6.9440  -20.9270   25.5530 C.ar  1447  OA41447    -0.0000
@<TRIPOS>BOND
     1     8     9    2
     2     8     1    1
     3     9    10    1
     4     6     1    2
     5     6     5    2
     6     1     2    1
     7    12     5    1
     8    17    16   ar
     9    17    18   ar
    10     5     4    2
    11    16    14   ar
    12    10    18    1
    13    10    11    2
    14    18    19   ar
    15     2    11    1
    16     2     3    1
    17    14    13   ar
    18    11    15    1
    19     4     3    2
    20    19    13   ar
    21     3     7    1
