@<TRIPOS>MOLECULE
2w6q_OA5_A_1.pdb
 18 19 0 0 0
SMALL
GASTEIGER

@<TRIPOS>ATOM
      1  N10        1.6830  -27.8110   24.7460 N.pl3 1447  OA51447    -0.0219
      2  C6         2.0550  -26.5100   24.7940 C.1   1447  OA51447     0.2644
      3  N8         1.3460  -25.5970   25.4960 N.2   1447  OA51447    -0.2412
      4  C5         1.7490  -24.3030   25.5290 C.1   1447  OA51447     0.2644
      5  N9         1.0370  -23.4010   26.2330 N.pl3 1447  OA51447    -0.0219
      6  N2         2.8650  -23.9140   24.8670 N.2   1447  OA51447    -0.2262
      7  N3         3.1630  -26.1230   24.1370 N.2   1447  OA51447    -0.2262
      8  C1         3.5710  -24.8350   24.1710 C.1   1447  OA51447     0.3322
      9  O4         4.7050  -24.5170   23.4830 O.2   1447  OA51447    -0.3945
     10  C7         5.3370  -23.2440   23.5890 C.3   1447  OA51447     0.2696
     11  C11        4.7880  -22.3670   22.4740 C.3   1447  OA51447     0.2538
     12  O12        4.4730  -21.0930   23.0240 O.3   1447  OA51447    -0.4714
     13  C13        3.2080  -20.5650   23.0010 C.ar  1447  OA51447     0.1387
     14  C15        2.2510  -21.0210   22.0920 C.ar  1447  OA51447     0.0369
     15  C17        0.9780  -20.4510   22.0850 C.ar  1447  OA51447     0.0031
     16  C18        0.6640  -19.4310   22.9850 C.ar  1447  OA51447     0.0002
     17  C16        1.6240  -18.9750   23.8910 C.ar  1447  OA51447     0.0031
     18  C14        2.8980  -19.5380   23.8980 C.ar  1447  OA51447     0.0369
@<TRIPOS>BOND
     1    15    14   ar
     2    15    16   ar
     3    14    13   ar
     4    11    12    1
     5    11    10    1
     6    16    17   ar
     7    13    12    1
     8    13    18   ar
     9     9    10    1
    10     9     8    1
    11    17    18   ar
    12     7     8    2
    13     7     2    2
    14     8     6    2
    15     1     2    1
    16     2     3    2
    17     6     4    2
    18     3     4    2
    19     4     5    1
