@<TRIPOS>MOLECULE
2w6t_PVE_C_1.pdb
 26 28 0 0 0
SMALL
GASTEIGER

@<TRIPOS>ATOM
      1  O23      -68.5960  -28.7290   21.8780 O.co2   1  PVE1       -0.2456
      2  C22      -68.8940  -27.5430   21.5410 C.2     1  PVE1        0.3654
      3  O24      -69.3540  -26.6760   22.3390 O.co2   1  PVE1       -0.2456
      4  C21      -68.6730  -27.0980   20.1030 C.3     1  PVE1        0.1237
      5  C20      -69.6250  -27.7440   19.0880 C.3     1  PVE1        0.0990
      6  C18      -69.1650  -28.9640   18.9060 C.2     1  PVE1        0.2464
      7  O19      -69.3230  -29.5140   17.8190 O.2     1  PVE1       -0.2730
      8  N17      -68.7520  -29.5340   20.0610 N.am    1  PVE1       -0.1717
      9  C3       -68.4200  -30.9120   20.1930 C.2     1  PVE1        0.1553
     10  C4       -67.0890  -31.3990   20.0850 C.2     1  PVE1        0.0276
     11  C10      -66.8010  -32.7780   20.2230 C.ar    1  PVE1        0.0420
     12  C5       -65.4980  -33.2450   20.1090 C.ar    1  PVE1        0.0488
     13  C6       -65.2130  -34.6230   20.2550 C.ar    1  PVE1        0.2345
     14  O25      -63.9320  -35.1220   20.1610 O.3     1  PVE1       -0.2831
     15  C7       -66.2210  -35.5460   20.5140 C.ar    1  PVE1        0.2377
     16  O26      -65.8050  -36.8550   20.6490 O.3     1  PVE1       -0.2830
     17  C8       -67.5540  -35.0830   20.6240 C.ar    1  PVE1        0.0856
     18  C9       -67.8490  -33.7000   20.4880 C.ar    1  PVE1        0.1424
     19  N1       -69.1240  -33.2010   20.5950 N.pl3   1  PVE1       -0.1657
     20  C14      -70.2320  -34.1280   20.8600 C.3     1  PVE1        0.2335
     21  C15      -70.7320  -34.5880   19.5150 C.2     1  PVE1        0.2542
     22  O16      -70.5740  -33.8410   18.5510 O.2     1  PVE1       -0.2839
     23  C2       -69.4170  -31.8520   20.4460 C.2     1  PVE1        0.3383
     24  N11      -70.6900  -31.3740   20.5520 N.2     1  PVE1       -0.0635
     25  C12      -71.8600  -32.2090   20.7690 C.3     1  PVE1        0.2679
     26  C13      -71.3430  -33.3800   21.5910 C.3     1  PVE1        0.1131
@<TRIPOS>BOND
     1     7     6    2
     2    22    21    2
     3     6     5    1
     4     6     8   am
     5     5     4    1
     6    21    20    1
     7     8     9    1
     8    10     9    2
     9    10    11    1
    10     4     2    1
    11    12    11   ar
    12    12    13   ar
    13    14    13    1
    14     9    23    1
    15    11    18   ar
    16    13    15   ar
    17    23    24    2
    18    23    19    1
    19    18    19    1
    20    18    17   ar
    21    15    17   ar
    22    15    16    1
    23    24    25    1
    24    19    20    1
    25    25    26    1
    26    20    26    1
    27     2     1   ar
    28     2     3   ar
