@<TRIPOS>MOLECULE
2w6u_PVE_C_1.pdb
 26 28 0 0 0
SMALL
GASTEIGER

@<TRIPOS>ATOM
      1  O23      -67.7700  -26.2680   23.9970 O.co2   1  PVE1       -0.2456
      2  C22      -68.2410  -27.3220   23.4840 C.2     1  PVE1        0.3654
      3  O24      -68.5650  -28.2410   24.2770 O.co2   1  PVE1       -0.2456
      4  C21      -68.3140  -27.4620   21.9290 C.3     1  PVE1        0.1237
      5  C20      -69.4840  -28.1010   21.1020 C.3     1  PVE1        0.0990
      6  C18      -68.9190  -29.1780   19.8820 C.2     1  PVE1        0.2464
      7  O19      -69.0850  -29.4150   18.6850 O.2     1  PVE1       -0.2730
      8  N17      -68.4790  -30.0190   20.8280 N.am    1  PVE1       -0.1717
      9  C3       -68.1230  -31.4060   20.8440 C.2     1  PVE1        0.1553
     10  C4       -66.7810  -31.8210   20.9600 C.2     1  PVE1        0.0276
     11  C10      -66.4390  -33.1800   21.0680 C.ar    1  PVE1        0.0420
     12  C5       -65.0950  -33.5880   21.1570 C.ar    1  PVE1        0.0488
     13  C6       -64.7860  -34.9600   21.2520 C.ar    1  PVE1        0.2345
     14  O25      -63.5160  -35.5040   21.3510 O.3     1  PVE1       -0.2831
     15  C7       -65.8120  -35.8680   21.2680 C.ar    1  PVE1        0.2377
     16  O26      -65.4530  -37.1640   21.3590 O.3     1  PVE1       -0.2830
     17  C8       -67.1350  -35.4670   21.1910 C.ar    1  PVE1        0.0856
     18  C9       -67.4830  -34.1190   21.0840 C.ar    1  PVE1        0.1424
     19  N1       -68.7860  -33.7180   20.9640 N.pl3   1  PVE1       -0.1657
     20  C14      -69.8910  -34.7050   20.9570 C.3     1  PVE1        0.2335
     21  C15      -69.9940  -35.4920   19.6520 C.2     1  PVE1        0.2542
     22  OXT      -69.7740  -35.0200   18.5260 O.2     1  PVE1       -0.2839
     23  C2       -69.0950  -32.4100   20.8700 C.2     1  PVE1        0.3383
     24  N11      -70.3840  -32.0300   20.7740 N.2     1  PVE1       -0.0635
     25  C12      -71.4150  -32.9100   20.2640 C.3     1  PVE1        0.2679
     26  C13      -71.2570  -34.0910   21.2050 C.3     1  PVE1        0.1131
@<TRIPOS>BOND
     1    22    21    2
     2     7     6    2
     3    21    20    1
     4     6     8   am
     5     6     5    1
     6    25    24    1
     7    25    26    1
     8    24    23    2
     9     8     9    1
    10     9    23    1
    11     9    10    2
    12    23    19    1
    13    20    19    1
    14    20    26    1
    15    10    11    1
    16    19    18    1
    17    11    18   ar
    18    11    12   ar
    19    18    17   ar
    20     5     4    1
    21    12    13   ar
    22    17    15   ar
    23    13    15   ar
    24    13    14    1
    25    15    16    1
    26     4     2    1
    27     2     1   ar
    28     2     3   ar
