@<TRIPOS>MOLECULE
2w6v_HEM_A_1.pdb
 43 50 0 0 0
SMALL
GASTEIGER

@<TRIPOS>ATOM
      1 FE         18.0290   18.2750   23.5490 Fe    1142  HEM1142     0.0000
      2  CHA       18.4260   18.4600   20.1130 C.2   1142  HEM1142     0.0000
      3  CHB       20.6440   20.5080   23.8980 C.2   1142  HEM1142     0.0000
      4  CHC       18.0810   17.6470   26.9000 C.2   1142  HEM1142     0.0000
      5  CHD       16.3310   15.1500   23.1150 C.2   1142  HEM1142     0.0000
      6  NA        19.3450   19.2880   22.2100 N.2   1142  HEM1142     0.0000
      7  C1A       19.2720   19.2570   20.8520 C.2   1142  HEM1142     0.0000
      8  C2A       20.2940   20.1740   20.3370 C.2   1142  HEM1142     0.0000
      9  C3A       20.9300   20.7620   21.3730 C.2   1142  HEM1142     0.0000
     10  C4A       20.3290   20.2050   22.5950 C.2   1142  HEM1142     0.0000
     11  CMA       22.0670   21.8090   21.2980 C.3   1142  HEM1142     0.0000
     12  CAA       20.5600   20.4130   18.8220 C.3   1142  HEM1142     0.0000
     13  CBA       19.7290   21.6180   18.3860 C.3   1142  HEM1142     0.0000
     14  CGA       20.1320   22.0340   16.9840 C.2   1142  HEM1142     0.0000
     15  O1A       20.3650   21.1700   16.1050 O.co2 1142  HEM1142     0.0000
     16  O2A       20.1970   23.2550   16.7430 O.co2 1142  HEM1142     0.0000
     17  NB        19.2290   18.9320   25.1310 N.ar  1142  HEM1142     0.0000
     18  C1B       20.1960   19.9000   25.0610 C.ar  1142  HEM1142     0.0000
     19  C2B       20.6420   20.1780   26.4290 C.ar  1142  HEM1142     0.0000
     20  C3B       19.9390   19.3770   27.2590 C.ar  1142  HEM1142     0.0000
     21  C4B       19.0110   18.5960   26.4520 C.ar  1142  HEM1142     0.0000
     22  CMB       21.7470   21.2130   26.7690 C.3   1142  HEM1142     0.0000
     23  CAB       19.9790   19.2570   28.8090 C.2   1142  HEM1142     0.0000
     24  CBB       21.0750   19.3860   29.5810 C.2   1142  HEM1142     0.0000
     25  NC        17.2880   16.6670   24.7870 N.2   1142  HEM1142     0.0000
     26  C1C       17.4280   16.6750   26.1660 C.2   1142  HEM1142     0.0000
     27  C2C       16.8050   15.4680   26.6740 C.2   1142  HEM1142     0.0000
     28  C3C       16.3350   14.7500   25.6140 C.2   1142  HEM1142     0.0000
     29  C4C       16.6330   15.5180   24.4080 C.2   1142  HEM1142     0.0000
     30  CMC       16.7410   15.1220   28.1870 C.3   1142  HEM1142     0.0000
     31  CAC       15.5930   13.3850   25.6030 C.2   1142  HEM1142     0.0000
     32  CBC       15.8540   12.4600   26.5260 C.2   1142  HEM1142     0.0000
     33  ND        17.5020   16.9500   21.9020 N.ar  1142  HEM1142     0.0000
     34  C1D       16.7200   15.7860   21.9610 C.ar  1142  HEM1142     0.0000
     35  C2D       16.4150   15.3550   20.6150 C.ar  1142  HEM1142     0.0000
     36  C3D       17.0550   16.4140   19.6980 C.ar  1142  HEM1142     0.0000
     37  C4D       17.7180   17.3540   20.5610 C.ar  1142  HEM1142     0.0000
     38  CMD       15.5880   14.1400   20.1300 C.3   1142  HEM1142     0.0000
     39  CAD       17.0400   16.4160   18.1610 C.3   1142  HEM1142     0.0000
     40  CBD       18.2220   15.5500   17.7330 C.3   1142  HEM1142     0.0000
     41  CGD       18.3400   15.4650   16.2250 C.2   1142  HEM1142     0.0000
     42  O1D       19.3890   15.8740   15.6520 O.co2 1142  HEM1142     0.0000
     43  O2D       17.3940   14.9540   15.5980 O.co2 1142  HEM1142     0.0000
@<TRIPOS>BOND
     1    43    41   ar
     2    42    41   ar
     3    15    14   ar
     4    41    40    1
     5    16    14   ar
     6    14    13    1
     7    40    39    1
     8    39    36    1
     9    13    12    1
    10    12     8    1
    11    36    37   ar
    12    36    35   ar
    13     2    37    2
    14     2     7    1
    15    38    35    1
    16     8     7    1
    17     8     9    2
    18    37    33   ar
    19    35    34   ar
    20     7     6    2
    21    11     9    1
    22     9    10    1
    23    33    34   ar
    24    33     1    1
    25    34     5    2
    26     6    10    1
    27     6     1    1
    28    10     3    2
    29     5    29    1
    30     1    25    1
    31     1    17    1
    32     3    18    1
    33    29    25    2
    34    29    28    1
    35    25    26    1
    36    18    17   ar
    37    18    19   ar
    38    17    21   ar
    39    31    28    1
    40    31    32    2
    41    28    27    2
    42    26    27    1
    43    26     4    2
    44    19    22    1
    45    19    20   ar
    46    21     4    1
    47    21    20   ar
    48    27    30    1
    49    20    23    1
    50    23    24    2
