@<TRIPOS>MOLECULE
2w6w_HEM_A_1.pdb
 43 50 0 0 0
SMALL
GASTEIGER

@<TRIPOS>ATOM
      1 FE         35.0500    3.7720   10.1900 Fe    1154  HEM1154     0.0000
      2  CHA       37.7020    1.9210   11.2930 C.2   1154  HEM1154     0.0000
      3  CHB       37.0550    5.0610    7.6610 C.2   1154  HEM1154     0.0000
      4  CHC       32.5020    5.8860    9.1560 C.2   1154  HEM1154     0.0000
      5  CHD       33.0900    2.7100   12.7680 C.2   1154  HEM1154     0.0000
      6  NA        37.0330    3.5630    9.6040 N.ar  1154  HEM1154     0.0000
      7  C1A       37.9310    2.6790   10.1650 C.ar  1154  HEM1154     0.0000
      8  C2A       39.1450    2.6980    9.3650 C.ar  1154  HEM1154     0.0000
      9  C3A       38.9610    3.5680    8.3600 C.ar  1154  HEM1154     0.0000
     10  C4A       37.6310    4.1260    8.4930 C.ar  1154  HEM1154     0.0000
     11  CMA       39.9730    3.9320    7.2460 C.3   1154  HEM1154     0.0000
     12  CAA       40.4150    1.8500    9.6370 C.3   1154  HEM1154     0.0000
     13  CBA       40.4780    0.6290    8.7120 C.3   1154  HEM1154     0.0000
     14  CGA       39.1800   -0.1460    8.6950 C.2   1154  HEM1154     0.0000
     15  O1A       38.4770   -0.1200    7.6480 O.co2 1154  HEM1154     0.0000
     16  O2A       38.8460   -0.7940    9.7230 O.co2 1154  HEM1154     0.0000
     17  NB        34.8330    5.2360    8.7120 N.2   1154  HEM1154     0.0000
     18  C1B       35.7600    5.5330    7.7310 C.2   1154  HEM1154     0.0000
     19  C2B       35.1400    6.4330    6.7810 C.2   1154  HEM1154     0.0000
     20  C3B       33.8860    6.6640    7.1910 C.2   1154  HEM1154     0.0000
     21  C4B       33.6660    5.9160    8.4140 C.2   1154  HEM1154     0.0000
     22  CMB       35.8370    7.0090    5.5240 C.3   1154  HEM1154     0.0000
     23  CAB       32.8450    7.5660    6.4920 C.2   1154  HEM1154     0.0000
     24  CBB       33.0360    8.8900    6.4510 C.2   1154  HEM1154     0.0000
     25  NC        33.1140    4.1830   10.8100 N.ar  1154  HEM1154     0.0000
     26  C1C       32.2840    5.1720   10.3180 C.ar  1154  HEM1154     0.0000
     27  C2C       31.1620    5.3180   11.2310 C.ar  1154  HEM1154     0.0000
     28  C3C       31.3280    4.4370   12.2360 C.ar  1154  HEM1154     0.0000
     29  C4C       32.5580    3.7090   11.9810 C.ar  1154  HEM1154     0.0000
     30  CMC       30.0020    6.3280   11.0450 C.3   1154  HEM1154     0.0000
     31  CAC       30.4220    4.1800   13.4720 C.2   1154  HEM1154     0.0000
     32  CBC       29.2910    4.8490   13.7330 C.2   1154  HEM1154     0.0000
     33  ND        35.3390    2.4850   11.7680 N.2   1154  HEM1154     0.0000
     34  C1D       34.3920    2.2570   12.7650 C.2   1154  HEM1154     0.0000
     35  C2D       34.9970    1.4580   13.8080 C.2   1154  HEM1154     0.0000
     36  C3D       36.4360    1.2160   13.3450 C.2   1154  HEM1154     0.0000
     37  C4D       36.5610    1.8910   12.0710 C.2   1154  HEM1154     0.0000
     38  CMD       34.3360    0.9570   15.1130 C.3   1154  HEM1154     0.0000
     39  CAD       37.5260    0.4290   14.1010 C.3   1154  HEM1154     0.0000
     40  CBD       38.1360    1.3820   15.1240 C.3   1154  HEM1154     0.0000
     41  CGD       39.1750    0.6470   15.9250 C.2   1154  HEM1154     0.0000
     42  O1D       40.3750    0.7250   15.5590 O.co2 1154  HEM1154     0.0000
     43  O2D       38.7980   -0.0190   16.9230 O.co2 1154  HEM1154     0.0000
@<TRIPOS>BOND
     1    22    19    1
     2    24    23    2
     3    23    20    1
     4    19    20    2
     5    19    18    1
     6    20    21    1
     7    11     9    1
     8    15    14   ar
     9     3    18    1
    10     3    10    2
    11    18    17    2
    12     9    10   ar
    13     9     8   ar
    14    21    17    1
    15    21     4    2
    16    10     6   ar
    17    14    13    1
    18    14    16   ar
    19    13    12    1
    20    17     1    1
    21     4    26    1
    22     8    12    1
    23     8     7   ar
    24     6     7   ar
    25     6     1    1
    26     7     2    2
    27     1    25    1
    28     1    33    1
    29    26    25   ar
    30    26    27   ar
    31    25    29   ar
    32    30    27    1
    33    27    28   ar
    34     2    37    1
    35    33    37    2
    36    33    34    1
    37    29    28   ar
    38    29     5    1
    39    37    36    1
    40    28    31    1
    41    34     5    2
    42    34    35    1
    43    36    35    2
    44    36    39    1
    45    31    32    2
    46    35    38    1
    47    39    40    1
    48    40    41    1
    49    42    41   ar
    50    41    43   ar
