@<TRIPOS>MOLECULE
2w6x_HEM_A_1.pdb
 43 50 0 0 0
SMALL
GASTEIGER

@<TRIPOS>ATOM
      1 FE         35.2170    3.9020   10.0120 Fe    1154  HEM1154     0.0000
      2  CHA       37.8790    2.1270   11.2350 C.2   1154  HEM1154     0.0000
      3  CHB       37.2240    5.0180    7.3980 C.2   1154  HEM1154     0.0000
      4  CHC       32.6760    5.8770    8.8790 C.2   1154  HEM1154     0.0000
      5  CHD       33.2930    2.9630   12.6900 C.2   1154  HEM1154     0.0000
      6  NA        37.1860    3.6630    9.4300 N.ar  1154  HEM1154     0.0000
      7  C1A       38.0810    2.8220   10.0600 C.ar  1154  HEM1154     0.0000
      8  C2A       39.3130    2.8230    9.2960 C.ar  1154  HEM1154     0.0000
      9  C3A       39.1470    3.6300    8.2340 C.ar  1154  HEM1154     0.0000
     10  C4A       37.8110    4.1610    8.3020 C.ar  1154  HEM1154     0.0000
     11  CMA       40.1790    3.9340    7.1170 C.3   1154  HEM1154     0.0000
     12  CAA       40.5580    1.9830    9.6610 C.3   1154  HEM1154     0.0000
     13  CBA       40.6450    0.7970    8.6650 C.3   1154  HEM1154     0.0000
     14  CGA       39.3880   -0.0540    8.6540 C.2   1154  HEM1154     0.0000
     15  O1A       39.0670   -0.6730    9.7110 O.co2 1154  HEM1154     0.0000
     16  O2A       38.7170   -0.1340    7.5800 O.co2 1154  HEM1154     0.0000
     17  NB        34.9990    5.2040    8.4440 N.2   1154  HEM1154     0.0000
     18  C1B       35.9290    5.4750    7.4580 C.2   1154  HEM1154     0.0000
     19  C2B       35.3170    6.3560    6.4850 C.2   1154  HEM1154     0.0000
     20  C3B       34.0640    6.6090    6.8970 C.2   1154  HEM1154     0.0000
     21  C4B       33.8400    5.8850    8.1400 C.2   1154  HEM1154     0.0000
     22  CMB       36.0520    6.8660    5.2200 C.3   1154  HEM1154     0.0000
     23  CAB       32.9980    7.4940    6.2070 C.2   1154  HEM1154     0.0000
     24  CBB       33.3690    8.4400    5.3310 C.2   1154  HEM1154     0.0000
     25  NC        33.3100    4.3010   10.6440 N.ar  1154  HEM1154     0.0000
     26  C1C       32.4520    5.2310   10.0800 C.ar  1154  HEM1154     0.0000
     27  C2C       31.3120    5.3980   10.9700 C.ar  1154  HEM1154     0.0000
     28  C3C       31.4960    4.5980   12.0330 C.ar  1154  HEM1154     0.0000
     29  C4C       32.7540    3.8960   11.8340 C.ar  1154  HEM1154     0.0000
     30  CMC       30.1330    6.3590   10.7140 C.3   1154  HEM1154     0.0000
     31  CAC       30.6060    4.3880   13.2840 C.2   1154  HEM1154     0.0000
     32  CBC       29.5400    5.1580   13.5410 C.2   1154  HEM1154     0.0000
     33  ND        35.5280    2.7200   11.6790 N.2   1154  HEM1154     0.0000
     34  C1D       34.5930    2.5150   12.6840 C.2   1154  HEM1154     0.0000
     35  C2D       35.1870    1.7190   13.7310 C.2   1154  HEM1154     0.0000
     36  C3D       36.6140    1.4670   13.2930 C.2   1154  HEM1154     0.0000
     37  C4D       36.7440    2.1210   12.0080 C.2   1154  HEM1154     0.0000
     38  CMD       34.5190    1.2450   15.0380 C.3   1154  HEM1154     0.0000
     39  CAD       37.6920    0.7190   14.0960 C.3   1154  HEM1154     0.0000
     40  CBD       38.2860    1.8770   14.9130 C.3   1154  HEM1154     0.0000
     41  CGD       39.4400    1.5000   15.7990 C.2   1154  HEM1154     0.0000
     42  O1D       39.3650    1.8120   17.0170 O.co2 1154  HEM1154     0.0000
     43  O2D       40.4230    0.9090   15.2940 O.co2 1154  HEM1154     0.0000
@<TRIPOS>BOND
     1    22    19    1
     2    24    23    2
     3    23    20    1
     4    19    20    2
     5    19    18    1
     6    20    21    1
     7    11     9    1
     8     3    18    1
     9     3    10    2
    10    18    17    2
    11    16    14   ar
    12    21    17    1
    13    21     4    2
    14     9    10   ar
    15     9     8   ar
    16    10     6   ar
    17    17     1    1
    18    14    13    1
    19    14    15   ar
    20    13    12    1
    21     4    26    1
    22     8    12    1
    23     8     7   ar
    24     6     1    1
    25     6     7   ar
    26     1    25    1
    27     1    33    1
    28     7     2    2
    29    26    25   ar
    30    26    27   ar
    31    25    29   ar
    32    30    27    1
    33    27    28   ar
    34     2    37    1
    35    33    37    2
    36    33    34    1
    37    29    28   ar
    38    29     5    1
    39    37    36    1
    40    28    31    1
    41    34     5    2
    42    34    35    1
    43    31    32    2
    44    36    35    2
    45    36    39    1
    46    35    38    1
    47    39    40    1
    48    40    41    1
    49    43    41   ar
    50    41    42   ar
