@<TRIPOS>MOLECULE
2w6y_HEM_A_1.pdb
 43 50 0 0 0
SMALL
GASTEIGER

@<TRIPOS>ATOM
      1 FE         34.9300    3.9390   10.2000 Fe    1154  HEM1154     0.0000
      2  CHA       37.6230    2.1650   11.3690 C.2   1154  HEM1154     0.0000
      3  CHB       36.8930    5.1600    7.6530 C.2   1154  HEM1154     0.0000
      4  CHC       32.3330    5.9470    9.1420 C.2   1154  HEM1154     0.0000
      5  CHD       33.0070    2.8640   12.8480 C.2   1154  HEM1154     0.0000
      6  NA        36.8840    3.7300    9.6330 N.ar  1154  HEM1154     0.0000
      7  C1A       37.8150    2.8980   10.2260 C.ar  1154  HEM1154     0.0000
      8  C2A       39.0460    2.9530    9.4450 C.ar  1154  HEM1154     0.0000
      9  C3A       38.8410    3.7910    8.4190 C.ar  1154  HEM1154     0.0000
     10  C4A       37.4900    4.2880    8.5290 C.ar  1154  HEM1154     0.0000
     11  CMA       39.8290    4.1840    7.2970 C.3   1154  HEM1154     0.0000
     12  CAA       40.3140    2.1250    9.7510 C.3   1154  HEM1154     0.0000
     13  CBA       40.3690    0.9490    8.7400 C.3   1154  HEM1154     0.0000
     14  CGA       39.1210    0.0850    8.7220 C.2   1154  HEM1154     0.0000
     15  O1A       38.8600   -0.6380    9.7280 O.co2 1154  HEM1154     0.0000
     16  O2A       38.4150    0.0590    7.6780 O.co2 1154  HEM1154     0.0000
     17  NB        34.6660    5.2860    8.6990 N.2   1154  HEM1154     0.0000
     18  C1B       35.5860    5.5920    7.7130 C.2   1154  HEM1154     0.0000
     19  C2B       34.9750    6.5170    6.7860 C.2   1154  HEM1154     0.0000
     20  C3B       33.7200    6.7400    7.2110 C.2   1154  HEM1154     0.0000
     21  C4B       33.5000    5.9750    8.4220 C.2   1154  HEM1154     0.0000
     22  CMB       35.6490    7.0890    5.5180 C.3   1154  HEM1154     0.0000
     23  CAB       32.6650    7.6320    6.5560 C.2   1154  HEM1154     0.0000
     24  CBB       33.0120    8.8370    6.0920 C.2   1154  HEM1154     0.0000
     25  NC        33.0130    4.2770   10.8390 N.ar  1154  HEM1154     0.0000
     26  C1C       32.1510    5.2320   10.3220 C.ar  1154  HEM1154     0.0000
     27  C2C       31.0220    5.3570   11.2280 C.ar  1154  HEM1154     0.0000
     28  C3C       31.2230    4.5260   12.2650 C.ar  1154  HEM1154     0.0000
     29  C4C       32.4580    3.8180   12.0210 C.ar  1154  HEM1154     0.0000
     30  CMC       29.8480    6.3230   10.9910 C.3   1154  HEM1154     0.0000
     31  CAC       30.3610    4.2440   13.5180 C.2   1154  HEM1154     0.0000
     32  CBC       29.2610    4.9370   13.8600 C.2   1154  HEM1154     0.0000
     33  ND        35.2440    2.7000   11.7830 N.2   1154  HEM1154     0.0000
     34  C1D       34.3180    2.4600   12.8010 C.2   1154  HEM1154     0.0000
     35  C2D       34.9460    1.6740   13.8410 C.2   1154  HEM1154     0.0000
     36  C3D       36.3660    1.4670   13.4000 C.2   1154  HEM1154     0.0000
     37  C4D       36.4750    2.1310   12.1210 C.2   1154  HEM1154     0.0000
     38  CMD       34.2970    1.1780   15.1420 C.3   1154  HEM1154     0.0000
     39  CAD       37.4670    0.7580   14.2020 C.3   1154  HEM1154     0.0000
     40  CBD       38.0510    1.9510   14.9900 C.3   1154  HEM1154     0.0000
     41  CGD       39.2510    1.6450   15.8480 C.2   1154  HEM1154     0.0000
     42  O1D       39.1310    1.7600   17.0950 O.co2 1154  HEM1154     0.0000
     43  O2D       40.3420    1.3430   15.3050 O.co2 1154  HEM1154     0.0000
@<TRIPOS>BOND
     1    22    19    1
     2    24    23    2
     3    23    20    1
     4    19    20    2
     5    19    18    1
     6    20    21    1
     7    11     9    1
     8     3    18    1
     9     3    10    2
    10    16    14   ar
    11    18    17    2
    12     9    10   ar
    13     9     8   ar
    14    21    17    1
    15    21     4    2
    16    10     6   ar
    17    17     1    1
    18    14    13    1
    19    14    15   ar
    20    13    12    1
    21     4    26    1
    22     8    12    1
    23     8     7   ar
    24     6     1    1
    25     6     7   ar
    26     1    25    1
    27     1    33    1
    28     7     2    2
    29    26    25   ar
    30    26    27   ar
    31    25    29   ar
    32    30    27    1
    33    27    28   ar
    34     2    37    1
    35    33    37    2
    36    33    34    1
    37    29    28   ar
    38    29     5    1
    39    37    36    1
    40    28    31    1
    41    34     5    2
    42    34    35    1
    43    36    35    2
    44    36    39    1
    45    31    32    2
    46    35    38    1
    47    39    40    1
    48    40    41    1
    49    43    41   ar
    50    41    42   ar
