@<TRIPOS>MOLECULE
2w6z_L21_A_1.pdb
 15 16 0 0 0
SMALL
GASTEIGER

@<TRIPOS>ATOM
      1  C14        1.3260  -20.4300   21.5610 C.3   1447  L211447     0.0262
      2  C13        1.6000  -20.6690   23.0180 C.2   1447  L211447    -0.0439
      3  C15        2.2600  -21.7840   23.3840 C.2   1447  L211447     0.0158
      4  C12        1.1190  -19.6250   23.9820 C.3   1447  L211447     0.0262
      5  N10        2.1580  -27.7970   24.6540 N.pl3 1447  L211447     0.2180
      6  C6         2.2830  -26.4590   24.6930 C.2   1447  L211447     0.4391
      7  C5         3.4650  -25.8200   24.0800 C.2   1447  L211447     0.2527
      8  N9         4.5840  -26.1890   23.4250 N.2   1447  L211447    -0.2043
      9  C4         3.5080  -24.3710   24.1810 C.2   1447  L211447     0.3495
     10  N7         4.6360  -23.9560   23.5860 N.2   1447  L211447    -0.0346
     11  C8         5.2850  -25.0630   23.1320 C.3   1447  L211447     0.3923
     12  C80        2.6240  -22.2020   24.8070 C.3   1447  L211447     0.2327
     13  N3         2.5440  -23.6630   24.7890 N.pl3 1447  L211447    -0.1388
     14  N1         1.3510  -25.6530   25.2790 N.2   1447  L211447    -0.0033
     15  C2         1.4800  -24.3070   25.3160 C.3   1447  L211447     0.4724
@<TRIPOS>BOND
     1     1     2    1
     2     2     3    2
     3     2     4    1
     4    11     8    1
     5    11    10    1
     6     3    12    1
     7     8     7    2
     8    10     9    2
     9     7     9    1
    10     7     6    1
    11     9    13    1
    12     5     6    1
    13     6    14    2
    14    13    12    1
    15    13    15    1
    16    14    15    1
