@<TRIPOS>MOLECULE
2w70_L22_A_1.pdb
 13 14 0 0 0
SMALL
GASTEIGER

@<TRIPOS>ATOM
      1  N13        7.5150  -24.1010   22.3320 N.pl3 1447  L221447    -0.0867
      2  C10        6.4080  -23.6750   22.9710 C.2   1447  L221447     0.2461
      3  S9         6.1040  -22.0040   23.3080 S.3   1447  L221447    -0.0563
      4  C5         4.6020  -22.4080   24.0680 C.3   1447  L221447     0.1275
      5  N6         5.4190  -24.4860   23.4140 N.2   1447  L221447    -0.3786
      6  C2         4.4160  -23.7860   24.0220 C.2   1447  L221447     0.1529
      7  C1         3.2260  -24.4730   24.5920 C.2   1447  L221447     0.1719
      8  C4         2.2480  -23.7720   25.2960 C.2   1447  L221447     0.0569
      9  C8         1.1660  -24.4710   25.8040 C.2   1447  L221447     0.1145
     10  N11        1.0850  -25.7920   25.6290 N.2   1447  L221447    -0.1673
     11  C7         2.0430  -26.4630   24.9500 C.1   1447  L221447     0.1865
     12  N3         3.1080  -25.8080   24.4320 N.2   1447  L221447    -0.3329
     13  N12        1.9390  -27.7920   24.7890 N.pl3 1447  L221447    -0.0345
@<TRIPOS>BOND
     1     1     2    1
     2     2     3    1
     3     2     5    2
     4     3     4    1
     5     5     6    2
     6     6     4    1
     7     6     7    1
     8    12     7    2
     9    12    11    2
    10     7     8    1
    11    13    11    1
    12    11    10    2
    13     8     9    2
    14    10     9    1
