@<TRIPOS>MOLECULE
2w71_L23_A_1.pdb
 22 24 0 0 0
SMALL
GASTEIGER

@<TRIPOS>ATOM
      1 CL21       32.3510   22.2820   24.0110 Cl    1448  L231448    -0.0825
      2  C17       33.3720   20.8150   23.9210 C.ar  1448  L231448     0.0561
      3  C20       33.3080   19.8790   24.9520 C.ar  1448  L231448     0.0112
      4  C22       34.0980   18.7300   24.8940 C.ar  1448  L231448     0.0017
      5  C18       34.9500   18.5250   23.8160 C.ar  1448  L231448     0.0112
      6  C16       35.0100   19.4710   22.7940 C.ar  1448  L231448     0.0561
      7 CL19       36.1160   19.2150   21.4080 Cl    1448  L231448    -0.0825
      8  C15       34.2260   20.6150   22.8440 C.ar  1448  L231448     0.0188
      9  C11       34.3050   21.6170   21.7110 C.3   1448  L231448     0.1216
     10  N7        34.9560   22.8750   22.0840 N.pl3 1448  L231448    -0.2763
     11  C3        36.1100   22.9850   22.7540 C.3   1448  L231448     0.1552
     12  C8        34.5060   24.1100   21.7910 C.2   1448  L231448     0.1607
     13  C12       33.2530   24.4870   21.0440 C.3   1448  L231448     0.0836
     14  N4        35.3750   25.0060   22.2880 N.2   1448  L231448    -0.3914
     15  C1        36.3750   24.3380   22.8860 C.2   1448  L231448     0.1605
     16  C2        37.5340   24.9860   23.5620 C.2   1448  L231448     0.1727
     17  C6        38.4640   24.2410   24.2900 C.2   1448  L231448     0.0569
     18  C10       39.5160   24.9170   24.9060 C.2   1448  L231448     0.1145
     19  N13       39.6160   26.2500   24.7860 N.2   1448  L231448    -0.1673
     20  C9        38.7000   26.9630   24.0780 C.1   1448  L231448     0.1865
     21  N5        37.6670   26.3310   23.4700 N.2   1448  L231448    -0.3328
     22  N14       38.8070   28.3090   23.9700 N.pl3 1448  L231448    -0.0345
@<TRIPOS>BOND
     1    13    12    1
     2     7     6    1
     3     9    10    1
     4     9     8    1
     5    12    10    1
     6    12    14    2
     7    10    11    1
     8    14    15    2
     9    11    15    1
    10     6     8   ar
    11     6     5   ar
    12     8     2   ar
    13    15    16    1
    14    21    16    2
    15    21    20    2
    16    16    17    1
    17     5     4   ar
    18     2     1    1
    19     2     3   ar
    20    22    20    1
    21    20    19    2
    22    17    18    2
    23    19    18    1
    24     4     3   ar
