@<TRIPOS>MOLECULE
2w72_HEM_A_1.pdb
 43 50 0 0 0
SMALL
GASTEIGER

@<TRIPOS>ATOM
      1  CHA        8.0990   10.9820   31.1420 C.2   1142  HEM1142     0.0000
      2  CHB        6.8070   13.0790   27.0070 C.2   1142  HEM1142     0.0000
      3  CHC        7.8360    9.0270   24.5740 C.2   1142  HEM1142     0.0000
      4  CHD        9.0520    6.8940   28.7160 C.2   1142  HEM1142     0.0000
      5  NA         7.6140   11.7490   28.8780 N.ar  1142  HEM1142     0.0000
      6  C1A        7.6160   11.9070   30.2440 C.ar  1142  HEM1142     0.0000
      7  C2A        6.9720   13.1790   30.5750 C.ar  1142  HEM1142     0.0000
      8  C3A        6.5840   13.7440   29.4200 C.ar  1142  HEM1142     0.0000
      9  C4A        7.0030   12.8600   28.3410 C.ar  1142  HEM1142     0.0000
     10  CMA        5.8410   15.0580   29.1730 C.3   1142  HEM1142     0.0000
     11  CAA        6.7790   13.6870   31.9860 C.3   1142  HEM1142     0.0000
     12  CBA        7.9960   14.4940   32.4160 C.3   1142  HEM1142     0.0000
     13  CGA        7.8370   15.1100   33.8010 C.2   1142  HEM1142     0.0000
     14  O1A        7.0640   14.5830   34.6500 O.co2 1142  HEM1142     0.0000
     15  O2A        8.5210   16.1370   34.0440 O.co2 1142  HEM1142     0.0000
     16  NB         7.4890   10.9170   26.0940 N.2   1142  HEM1142     0.0000
     17  C1B        6.9960   12.1900   25.9570 C.2   1142  HEM1142     0.0000
     18  C2B        6.6090   12.4190   24.5880 C.2   1142  HEM1142     0.0000
     19  C3B        6.8750   11.2780   23.9240 C.2   1142  HEM1142     0.0000
     20  C4B        7.4250   10.3330   24.8640 C.2   1142  HEM1142     0.0000
     21  CMB        6.0160   13.6990   23.9880 C.3   1142  HEM1142     0.0000
     22  CAB        6.6760   10.9640   22.4800 C.2   1142  HEM1142     0.0000
     23  CBB        5.6080   11.4190   21.7540 C.2   1142  HEM1142     0.0000
     24  NC         8.4300    8.3000   26.8330 N.ar  1142  HEM1142     0.0000
     25  C1C        8.2450    8.0730   25.4940 C.ar  1142  HEM1142     0.0000
     26  C2C        8.4710    6.6750   25.2010 C.ar  1142  HEM1142     0.0000
     27  C3C        8.7620    6.0590   26.3640 C.ar  1142  HEM1142     0.0000
     28  C4C        8.7750    7.0930   27.3980 C.ar  1142  HEM1142     0.0000
     29  CMC        8.4460    6.1200   23.8130 C.3   1142  HEM1142     0.0000
     30  CAC        9.0790    4.6150   26.6740 C.2   1142  HEM1142     0.0000
     31  CBC        8.5790    3.6060   25.9580 C.2   1142  HEM1142     0.0000
     32  ND         8.5670    9.1400   29.5970 N.2   1142  HEM1142     0.0000
     33  C1D        8.9880    7.8300   29.7540 C.2   1142  HEM1142     0.0000
     34  C2D        9.2420    7.5450   31.1110 C.2   1142  HEM1142     0.0000
     35  C3D        8.9430    8.7350   31.8530 C.2   1142  HEM1142     0.0000
     36  C4D        8.5030    9.6940   30.8680 C.2   1142  HEM1142     0.0000
     37  CMD        9.7560    6.2510   31.7360 C.3   1142  HEM1142     0.0000
     38  CAD        8.9890    8.9160   33.3300 C.3   1142  HEM1142     0.0000
     39  CBD        7.6340    8.5240   33.9250 C.3   1142  HEM1142     0.0000
     40  CGD        7.6130    8.6600   35.4360 C.2   1142  HEM1142     0.0000
     41  O1D        8.6320    8.4340   36.1050 O.co2 1142  HEM1142     0.0000
     42  O2D        6.5880    9.0230   35.9680 O.co2 1142  HEM1142     0.0000
     43 FE          8.3840   10.1410   27.7960 Fe    1142  HEM1142     0.0000
@<TRIPOS>BOND
     1    23    22    2
     2    22    19    1
     3    29    26    1
     4    19    18    2
     5    19    20    1
     6    21    18    1
     7     3    20    2
     8     3    25    1
     9    18    17    1
    10    20    16    1
    11    26    25   ar
    12    26    27   ar
    13    25    24   ar
    14    17    16    2
    15    17     2    1
    16    31    30    2
    17    16    43    1
    18    27    30    1
    19    27    28   ar
    20    24    28   ar
    21    24    43    1
    22     2     9    2
    23    28     4    1
    24    43     5    1
    25    43    32    1
    26     9     5   ar
    27     9     8   ar
    28     4    33    2
    29     5     6   ar
    30    10     8    1
    31     8     7   ar
    32    32    33    1
    33    32    36    2
    34    33    34    1
    35     6     7   ar
    36     6     1    2
    37     7    11    1
    38    36     1    1
    39    36    35    1
    40    34    37    1
    41    34    35    2
    42    35    38    1
    43    11    12    1
    44    12    13    1
    45    38    39    1
    46    13    15   ar
    47    13    14   ar
    48    39    40    1
    49    40    42   ar
    50    40    41   ar
