@<TRIPOS>MOLECULE
2w74_ATP_B_1.pdb
 31 33 0 0 0
SMALL
GASTEIGER

@<TRIPOS>ATOM
      1  PG        17.5940    6.3370   12.0540 P.3   1887  ATP1887     0.5373
      2  O1G       18.9020    5.9900   12.7200 O.3   1887  ATP1887    -0.1143
      3  O2G       17.7570    7.1930   10.8280 O.2   1887  ATP1887    -0.2221
      4  O3G       16.4570    6.7310   12.9950 O.3   1887  ATP1887    -0.1143
      5  PB        17.5750    3.8930   10.3920 P.3   1887  ATP1887     0.2277
      6  O1B       17.5000    4.5740    9.0630 O.2   1887  ATP1887    -0.5168
      7  O2B       18.8340    3.3920   11.0390 O.3   1887  ATP1887    -0.4368
      8  O3B       16.9440    5.0040   11.3910 O.3   1887  ATP1887    -0.2258
      9  PA        16.5200    1.5030   11.4890 P.3   1887  ATP1887     0.2189
     10  O1A       17.6490    0.5910   11.0990 O.2   1887  ATP1887    -0.5170
     11  O2A       16.4770    2.1390   12.8400 O.3   1887  ATP1887    -0.4371
     12  O3A       16.4870    2.6840   10.3770 O.3   1887  ATP1887    -0.2700
     13  O5'       15.1540    0.7180   11.3440 O.3   1887  ATP1887    -0.3112
     14  C5'       13.9100    1.4110   11.4910 C.3   1887  ATP1887     0.1813
     15  C4'       12.9080    0.2970   11.7510 C.3   1887  ATP1887     0.1821
     16  O4'       12.6380   -0.2420   10.4880 O.3   1887  ATP1887    -0.3135
     17  C3'       13.4620   -0.8610   12.5770 C.3   1887  ATP1887     0.2184
     18  O3'       12.5860   -1.2000   13.6710 O.3   1887  ATP1887    -0.2174
     19  C2'       13.6220   -1.9520   11.5570 C.3   1887  ATP1887     0.2570
     20  O2'       13.4840   -3.2700   12.0750 O.3   1887  ATP1887    -0.2130
     21  C1'       12.5490   -1.6350   10.5610 C.3   1887  ATP1887     0.3186
     22  N9        13.0270   -2.0960    9.2690 N.pl3 1887  ATP1887    -0.1439
     23  C8        13.9730   -1.4840    8.5510 C.3   1887  ATP1887     0.3377
     24  N7        14.2250   -2.1730    7.4460 N.2   1887  ATP1887    -0.2095
     25  C5        13.4470   -3.2670    7.4540 C.2   1887  ATP1887     0.2526
     26  C6        13.2190   -4.4290    6.5580 C.2   1887  ATP1887     0.4393
     27  N6        13.9110   -4.5570    5.4000 N.pl3 1887  ATP1887     0.2180
     28  N1        12.2870   -5.3320    6.9390 N.2   1887  ATP1887     0.0021
     29  C2        11.6180   -5.1860    8.0860 C.3   1887  ATP1887     0.5254
     30  N3        11.7860   -4.1720    8.9440 N.2   1887  ATP1887    -0.0055
     31  C4        12.6540   -3.2030    8.6710 C.2   1887  ATP1887     0.3518
@<TRIPOS>BOND
     1    27    26    1
     2    26    28    2
     3    26    25    1
     4    28    29    1
     5    24    25    2
     6    24    23    1
     7    25    31    1
     8    29    30    1
     9    23    22    1
    10    31    30    2
    11    31    22    1
    12     6     5    2
    13    22    21    1
    14    12     5    1
    15    12     9    1
    16     5     7    1
    17     5     8    1
    18    16    21    1
    19    16    15    1
    20    21    19    1
    21     3     1    2
    22    10     9    2
    23    13     9    1
    24    13    14    1
    25     8     1    1
    26     9    11    1
    27    14    15    1
    28    19    20    1
    29    19    17    1
    30    15    17    1
    31     1     2    1
    32     1     4    1
    33    17    18    1
