@<TRIPOS>MOLECULE
2w76_PVE_C_1.pdb
 26 28 0 0 0
SMALL
GASTEIGER

@<TRIPOS>ATOM
      1  O23      -68.3220  -28.7790   22.2770 O.co2   1  PVE1       -0.2456
      2  C22      -68.5570  -27.5790   21.9440 C.2     1  PVE1        0.3654
      3  O24      -68.7430  -26.6200   22.7510 O.co2   1  PVE1       -0.2456
      4  C21      -68.5900  -27.2310   20.4680 C.3     1  PVE1        0.1237
      5  C20      -69.4560  -28.1470   19.5880 C.3     1  PVE1        0.0990
      6  C18      -68.6680  -29.2860   19.3670 C.2     1  PVE1        0.2464
      7  O19      -68.4130  -29.6880   18.2360 O.2     1  PVE1       -0.2730
      8  N17      -68.5350  -30.0050   20.4790 N.am    1  PVE1       -0.1717
      9  C3       -68.1080  -31.3720   20.5840 C.2     1  PVE1        0.1553
     10  C4       -66.7480  -31.7570   20.5260 C.2     1  PVE1        0.0276
     11  C10      -66.3820  -33.1090   20.6790 C.ar    1  PVE1        0.0420
     12  C5       -65.0400  -33.5320   20.6400 C.ar    1  PVE1        0.0488
     13  C6       -64.6910  -34.8970   20.7960 C.ar    1  PVE1        0.2345
     14  O25      -63.4050  -35.3500   20.7480 O.3     1  PVE1       -0.2831
     15  C7       -65.6740  -35.8490   21.0090 C.ar    1  PVE1        0.2377
     16  O26      -65.2850  -37.1620   21.1690 O.3     1  PVE1       -0.2830
     17  C8       -67.0120  -35.4340   21.0560 C.ar    1  PVE1        0.0856
     18  C9       -67.3760  -34.0760   20.9010 C.ar    1  PVE1        0.1424
     19  N1       -68.6830  -33.6970   20.9710 N.pl3   1  PVE1       -0.1657
     20  C14      -69.6940  -34.7460   21.1640 C.3     1  PVE1        0.2335
     21  C15      -70.0350  -35.3310   19.7850 C.2     1  PVE1        0.2542
     22  O16      -69.7800  -34.6350   18.8040 O.2     1  PVE1       -0.2839
     23  C2       -69.0570  -32.3920   20.8200 C.2     1  PVE1        0.3383
     24  N11      -70.3680  -32.0330   20.8760 N.2     1  PVE1       -0.0635
     25  C12      -71.4150  -32.8040   21.4980 C.3     1  PVE1        0.2679
     26  C13      -70.8640  -34.1580   21.9420 C.3     1  PVE1        0.1131
@<TRIPOS>BOND
     1     7     6    2
     2    22    21    2
     3     6     5    1
     4     6     8   am
     5     5     4    1
     6    21    20    1
     7     4     2    1
     8     8     9    1
     9    10     9    2
    10    10    11    1
    11     9    23    1
    12    12    11   ar
    13    12    13   ar
    14    11    18   ar
    15    14    13    1
    16    13    15   ar
    17    23    24    2
    18    23    19    1
    19    24    25    1
    20    18    19    1
    21    18    17   ar
    22    19    20    1
    23    15    17   ar
    24    15    16    1
    25    20    26    1
    26    25    26    1
    27     2     1   ar
    28     2     3   ar
