@<TRIPOS>MOLECULE
2w77_PVE_C_1.pdb
 26 28 0 0 0
SMALL
GASTEIGER

@<TRIPOS>ATOM
      1  O23      -68.2310  -28.8800   22.7070 O.co2   1  PVE1       -0.2456
      2  C22      -68.4960  -27.7090   22.3290 C.2     1  PVE1        0.3654
      3  O24      -68.8850  -26.7870   23.1000 O.co2   1  PVE1       -0.2456
      4  C21      -68.3280  -27.3890   20.8640 C.3     1  PVE1        0.1237
      5  C20      -69.4440  -28.0080   20.0160 C.3     1  PVE1        0.0990
      6  C18      -68.9700  -29.2430   19.6440 C.2     1  PVE1        0.2464
      7  O19      -69.1250  -29.7350   18.5220 O.2     1  PVE1       -0.2730
      8  N17      -68.5450  -29.8830   20.7420 N.am    1  PVE1       -0.1717
      9  C3       -68.2080  -31.2740   20.8070 C.2     1  PVE1        0.1553
     10  C4       -66.8800  -31.7480   20.6420 C.2     1  PVE1        0.0276
     11  C10      -66.5610  -33.1220   20.7330 C.ar    1  PVE1        0.0420
     12  C5       -65.2330  -33.5810   20.5790 C.ar    1  PVE1        0.0488
     13  C6       -64.9330  -34.9580   20.6750 C.ar    1  PVE1        0.2345
     14  O25      -63.6690  -35.4810   20.5430 O.3     1  PVE1       -0.2831
     15  C7       -65.9520  -35.8710   20.9290 C.ar    1  PVE1        0.2377
     16  O26      -65.5660  -37.1870   21.0250 O.3     1  PVE1       -0.2830
     17  C8       -67.2780  -35.4240   21.0880 C.ar    1  PVE1        0.0856
     18  C9       -67.5980  -34.0440   20.9990 C.ar    1  PVE1        0.1424
     19  N1       -68.8800  -33.5670   21.1780 N.pl3   1  PVE1       -0.1657
     20  C14      -69.9790  -34.5160   21.4470 C.3     1  PVE1        0.2335
     21  C15      -70.5460  -34.9640   20.1100 C.2     1  PVE1        0.2542
     22  O16      -70.2040  -34.3220   19.1260 O.2     1  PVE1       -0.2839
     23  C2       -69.1960  -32.2290   21.0850 C.2     1  PVE1        0.3383
     24  N11      -70.4780  -31.7740   21.2420 N.2     1  PVE1       -0.0635
     25  C12      -71.6090  -32.5940   21.6690 C.3     1  PVE1        0.2679
     26  C13      -71.0260  -33.8350   22.3280 C.3     1  PVE1        0.1131
@<TRIPOS>BOND
     1     7     6    2
     2    22    21    2
     3     6     5    1
     4     6     8   am
     5     5     4    1
     6    21    20    1
     7    14    13    1
     8    12    13   ar
     9    12    11   ar
    10    10    11    1
    11    10     9    2
    12    13    15   ar
    13    11    18   ar
    14     8     9    1
    15     9    23    1
    16     4     2    1
    17    15    16    1
    18    15    17   ar
    19    18    17   ar
    20    18    19    1
    21    23    19    1
    22    23    24    2
    23    19    20    1
    24    24    25    1
    25    20    26    1
    26    25    26    1
    27     2     1   ar
    28     2     3   ar
