@<TRIPOS>MOLECULE
2w78_PVE_C_1.pdb
 26 29 0 0 0
SMALL
GASTEIGER

@<TRIPOS>ATOM
      1  O23      -67.4400  -28.4840   22.0390 O.3     1  PVE1       -0.3390
      2  C22      -67.6730  -27.3650   21.5110 C.2     1  PVE1        0.3407
      3  O24      -68.0550  -26.3460   22.1520 O.2     1  PVE1       -0.2479
      4  C21      -67.4730  -27.2370   20.0210 C.3     1  PVE1        0.1214
      5  C20      -68.5870  -27.9360   19.2360 C.3     1  PVE1        0.1003
      6  C18      -68.1960  -29.1010   19.5160 C.2     1  PVE1        0.2615
      7  O19      -68.2860  -29.7160   18.4350 O.2     1  PVE1       -0.2716
      8  N17      -67.8100  -29.6460   20.6930 N.am    1  PVE1       -0.0896
      9  C3       -67.4990  -31.0380   20.8110 C.2     1  PVE1        0.1744
     10  C4       -66.2020  -31.5330   20.6690 C.2     1  PVE1        0.0293
     11  C10      -65.9210  -32.8990   20.8340 C.ar    1  PVE1        0.0420
     12  C5       -64.6190  -33.3910   20.7160 C.ar    1  PVE1        0.0488
     13  C6       -64.3570  -34.7630   20.8710 C.ar    1  PVE1        0.2345
     14  O25      -63.1310  -35.3440   20.7650 O.3     1  PVE1       -0.2831
     15  C7       -65.3570  -35.6210   21.1550 C.ar    1  PVE1        0.2377
     16  O26      -64.9220  -36.8850   21.2770 O.3     1  PVE1       -0.2830
     17  C8       -66.6640  -35.1740   21.2780 C.ar    1  PVE1        0.0856
     18  C9       -66.9440  -33.8050   21.1200 C.ar    1  PVE1        0.1424
     19  N1       -68.1990  -33.3180   21.2380 N.pl3   1  PVE1       -0.1657
     20  C14      -69.2790  -34.2470   21.5730 C.3     1  PVE1        0.2335
     21  C15      -70.0440  -34.6340   20.3540 C.2     1  PVE1        0.2542
     22  O16      -69.9740  -33.8960   19.3890 O.2     1  PVE1       -0.2839
     23  C2       -68.4980  -31.9820   21.0960 C.2     1  PVE1        0.3400
     24  N11      -69.8030  -31.5580   21.2220 N.2     1  PVE1       -0.0635
     25  C12      -70.8250  -32.3080   21.9450 C.3     1  PVE1        0.2679
     26  C13      -70.1500  -33.5150   22.5800 C.3     1  PVE1        0.1131
@<TRIPOS>BOND
     1     7     6    2
     2     5     6    1
     3     5     4    1
     4    22    21    2
     5     6     8   am
     6     4     2    1
     7    21    20    1
     8    10     9    2
     9    10    11    1
    10     8     9    1
    11     8     1    1
    12    12    11   ar
    13    12    13   ar
    14    14    13    1
    15     9    23    1
    16    11    18   ar
    17    13    15   ar
    18    23    24    2
    19    23    19    1
    20    18    19    1
    21    18    17   ar
    22    15    16    1
    23    15    17   ar
    24    24    25    1
    25    19    20    1
    26     2     1    1
    27     2     3    2
    28    20    26    1
    29    25    26    1
