@<TRIPOS>MOLECULE
2w7d_PLP_A_1.pdb
 15 15 0 0 0
SMALL
GASTEIGER

@<TRIPOS>ATOM
      1  N1         9.5220    9.3760   22.8100 N.2   501  PLP501     -0.2458
      2  C2        10.0440   10.4190   22.0710 C.2   501  PLP501      0.0942
      3  C2A       11.3220   11.0730   22.5480 C.3   501  PLP501      0.0552
      4  C3         9.3800   10.8350   20.9130 C.2   501  PLP501      0.1899
      5  O3         9.8330   11.7740   20.2400 O.2   501  PLP501     -0.2898
      6  C4         8.1960   10.1950   20.4940 C.3   501  PLP501      0.0852
      7  C4A        7.5320   10.6700   19.2240 C.3   501  PLP501      0.0127
      8  C5         7.6840    9.1370   21.2650 C.2   501  PLP501      0.0118
      9  C6         8.3510    8.7430   22.4220 C.2   501  PLP501      0.0929
     10  C5A        6.3970    8.4210   20.9480 C.3   501  PLP501      0.1779
     11  O4P        6.1560    7.7250   19.7140 O.3   501  PLP501     -0.2656
     12  P          4.6380    7.4360   19.2450 P.3   501  PLP501      0.5329
     13  O1P        3.9920    6.8330   20.4510 O.3   501  PLP501     -0.1145
     14  O2P        4.0800    8.7580   18.8640 O.3   501  PLP501     -0.1145
     15  O3P        4.9040    6.5420   18.0990 O.2   501  PLP501     -0.2224
@<TRIPOS>BOND
     1    15    12    2
     2    14    12    1
     3     7     6    1
     4    12    11    1
     5    12    13    1
     6    11    10    1
     7     5     4    2
     8     6     4    1
     9     6     8    1
    10     4     2    1
    11    10     8    1
    12     8     9    2
    13     2     3    1
    14     2     1    2
    15     9     1    1
