@<TRIPOS>MOLECULE
2w7e_PLP_A_1.pdb
 15 15 0 0 0
SMALL
GASTEIGER

@<TRIPOS>ATOM
      1  N1         9.5420    9.2820   22.2920 N.2   501  PLP501     -0.2670
      2  C2        10.0010   10.5470   21.9570 C.2   501  PLP501      0.0928
      3  C2A       11.1190   11.1900   22.7450 C.3   501  PLP501      0.0551
      4  C3         9.4350   11.2120   20.8600 C.2   501  PLP501      0.2042
      5  O3         9.7940   12.3400   20.5230 O.2   501  PLP501     -0.2857
      6  C4         8.4090   10.6290   20.1300 C.2   501  PLP501      0.0146
      7  C4A        7.8320   11.3960   18.9620 C.3   501  PLP501      0.0339
      8  C5         7.9520    9.3680   20.4710 C.2   501  PLP501      0.0090
      9  C6         8.5040    8.6890   21.5670 C.3   501  PLP501      0.1495
     10  C5A        6.8520    8.7960   19.6240 C.3   501  PLP501      0.1777
     11  O4P        5.9950    7.7300   20.0650 O.3   501  PLP501     -0.2656
     12  P          4.6000    7.4240   19.3090 P.3   501  PLP501      0.5329
     13  O1P        3.8800    6.6090   20.3160 O.3   501  PLP501     -0.1145
     14  O2P        3.9730    8.7360   19.0540 O.3   501  PLP501     -0.1145
     15  O3P        4.9600    6.7150   18.0620 O.2   501  PLP501     -0.2224
@<TRIPOS>BOND
     1    15    12    2
     2     7     6    1
     3    14    12    1
     4    12    11    1
     5    12    13    1
     6    10    11    1
     7    10     8    1
     8     6     8    2
     9     6     4    1
    10     8     9    1
    11     5     4    2
    12     4     2    1
    13     9     1    1
    14     2     1    2
    15     2     3    1
