@<TRIPOS>MOLECULE
2w7f_PLP_A_1.pdb
 15 15 0 0 0
SMALL
GASTEIGER

@<TRIPOS>ATOM
      1  N1         9.6310    9.2540   22.2580 N.ar  501  PLP501     -0.2452
      2  C2        10.0060   10.5540   21.9800 C.ar  501  PLP501      0.0978
      3  C2A       11.3230   11.0840   22.5040 C.3   501  PLP501      0.0555
      4  C3         9.1560   11.3520   21.2050 C.ar  501  PLP501      0.2049
      5  O3         9.4740   12.6460   20.8990 O.3   501  PLP501     -0.2857
      6  C4         7.9250   10.8400   20.7320 C.ar  501  PLP501      0.0182
      7  C4A        7.0030   11.7410   19.9300 C.3   501  PLP501      0.0342
      8  C5         7.5740    9.5120   21.0310 C.ar  501  PLP501      0.0261
      9  C6         8.4170    8.7230   21.8050 C.ar  501  PLP501      0.0965
     10  C5A        6.1630    9.0500   20.7050 C.3   501  PLP501      0.1815
     11  O4P        6.0950    9.1040   19.2690 O.3   501  PLP501     -0.2653
     12  P          4.6890    9.0920   18.4450 P.3   501  PLP501      0.5329
     13  O1P        4.2050    7.6680   18.4030 O.3   501  PLP501     -0.1145
     14  O2P        3.6830    9.9800   19.1220 O.3   501  PLP501     -0.1145
     15  O3P        4.8790    9.6350   17.0340 O.2   501  PLP501     -0.2224
@<TRIPOS>BOND
     1    15    12    2
     2    13    12    1
     3    12    14    1
     4    12    11    1
     5    11    10    1
     6     7     6    1
     7    10     8    1
     8     6     8   ar
     9     6     4   ar
    10     5     4    1
    11     8     9   ar
    12     4     2   ar
    13     9     1   ar
    14     2     1   ar
    15     2     3    1
