@<TRIPOS>MOLECULE
2w7g_PLP_A_1.pdb
 15 15 0 0 0
SMALL
GASTEIGER

@<TRIPOS>ATOM
      1  N1         9.6730    9.1860   22.0810 N.ar  501  PLP501     -0.2452
      2  C2        10.0110   10.5210   21.9050 C.ar  501  PLP501      0.0978
      3  C2A       11.3410   11.0380   22.4110 C.3   501  PLP501      0.0555
      4  C3         9.1070   11.3630   21.2500 C.ar  501  PLP501      0.2049
      5  O3         9.4020   12.6880   21.0590 O.3   501  PLP501     -0.2857
      6  C4         7.8770   10.8720   20.7890 C.ar  501  PLP501      0.0182
      7  C4A        6.8830   11.7970   20.1010 C.3   501  PLP501      0.0342
      8  C5         7.5720    9.5150   20.9650 C.ar  501  PLP501      0.0261
      9  C6         8.4610    8.6750   21.6260 C.ar  501  PLP501      0.0965
     10  C5A        6.1970    9.0480   20.5380 C.3   501  PLP501      0.1815
     11  O4P        6.1260    7.8280   19.8510 O.3   501  PLP501     -0.2653
     12  P          4.6810    7.4410   19.2450 P.3   501  PLP501      0.5329
     13  O1P        3.8650    6.8450   20.3680 O.3   501  PLP501     -0.1145
     14  O2P        4.0240    8.7030   18.7260 O.3   501  PLP501     -0.1145
     15  O3P        4.8740    6.4710   18.1080 O.2   501  PLP501     -0.2224
@<TRIPOS>BOND
     1    15    12    2
     2    14    12    1
     3    12    11    1
     4    12    13    1
     5    11    10    1
     6     7     6    1
     7    10     8    1
     8     6     8   ar
     9     6     4   ar
    10     8     9   ar
    11     5     4    1
    12     4     2   ar
    13     9     1   ar
    14     2     1   ar
    15     2     3    1
