@<TRIPOS>MOLECULE
2w7h_PLP_A_1.pdb
 15 15 0 0 0
SMALL
GASTEIGER

@<TRIPOS>ATOM
      1  N1         9.5210    9.2520   22.3450 N.2   501  PLP501     -0.2670
      2  C2         9.9730   10.5270   22.0160 C.2   501  PLP501      0.0928
      3  C2A       11.0710   11.1910   22.8090 C.3   501  PLP501      0.0551
      4  C3         9.4050   11.1950   20.9270 C.2   501  PLP501      0.2042
      5  O3         9.7610   12.3300   20.6020 O.2   501  PLP501     -0.2857
      6  C4         8.3970   10.5940   20.1870 C.2   501  PLP501      0.0146
      7  C4A        7.8090   11.3460   19.0170 C.3   501  PLP501      0.0339
      8  C5         7.9550    9.3260   20.5220 C.2   501  PLP501      0.0090
      9  C6         8.5020    8.6400   21.6130 C.3   501  PLP501      0.1495
     10  C5A        6.8670    8.7500   19.6690 C.3   501  PLP501      0.1777
     11  O4P        6.0330    7.6530   20.0810 O.3   501  PLP501     -0.2656
     12  P          4.6030    7.4240   19.3690 P.3   501  PLP501      0.5329
     13  O1P        3.8490    6.6140   20.3580 O.3   501  PLP501     -0.1145
     14  O2P        4.0230    8.7670   19.1810 O.3   501  PLP501     -0.1145
     15  O3P        4.8940    6.7520   18.0830 O.2   501  PLP501     -0.2224
@<TRIPOS>BOND
     1    15    12    2
     2     7     6    1
     3    14    12    1
     4    12    11    1
     5    12    13    1
     6    10    11    1
     7    10     8    1
     8     6     8    2
     9     6     4    1
    10     8     9    1
    11     5     4    2
    12     4     2    1
    13     9     1    1
    14     2     1    2
    15     2     3    1
