@<TRIPOS>MOLECULE
2w7i_PLP_A_1.pdb
 15 15 0 0 0
SMALL
GASTEIGER

@<TRIPOS>ATOM
      1  N1         9.4710    9.2450   22.8610 N.2   501  PLP501     -0.2458
      2  C2        10.0340   10.3310   22.2190 C.2   501  PLP501      0.0942
      3  C2A       11.1590   11.0730   22.8820 C.3   501  PLP501      0.0552
      4  C3         9.5520   10.7270   20.9680 C.2   501  PLP501      0.1899
      5  O3        10.0630   11.6980   20.4040 O.2   501  PLP501     -0.2898
      6  C4         8.5030   10.0230   20.3570 C.3   501  PLP501      0.0852
      7  C4A        7.9940   10.4600   19.0040 C.3   501  PLP501      0.0127
      8  C5         7.9390    8.9210   21.0260 C.2   501  PLP501      0.0118
      9  C6         8.4360    8.5450   22.2730 C.2   501  PLP501      0.0929
     10  C5A        6.8110    8.0860   20.4760 C.3   501  PLP501      0.1779
     11  O4P        5.8170    8.5730   19.5370 O.3   501  PLP501     -0.2656
     12  P          4.6400    7.5990   19.0170 P.3   501  PLP501      0.5329
     13  O1P        4.1830    6.8860   20.2310 O.3   501  PLP501     -0.1145
     14  O2P        3.6460    8.5410   18.4560 O.3   501  PLP501     -0.1145
     15  O3P        5.2900    6.7340   18.0040 O.2   501  PLP501     -0.2224
@<TRIPOS>BOND
     1    15    12    2
     2    14    12    1
     3     7     6    1
     4    12    11    1
     5    12    13    1
     6    11    10    1
     7     6     4    1
     8     6     8    1
     9     5     4    2
    10    10     8    1
    11     4     2    1
    12     8     9    2
    13     2     1    2
    14     2     3    1
    15     9     1    1
