@<TRIPOS>MOLECULE
2w7j_PLP_A_1.pdb
 15 15 0 0 0
SMALL
GASTEIGER

@<TRIPOS>ATOM
      1  N1         9.6570    9.2440   22.5400 N.ar  501  PLP501     -0.2452
      2  C2         9.9810   10.4940   22.0520 C.ar  501  PLP501      0.0978
      3  C2A       11.3370   11.0760   22.3580 C.3   501  PLP501      0.0555
      4  C3         9.0460   11.1910   21.2840 C.ar  501  PLP501      0.2049
      5  O3         9.3650   12.4310   20.7910 O.3   501  PLP501     -0.2857
      6  C4         7.7870   10.6220   21.0140 C.ar  501  PLP501      0.0182
      7  C4A        6.7840   11.3890   20.1840 C.3   501  PLP501      0.0342
      8  C5         7.4820    9.3480   21.5220 C.ar  501  PLP501      0.0261
      9  C6         8.4240    8.6710   22.2910 C.ar  501  PLP501      0.0965
     10  C5A        6.1410    8.6760   21.2910 C.3   501  PLP501      0.1815
     11  O4P        6.0710    8.0440   20.0350 O.3   501  PLP501     -0.2653
     12  P          4.6230    7.7000   19.4060 P.3   501  PLP501      0.5329
     13  O1P        3.8430    6.9270   20.4460 O.3   501  PLP501     -0.1145
     14  O2P        3.9540    9.0140   19.0670 O.3   501  PLP501     -0.1145
     15  O3P        4.8450    6.8670   18.1600 O.2   501  PLP501     -0.2224
@<TRIPOS>BOND
     1    15    12    2
     2    14    12    1
     3    12    11    1
     4    12    13    1
     5    11    10    1
     6     7     6    1
     7     5     4    1
     8     6     4   ar
     9     6     8   ar
    10     4     2   ar
    11    10     8    1
    12     8     9   ar
    13     2     3    1
    14     2     1   ar
    15     9     1   ar
