@<TRIPOS>MOLECULE
2w7k_PLP_A_1.pdb
 15 15 0 0 0
SMALL
GASTEIGER

@<TRIPOS>ATOM
      1  N1         9.6850    8.9710   22.1940 N.ar  501  PLP501     -0.2452
      2  C2         9.9910   10.2900   21.9150 C.ar  501  PLP501      0.0978
      3  C2A       11.2920   10.8680   22.3980 C.3   501  PLP501      0.0555
      4  C3         9.0930   11.0690   21.1840 C.ar  501  PLP501      0.2049
      5  O3         9.4000   12.3770   20.9050 O.3   501  PLP501     -0.2857
      6  C4         7.8840   10.5150   20.7410 C.ar  501  PLP501      0.0182
      7  C4A        6.9130   11.3610   19.9580 C.3   501  PLP501      0.0342
      8  C5         7.5830    9.1780   21.0360 C.ar  501  PLP501      0.0261
      9  C6         8.4960    8.4150   21.7620 C.ar  501  PLP501      0.0965
     10  C5A        6.1620    8.6670   20.9460 C.3   501  PLP501      0.1815
     11  O4P        6.0290    7.8530   19.8040 O.3   501  PLP501     -0.2653
     12  P          4.5780    7.5450   19.1800 P.3   501  PLP501      0.5329
     13  O1P        3.7080    6.9020   20.2320 O.3   501  PLP501     -0.1145
     14  O2P        3.9640    8.8470   18.7190 O.3   501  PLP501     -0.1145
     15  O3P        4.7490    6.6030   18.0110 O.2   501  PLP501     -0.2224
@<TRIPOS>BOND
     1    15    12    2
     2    14    12    1
     3    12    11    1
     4    12    13    1
     5    11    10    1
     6     7     6    1
     7     6     8   ar
     8     6     4   ar
     9     5     4    1
    10    10     8    1
    11     8     9   ar
    12     4     2   ar
    13     9     1   ar
    14     2     1   ar
    15     2     3    1
