@<TRIPOS>MOLECULE
2w7l_PLP_A_1.pdb
 15 15 0 0 0
SMALL
GASTEIGER

@<TRIPOS>ATOM
      1  N1         9.6420    9.0950   22.2970 N.ar  501  PLP501     -0.2452
      2  C2         9.9940   10.3690   21.8930 C.ar  501  PLP501      0.0978
      3  C2A       11.3610   10.8960   22.2300 C.3   501  PLP501      0.0555
      4  C3         9.0820   11.1460   21.1770 C.ar  501  PLP501      0.2049
      5  O3         9.4400   12.4100   20.7780 O.3   501  PLP501     -0.2857
      6  C4         7.8120   10.6330   20.8720 C.ar  501  PLP501      0.0182
      7  C4A        6.8120   11.4570   20.1030 C.3   501  PLP501      0.0342
      8  C5         7.4740    9.3390   21.2880 C.ar  501  PLP501      0.0261
      9  C6         8.3930    8.5790   22.0050 C.ar  501  PLP501      0.0965
     10  C5A        6.1100    8.7500   21.0000 C.3   501  PLP501      0.1815
     11  O4P        6.1020    7.9680   19.8310 O.3   501  PLP501     -0.2653
     12  P          4.6920    7.5350   19.1860 P.3   501  PLP501      0.5329
     13  O1P        4.9540    6.5610   18.0600 O.2   501  PLP501     -0.2224
     14  O2P        3.8320    6.8820   20.2410 O.3   501  PLP501     -0.1145
     15  O3P        4.0090    8.7730   18.6560 O.3   501  PLP501     -0.1145
@<TRIPOS>BOND
     1    13    12    2
     2    15    12    1
     3    12    11    1
     4    12    14    1
     5    11    10    1
     6     7     6    1
     7     5     4    1
     8     6     4   ar
     9     6     8   ar
    10    10     8    1
    11     4     2   ar
    12     8     9   ar
    13     2     3    1
    14     2     1   ar
    15     9     1   ar
