@<TRIPOS>MOLECULE
2w7m_PLP_A_1.pdb
 15 15 0 0 0
SMALL
GASTEIGER

@<TRIPOS>ATOM
      1  N1         9.6450    9.2060   22.5760 N.ar  501  PLP501     -0.2452
      2  C2         9.9790   10.4570   22.0910 C.ar  501  PLP501      0.0978
      3  C2A       11.3250   11.0430   22.4250 C.3   501  PLP501      0.0555
      4  C3         9.0660   11.1520   21.2940 C.ar  501  PLP501      0.2049
      5  O3         9.3870   12.3930   20.8060 O.3   501  PLP501     -0.2857
      6  C4         7.8200   10.5820   20.9940 C.ar  501  PLP501      0.0182
      7  C4A        6.8400   11.3460   20.1410 C.3   501  PLP501      0.0342
      8  C5         7.5050    9.3100   21.4990 C.ar  501  PLP501      0.0261
      9  C6         8.4260    8.6300   22.2910 C.ar  501  PLP501      0.0965
     10  C5A        6.1740    8.6470   21.2350 C.3   501  PLP501      0.1815
     11  O4P        6.1390    7.9990   19.9900 O.3   501  PLP501     -0.2653
     12  P          4.6950    7.6280   19.3790 P.3   501  PLP501      0.5329
     13  O1P        3.8890    6.9190   20.4340 O.3   501  PLP501     -0.1145
     14  O2P        4.0190    8.9390   19.0170 O.3   501  PLP501     -0.1145
     15  O3P        4.8980    6.7700   18.1510 O.2   501  PLP501     -0.2224
@<TRIPOS>BOND
     1    15    12    2
     2    14    12    1
     3    12    11    1
     4    12    13    1
     5    11    10    1
     6     7     6    1
     7     5     4    1
     8     6     4   ar
     9     6     8   ar
    10    10     8    1
    11     4     2   ar
    12     8     9   ar
    13     2     3    1
    14     2     1   ar
    15     9     1   ar
