@<TRIPOS>MOLECULE
2w7o_DGT_A_1.pdb
 31 33 0 0 0
SMALL
GASTEIGER

@<TRIPOS>ATOM
      1  PG       -23.2300   16.4100   10.2270 P.3   1520  DGT1520     0.5373
      2  O1G      -22.1660   15.2030   10.1920 O.3   1520  DGT1520    -0.1143
      3  O2G      -22.7680   17.7250    9.4220 O.2   1520  DGT1520    -0.2221
      4  O3G      -24.6300   16.2020   10.6550 O.3   1520  DGT1520    -0.1143
      5  O3B      -22.6270   16.9670   11.6070 O.3   1520  DGT1520    -0.2258
      6  PB       -23.1200   16.2670   12.9650 P.3   1520  DGT1520     0.2277
      7  O1B      -22.2570   16.6910   14.0880 O.3   1520  DGT1520    -0.4368
      8  O2B      -23.2570   14.8230   12.6780 O.2   1520  DGT1520    -0.5168
      9  O3A      -24.5760   16.9150   13.1650 O.3   1520  DGT1520    -0.2700
     10  PA       -25.3270   16.6260   14.5570 P.3   1520  DGT1520     0.2189
     11  O1A      -24.2810   16.2470   15.7220 O.3   1520  DGT1520    -0.4371
     12  O2A      -26.6910   17.1170   14.8530 O.2   1520  DGT1520    -0.5170
     13  O5'      -25.6880   15.1190   14.1160 O.3   1520  DGT1520    -0.3112
     14  C5'      -25.2460   13.9700   14.8440 C.3   1520  DGT1520     0.1812
     15  C4'      -24.9690   12.8010   13.8960 C.3   1520  DGT1520     0.1772
     16  O4'      -24.8470   11.5500   14.5860 O.3   1520  DGT1520    -0.3347
     17  C3'      -26.1460   12.5140   12.9650 C.3   1520  DGT1520     0.1857
     18  O3'      -26.1410   13.4550   11.8880 O.3   1520  DGT1520    -0.2203
     19  C2'      -25.7300   11.1470   12.4200 C.3   1520  DGT1520     0.0865
     20  C1'      -24.8040   10.5970   13.5120 C.3   1520  DGT1520     0.1981
     21  N9       -25.2430    9.2580   13.9710 N.pl3 1520  DGT1520    -0.2374
     22  C8       -24.5240    8.1420   13.8800 C.3   1520  DGT1520     0.2245
     23  N7       -25.2500    7.1130   14.3130 N.2   1520  DGT1520    -0.2322
     24  C5       -26.4400    7.5750   14.6830 C.2   1520  DGT1520     0.2182
     25  C6       -27.5890    6.9690   15.1780 C.1   1520  DGT1520     0.2372
     26  O6       -27.6360    5.7490   15.3460 O.2   1520  DGT1520    -0.2069
     27  N1       -28.7030    7.7670   15.4620 N.2   1520  DGT1520    -0.2485
     28  C2       -28.6360    9.1500   15.2460 C.1   1520  DGT1520     0.2531
     29  N2       -29.6840    9.9160   15.5350 N.pl3 1520  DGT1520    -0.0226
     30  N3       -27.5120    9.6970   14.7620 N.2   1520  DGT1520    -0.3074
     31  C4       -26.4330    8.9500   14.4770 C.2   1520  DGT1520     0.2299
@<TRIPOS>BOND
     1     3     1    2
     2     2     1    1
     3     1     4    1
     4     1     5    1
     5     5     6    1
     6    18    17    1
     7    19    17    1
     8    19    20    1
     9     8     6    2
    10     6     9    1
    11     6     7    1
    12    17    15    1
    13     9    10    1
    14    20    21    1
    15    20    16    1
    16    22    21    1
    17    22    23    1
    18    15    16    1
    19    15    14    1
    20    21    31    1
    21    13    10    1
    22    13    14    1
    23    23    24    2
    24    31    24    1
    25    31    30    2
    26    10    12    2
    27    10    11    1
    28    24    25    1
    29    30    28    2
    30    25    26    2
    31    25    27    2
    32    28    27    2
    33    28    29    1
