@<TRIPOS>MOLECULE
2w7p_DTP_A_1.pdb
 30 32 0 0 0
SMALL
GASTEIGER

@<TRIPOS>ATOM
      1  PG       -23.6420   16.8770   10.7850 P.3   1521  DTP1521     0.5373
      2  O1G      -24.4220   18.1270   11.0680 O.3   1521  DTP1521    -0.1143
      3  O2G      -22.2970   17.2390   10.2350 O.3   1521  DTP1521    -0.1143
      4  O3G      -24.4160   16.0450    9.7860 O.2   1521  DTP1521    -0.2221
      5  PB       -23.1610   16.4070   13.5940 P.3   1521  DTP1521     0.2277
      6  O1B      -23.1270   17.8940   13.6700 O.2   1521  DTP1521    -0.5168
      7  O2B      -21.9090   15.7920   14.0860 O.3   1521  DTP1521    -0.4368
      8  O3B      -23.4990   15.8960   12.0770 O.3   1521  DTP1521    -0.2258
      9  PA       -25.8390   16.1000   14.3460 P.3   1521  DTP1521     0.2189
     10  O1A      -26.0260   17.1500   13.2990 O.2   1521  DTP1521    -0.5170
     11  O2A      -26.4920   16.5170   15.6240 O.3   1521  DTP1521    -0.4371
     12  O3A      -24.2820   15.7760   14.4870 O.3   1521  DTP1521    -0.2700
     13  O5'      -26.4010   14.6410   13.8940 O.3   1521  DTP1521    -0.3112
     14  C5'      -25.9100   13.9940   12.6610 C.3   1521  DTP1521     0.1813
     15  C4'      -24.6570   13.1110   12.8720 C.3   1521  DTP1521     0.1795
     16  O4'      -24.8110   12.2770   14.0400 O.3   1521  DTP1521    -0.3155
     17  C3'      -24.2750   12.0940   11.7750 C.3   1521  DTP1521     0.1883
     18  O3'      -22.8530   11.8250   11.7480 O.3   1521  DTP1521    -0.2202
     19  C2'      -25.1190   10.8850   12.1390 C.3   1521  DTP1521     0.1151
     20  C1'      -25.0830   10.9410   13.6620 C.3   1521  DTP1521     0.2873
     21  N9       -26.3340   10.5630   14.3010 N.pl3 1521  DTP1521    -0.1460
     22  C8       -27.3750   11.3760   14.7430 C.3   1521  DTP1521     0.3377
     23  N7       -28.3620   10.7220   15.2800 N.2   1521  DTP1521    -0.2095
     24  C5       -27.9600    9.4040   15.1950 C.2   1521  DTP1521     0.2526
     25  C6       -28.5770    8.2210   15.5980 C.2   1521  DTP1521     0.4393
     26  N6       -29.7620    8.2410   16.1780 N.pl3 1521  DTP1521     0.2180
     27  N1       -27.9230    7.0230   15.3770 N.2   1521  DTP1521     0.0021
     28  C2       -26.7030    7.0470   14.7770 C.3   1521  DTP1521     0.5254
     29  N3       -26.0210    8.1330   14.3470 N.2   1521  DTP1521    -0.0055
     30  C4       -26.7120    9.2860   14.5910 C.2   1521  DTP1521     0.3518
@<TRIPOS>BOND
     1     4     1    2
     2     3     1    1
     3     1     2    1
     4     1     8    1
     5    18    17    1
     6    17    19    1
     7    17    15    1
     8     8     5    1
     9    19    20    1
    10    14    15    1
    11    14    13    1
    12    15    16    1
    13    10     9    2
    14     5     6    2
    15     5     7    1
    16     5    12    1
    17    20    16    1
    18    20    21    1
    19    13     9    1
    20    21    30    1
    21    21    22    1
    22     9    12    1
    23     9    11    1
    24    29    30    2
    25    29    28    1
    26    30    24    1
    27    22    23    1
    28    28    27    1
    29    24    23    2
    30    24    25    1
    31    27    25    2
    32    25    26    1
