@<TRIPOS>MOLECULE
2w7x_D1A_A_1.pdb
 28 30 0 0 0
SMALL
GASTEIGER

@<TRIPOS>ATOM
      1  O3        49.4650  -15.9110   -3.9700 O.2   601  D1A601     -0.1260
      2  N7        48.8340  -16.8670   -3.5090 N.pl3 601  D1A601      0.0599
      3  O2        49.1030  -17.2620   -2.3750 O.2   601  D1A601     -0.1260
      4  C3        47.8570  -17.5190   -4.2700 C.2   601  D1A601      0.1680
      5  C2        47.1990  -18.6650   -3.8240 C.2   601  D1A601      0.0052
      6  C4        47.5500  -17.0170   -5.5230 C.2   601  D1A601      0.1493
      7  N1        48.0000  -15.9460   -6.2090 N.2   601  D1A601     -0.3999
      8  C8        47.3640  -15.8380   -7.4150 C.2   601  D1A601      0.1684
      9  C7        46.4910  -16.9040   -7.5370 C.3   601  D1A601      0.0924
     10  C5        46.6180  -17.6270   -6.3190 C.2   601  D1A601      0.0123
     11  C6        45.9550  -18.7780   -5.8990 C.2   601  D1A601     -0.0226
     12  C1        46.2480  -19.2920   -4.6330 C.3   601  D1A601      0.0536
     13  C9        47.6560  -14.8120   -8.4290 C.2   601  D1A601      0.2948
     14  O1        48.5660  -14.0180   -8.2030 O.2   601  D1A601     -0.2655
     15  N2        46.9240  -14.8250   -9.5420 N.am  601  D1A601     -0.1735
     16  C10       47.1010  -13.9920  -10.6530 C.ar  601  D1A601      0.0738
     17  C15       46.2730  -14.2180  -11.7520 C.ar  601  D1A601      0.0166
     18  C14       46.3850  -13.4850  -12.9010 C.ar  601  D1A601      0.0026
     19  C13       47.3390  -12.4890  -12.9940 C.ar  601  D1A601      0.0167
     20  C12       48.1940  -12.2730  -11.9110 C.ar  601  D1A601      0.0026
     21  C11       48.0760  -13.0180  -10.7380 C.ar  601  D1A601      0.0166
     22  C16       47.4590  -11.7040  -14.2600 C.2   601  D1A601      0.0972
     23  C17       48.0960  -10.3460  -14.2780 C.3   601  D1A601      0.0554
     24  N3        47.0600  -12.2280  -15.3470 N.2   601  D1A601     -0.0740
     25  N4        47.1240  -11.6160  -16.4530 N.pl3 601  D1A601      0.0567
     26  C18       46.6990  -12.2990  -17.5130 C.cat 601  D1A601      0.5604
     27  N6        46.7110  -11.7970  -18.7250 N.pl3 601  D1A601      0.1376
     28  N5        46.3480  -13.4960  -17.3670 N.pl3 601  D1A601      0.1376
@<TRIPOS>BOND
     1    27    26    1
     2    26    28    1
     3    26    25    2
     4    25    24    1
     5    24    22    2
     6    23    22    1
     7    22    19    1
     8    19    18   ar
     9    19    20   ar
    10    18    17   ar
    11    20    21   ar
    12    17    16   ar
    13    21    16   ar
    14    16    15    1
    15    15    13   am
    16    13    14    2
    17    13     8    1
    18     9     8    1
    19     9    10    1
    20     8     7    2
    21    10    11    2
    22    10     6    1
    23     7     6    2
    24    11    12    1
    25     6     4    1
    26    12     5    1
    27     4     5    2
    28     4     2    1
    29     1     2    2
    30     2     3    2
