@<TRIPOS>MOLECULE
2w7y_GAL_A_1.pdb
 12 12 0 0 0
SMALL
GASTEIGER

@<TRIPOS>ATOM
      1  C1        16.2640    5.6410   51.5370 C.3   1429  GAL1429     0.3024
      2  C2        16.9550    4.4450   50.8800 C.3   1429  GAL1429     0.2434
      3  C3        15.9750    3.6730   49.9920 C.3   1429  GAL1429     0.2199
      4  C4        14.6530    3.3850   50.7130 C.3   1429  GAL1429     0.2144
      5  C5        14.0990    4.6990   51.2820 C.3   1429  GAL1429     0.1836
      6  C6        12.7680    4.5500   52.0230 C.3   1429  GAL1429     0.2142
      7  O1        17.1040    6.1540   52.5460 O.3   1429  GAL1429    -0.1869
      8  O2        18.0360    4.9320   50.1120 O.3   1429  GAL1429    -0.2148
      9  O3        16.5750    2.4810   49.5390 O.3   1429  GAL1429    -0.2174
     10  O4        14.8800    2.4330   51.7260 O.3   1429  GAL1429    -0.2176
     11  O5        15.0510    5.2720   52.1580 O.3   1429  GAL1429    -0.3236
     12  O6        12.1110    5.8040   52.0450 O.3   1429  GAL1429    -0.2176
@<TRIPOS>BOND
     1     9     3    1
     2     3     4    1
     3     3     2    1
     4     8     2    1
     5     4     5    1
     6     4    10    1
     7     2     1    1
     8     5     6    1
     9     5    11    1
    10     1    11    1
    11     1     7    1
    12     6    12    1
