@<TRIPOS>MOLECULE
2w7y_FUC_A_1.pdb
 10 10 0 0 0
SMALL
GASTEIGER

@<TRIPOS>ATOM
      1  C1        19.3040    4.2860   50.3950 C.3   1430  FUC1430     0.1776
      2  C2        20.3890    4.8540   49.4770 C.3   1430  FUC1430     0.2141
      3  C3        20.7520    6.2710   49.9260 C.3   1430  FUC1430     0.2172
      4  C4        21.2180    6.2520   51.3820 C.3   1430  FUC1430     0.2116
      5  C5        20.1370    5.6010   52.2520 C.3   1430  FUC1430     0.1483
      6  C6        20.5720    5.4320   53.7040 C.3   1430  FUC1430     0.0349
      7  O2        19.9200    4.8750   48.1520 O.3   1430  FUC1430    -0.2176
      8  O3        21.7260    6.8450   49.0810 O.3   1430  FUC1430    -0.2175
      9  O4        22.4360    5.5410   51.4990 O.3   1430  FUC1430    -0.2177
     10  O5        19.7380    4.3340   51.7480 O.3   1430  FUC1430    -0.3508
@<TRIPOS>BOND
     1     7     2    1
     2     8     3    1
     3     2     3    1
     4     2     1    1
     5     3     4    1
     6     1    10    1
     7     4     9    1
     8     4     5    1
     9    10     5    1
    10     5     6    1
