@<TRIPOS>MOLECULE
2w83_GTP_A_1.pdb
 32 34 0 0 0
SMALL
GASTEIGER

@<TRIPOS>ATOM
      1  PG        48.5320   -1.8710   22.0110 P.3   1173  GTP1173     0.5373
      2  O1G       49.3820   -0.6470   21.8300 O.2   1173  GTP1173    -0.2221
      3  O2G       49.3990   -3.0940   22.0280 O.3   1173  GTP1173    -0.1143
      4  O3G       47.6880   -1.7860   23.2600 O.3   1173  GTP1173    -0.1143
      5  O3B       47.5240   -1.9270   20.7440 O.3   1173  GTP1173    -0.2258
      6  PB        46.3860   -3.0300   20.5190 P.3   1173  GTP1173     0.2277
      7  O1B       46.9160   -4.1280   19.6230 O.2   1173  GTP1173    -0.5168
      8  O2B       45.8150   -3.5580   21.8020 O.3   1173  GTP1173    -0.4368
      9  O3A       45.3030   -2.2080   19.6450 O.3   1173  GTP1173    -0.2700
     10  PA        43.7960   -1.8220   20.0660 P.3   1173  GTP1173     0.2189
     11  O1A       43.8760   -0.8390   21.2080 O.3   1173  GTP1173    -0.4371
     12  O2A       42.9770   -3.0400   20.3510 O.2   1173  GTP1173    -0.5170
     13  O5'       43.2250   -1.1380   18.7300 O.3   1173  GTP1173    -0.3112
     14  C5'       43.8330    0.0160   18.1720 C.3   1173  GTP1173     0.1813
     15  C4'       42.7820    0.7260   17.3240 C.3   1173  GTP1173     0.1799
     16  O4'       42.3740   -0.1390   16.2670 O.3   1173  GTP1173    -0.3326
     17  C3'       41.5190    1.0360   18.1360 C.3   1173  GTP1173     0.2158
     18  O3'       41.0560    2.3130   17.7770 O.3   1173  GTP1173    -0.2175
     19  C2'       40.5230   -0.0190   17.6890 C.3   1173  GTP1173     0.2310
     20  O2'       39.1720    0.3850   17.7630 O.3   1173  GTP1173    -0.2158
     21  C1'       40.9670   -0.2430   16.2500 C.3   1173  GTP1173     0.2293
     22  N9        40.6220   -1.5760   15.7280 N.pl3 1173  GTP1173    -0.2354
     23  C8        40.8750   -2.7970   16.3000 C.3   1173  GTP1173     0.2246
     24  N7        40.4130   -3.7580   15.4680 N.2   1173  GTP1173    -0.2322
     25  C5        39.8740   -3.1640   14.3730 C.2   1173  GTP1173     0.2182
     26  C6        39.2680   -3.6610   13.2200 C.1   1173  GTP1173     0.2372
     27  O6        39.1260   -4.8720   13.0450 O.2   1173  GTP1173    -0.2069
     28  N1        38.8160   -2.7810   12.2580 N.2   1173  GTP1173    -0.2485
     29  C2        38.9620   -1.4140   12.4300 C.1   1173  GTP1173     0.2531
     30  N2        38.5240   -0.5780   11.4940 N.pl3 1173  GTP1173    -0.0226
     31  N3        39.5660   -0.9200   13.5790 N.2   1173  GTP1173    -0.3074
     32  C4        40.0100   -1.7870   14.5260 C.2   1173  GTP1173     0.2300
@<TRIPOS>BOND
     1    30    29    1
     2    28    29    2
     3    28    26    2
     4    29    31    2
     5    27    26    2
     6    26    25    1
     7    31    32    2
     8    25    32    1
     9    25    24    2
    10    32    22    1
    11    24    23    1
    12    22    21    1
    13    22    23    1
    14    21    16    1
    15    21    19    1
    16    16    15    1
    17    15    17    1
    18    15    14    1
    19    19    20    1
    20    19    17    1
    21    18    17    1
    22    14    13    1
    23    13    10    1
    24     7     6    2
    25     9    10    1
    26     9     6    1
    27    10    12    2
    28    10    11    1
    29     6     5    1
    30     6     8    1
    31     5     1    1
    32     2     1    2
    33     1     3    1
    34     1     4    1
