@<TRIPOS>MOLECULE
2w87_GCU_A_1.pdb
 13 13 0 0 0
SMALL
GASTEIGER

@<TRIPOS>ATOM
      1  C1       -14.5540   -4.7660   23.4790 C.3   1150  GCU1150     0.3028
      2  C2       -15.3610   -3.6540   22.8090 C.3   1150  GCU1150     0.2435
      3  C3       -14.4040   -2.6940   22.1090 C.3   1150  GCU1150     0.2204
      4  C4       -13.4940   -2.0880   23.1580 C.3   1150  GCU1150     0.2229
      5  C5       -12.7620   -3.2300   23.8800 C.3   1150  GCU1150     0.2530
      6  C6       -11.8610   -2.7260   24.9990 C.2   1150  GCU1150     0.3941
      7  O1       -13.8200   -5.4160   22.4420 O.3   1150  GCU1150    -0.1869
      8  O2       -16.2360   -4.2190   21.8470 O.3   1150  GCU1150    -0.2148
      9  O3       -15.1160   -1.6610   21.4250 O.3   1150  GCU1150    -0.2174
     10  O4       -12.5030   -1.2070   22.5700 O.3   1150  GCU1150    -0.2171
     11  O5       -13.7070   -4.1210   24.4710 O.3   1150  GCU1150    -0.3149
     12  O6A      -11.0970   -1.7940   24.7080 O.co2 1150  GCU1150    -0.2429
     13  O6B      -11.9200   -3.2660   26.1300 O.co2 1150  GCU1150    -0.2429
@<TRIPOS>BOND
     1     9     3    1
     2     8     2    1
     3     3     2    1
     4     3     4    1
     5     7     1    1
     6    10     4    1
     7     2     1    1
     8     4     5    1
     9     1    11    1
    10     5    11    1
    11     5     6    1
    12    12     6   ar
    13     6    13   ar
