@<TRIPOS>MOLECULE
2w8f_BS1_A_1.pdb
 26 30 0 0 0
SMALL
GASTEIGER

@<TRIPOS>ATOM
      1  C17       46.2040   35.6470   54.2390 C.3   1206  BS11206    -0.0957
      2  N1        45.8010   37.0180   54.6210 N.4   1206  BS11206     0.3898
      3  C16       46.2310   37.9790   53.6000 C.3   1206  BS11206    -0.0957
      4  C3        46.3070   37.5010   55.9200 C.3   1206  BS11206    -0.0520
      5  C12       45.4370   38.7260   56.2010 C.3   1206  BS11206    -0.0223
      6  C13       44.1450   38.4860   55.3990 C.3   1206  BS11206    -0.0223
      7  C2        44.3490   37.1040   54.7610 C.3   1206  BS11206    -0.0520
      8  C8        46.0910   36.4710   57.0340 C.3   1206  BS11206     0.0093
      9  C6        44.7630   35.6780   56.9510 C.3   1206  BS11206     0.1120
     10  C7        43.8630   35.9740   55.6890 C.3   1206  BS11206     0.0093
     11  O1        44.9780   34.2700   57.1250 O.3   1206  BS11206    -0.3501
     12  C1        44.1200   33.7280   58.1500 C.3   1206  BS11206     0.1590
     13  C5        42.9120   33.1010   57.5170 C.ar  1206  BS11206     0.0048
     14  C19       41.7580   33.9010   57.4940 C.ar  1206  BS11206    -0.0019
     15  C23       40.5590   33.4560   56.9280 C.ar  1206  BS11206    -0.0003
     16  C26       40.4940   32.1800   56.3700 C.ar  1206  BS11206    -0.0003
     17  C21       41.6340   31.3740   56.3810 C.ar  1206  BS11206    -0.0045
     18  C9        42.8460   31.8100   56.9380 C.ar  1206  BS11206    -0.0232
     19  C15       43.9680   30.7830   56.8650 C.3   1206  BS11206     0.0308
     20  C14       45.3720   31.3030   57.1630 C.3   1206  BS11206     0.0308
     21  C10       45.4560   31.6360   58.6270 C.ar  1206  BS11206    -0.0232
     22  C22       46.1340   30.7660   59.4960 C.ar  1206  BS11206    -0.0045
     23  C25       46.2070   31.0740   60.8550 C.ar  1206  BS11206    -0.0003
     24  C24       45.5980   32.2480   61.3180 C.ar  1206  BS11206    -0.0003
     25  C18       44.9180   33.1120   60.4480 C.ar  1206  BS11206    -0.0019
     26  C4        44.8440   32.8070   59.0850 C.ar  1206  BS11206     0.0048
@<TRIPOS>BOND
     1     3     2    1
     2     1     2    1
     3     2     7    1
     4     2     4    1
     5     7     6    1
     6     7    10    1
     7     6     5    1
     8    10     9    1
     9     4     5    1
    10     4     8    1
    11    16    17   ar
    12    16    15   ar
    13    17    18   ar
    14    19    18    1
    15    19    20    1
    16    15    14   ar
    17    18    13   ar
    18     9     8    1
    19     9    11    1
    20    11    12    1
    21    20    21    1
    22    14    13   ar
    23    13    12    1
    24    12    26    1
    25    21    26   ar
    26    21    22   ar
    27    26    25   ar
    28    22    23   ar
    29    25    24   ar
    30    23    24   ar
