@<TRIPOS>MOLECULE
2w8g_BS2_A_1.pdb
 31 36 0 0 0
SMALL
GASTEIGER

@<TRIPOS>ATOM
      1  CAY       53.5640  -26.9000    4.3750 C.ar  1206  BS21206     0.0048
      2  CAL       53.0620  -25.8280    5.0800 C.ar  1206  BS21206    -0.0019
      3  CAF       52.2320  -24.9290    4.4450 C.ar  1206  BS21206    -0.0003
      4  CAD       51.9100  -25.0920    3.1100 C.ar  1206  BS21206    -0.0003
      5  CAJ       52.4260  -26.1550    2.3930 C.ar  1206  BS21206    -0.0045
      6  CAW       53.2270  -27.0710    3.0590 C.ar  1206  BS21206    -0.0232
      7  CAN       53.7640  -28.2000    2.1930 C.3   1206  BS21206     0.0308
      8  CAO       55.2070  -27.7710    1.8660 C.3   1206  BS21206     0.0308
      9  CAX       56.1320  -28.1320    3.0450 C.ar  1206  BS21206    -0.0232
     10  CAK       57.3960  -28.4800    2.5380 C.ar  1206  BS21206    -0.0045
     11  CAE       58.4050  -28.8680    3.4150 C.ar  1206  BS21206    -0.0003
     12  CAG       58.1280  -28.8910    4.7850 C.ar  1206  BS21206    -0.0003
     13  CAM       56.8560  -28.5540    5.2850 C.ar  1206  BS21206    -0.0019
     14  CAZ       55.8260  -28.1750    4.4240 C.ar  1206  BS21206     0.0048
     15  CBD       54.4850  -27.8200    5.2110 C.3   1206  BS21206     0.1590
     16  OAU       53.6620  -28.8960    5.8170 O.3   1206  BS21206    -0.3498
     17  CBA       52.3820  -28.5090    6.4330 C.3   1206  BS21206     0.1187
     18  CAT       52.5140  -28.1470    7.9220 C.3   1206  BS21206     0.0456
     19  CAS       51.3750  -29.6570    6.3320 C.3   1206  BS21206     0.0456
     20  CBB       51.8360  -30.8160    7.2380 C.3   1206  BS21206     0.0602
     21  CAP       53.3470  -31.0720    7.0140 C.3   1206  BS21206     0.0174
     22  CAQ       54.0240  -30.1070    8.0290 C.3   1206  BS21206     0.0174
     23  CBC       52.8700  -29.3970    8.7330 C.3   1206  BS21206     0.0602
     24  NBE       51.7920  -30.4100    8.6620 N.3   1206  BS21206    -0.2714
     25  CAR       52.2220  -31.4950    9.5720 C.3   1206  BS21206     0.0991
     26  CAV       51.7410  -32.9180    9.2540 C.ar  1206  BS21206    -0.0061
     27  CAH       50.4800  -33.1680    8.7290 C.ar  1206  BS21206    -0.0029
     28  CAB       50.0570  -34.4690    8.4780 C.ar  1206  BS21206    -0.0003
     29  CAA       50.8970  -35.5200    8.7740 C.ar  1206  BS21206    -0.0000
     30  CAC       52.1430  -35.2860    9.3180 C.ar  1206  BS21206    -0.0003
     31  CAI       52.5750  -33.9910    9.5580 C.ar  1206  BS21206    -0.0029
@<TRIPOS>BOND
     1     8     7    1
     2     8     9    1
     3     7     6    1
     4     5     6   ar
     5     5     4   ar
     6    10     9   ar
     7    10    11   ar
     8     9    14   ar
     9     6     1   ar
    10     4     3   ar
    11    11    12   ar
    12     1     2   ar
    13     1    15    1
    14    14    15    1
    15    14    13   ar
    16     3     2   ar
    17    12    13   ar
    18    15    16    1
    19    16    17    1
    20    19    17    1
    21    19    20    1
    22    17    18    1
    23    21    20    1
    24    21    22    1
    25    20    24    1
    26    18    23    1
    27    22    23    1
    28    28    27   ar
    29    28    29   ar
    30    24    23    1
    31    24    25    1
    32    27    26   ar
    33    29    30   ar
    34    26    31   ar
    35    26    25    1
    36    30    31   ar
