@<TRIPOS>MOLECULE
2w8j_PLS_A_1.pdb
 22 22 0 0 0
SMALL
GASTEIGER

@<TRIPOS>ATOM
      1  N          6.3160   15.9230   33.4680 N.2   1420  PLS1420    -0.2567
      2  CA         5.1820   16.5490   34.1570 C.3   1420  PLS1420     0.2384
      3  CB         4.2160   17.2670   33.2110 C.3   1420  PLS1420     0.2178
      4  OG         4.8560   18.3710   32.5650 O.3   1420  PLS1420    -0.2176
      5  C          4.4120   15.4700   34.9000 C.2   1420  PLS1420     0.3893
      6  O          4.6930   14.2550   34.7730 O.co2 1420  PLS1420    -0.2434
      7  OXT        3.5020   15.8120   35.6900 O.co2 1420  PLS1420    -0.2434
      8  N1         9.7050   13.6330   30.4760 N.ar  1420  PLS1420    -0.2452
      9  C2         9.7350   13.8670   31.7970 C.ar  1420  PLS1420     0.0981
     10  C2A       10.9440   13.3940   32.5760 C.3   1420  PLS1420     0.0555
     11  C3         8.6740   14.5310   32.4040 C.ar  1420  PLS1420     0.2103
     12  O3         8.7250   14.7530   33.7480 O.3   1420  PLS1420    -0.2853
     13  C4         7.5730   14.9430   31.6420 C.ar  1420  PLS1420     0.0587
     14  C4A        6.3960   15.6400   32.2360 C.2   1420  PLS1420     0.0968
     15  C5         7.5860   14.6810   30.2720 C.ar  1420  PLS1420     0.0316
     16  C6         8.6770   14.0280   29.7160 C.ar  1420  PLS1420     0.0968
     17  C5A        6.4520   15.0800   29.3570 C.3   1420  PLS1420     0.1819
     18  O4P        6.5740   16.4600   28.9970 O.3   1420  PLS1420    -0.2653
     19  P          5.2770   17.4160   28.8250 P.3   1420  PLS1420     0.5329
     20  O1P        4.7040   17.5740   30.2020 O.3   1420  PLS1420    -0.1145
     21  O2P        4.3870   16.6870   27.8560 O.2   1420  PLS1420    -0.2224
     22  O3P        5.8790   18.6900   28.3170 O.3   1420  PLS1420    -0.1145
@<TRIPOS>BOND
     1    21    19    2
     2    22    19    1
     3    19    18    1
     4    19    20    1
     5    18    17    1
     6    17    15    1
     7    16    15   ar
     8    16     8   ar
     9    15    13   ar
    10     8     9   ar
    11    13    14    1
    12    13    11   ar
    13     9    11   ar
    14     9    10    1
    15    14     1    2
    16    11    12    1
    17     4     3    1
    18     3     2    1
    19     1     2    1
    20     2     5    1
    21     6     5   ar
    22     5     7   ar
