@<TRIPOS>MOLECULE
2w8k_DGT_A_1.pdb
 31 33 0 0 0
SMALL
GASTEIGER

@<TRIPOS>ATOM
      1  PG        23.4470  -11.8220   -2.6570 P.3   1342  DGT1342     0.5373
      2  O1G       24.9220  -11.8770   -3.3210 O.2   1342  DGT1342    -0.2221
      3  O2G       23.6560  -11.5110   -1.0840 O.3   1342  DGT1342    -0.1143
      4  O3G       22.6830  -13.0660   -2.8890 O.3   1342  DGT1342    -0.1143
      5  O3B       22.7170  -10.5340   -3.3000 O.3   1342  DGT1342    -0.2258
      6  PB        22.0540  -10.6350   -4.7570 P.3   1342  DGT1342     0.2277
      7  O1B       22.8640   -9.9380   -5.7640 O.2   1342  DGT1342    -0.5168
      8  O2B       20.5930  -10.4370   -4.6510 O.3   1342  DGT1342    -0.4368
      9  O3A       22.1800  -12.2130   -5.0000 O.3   1342  DGT1342    -0.2700
     10  PA        22.6990  -12.9140   -6.3570 P.3   1342  DGT1342     0.2189
     11  O1A       22.5070  -14.4890   -6.0630 O.3   1342  DGT1342    -0.4371
     12  O2A       24.1000  -12.5880   -6.7200 O.2   1342  DGT1342    -0.5170
     13  O5'       21.6140  -12.5570   -7.4960 O.3   1342  DGT1342    -0.3112
     14  C5'       21.7860  -11.4940   -8.4450 C.3   1342  DGT1342     0.1812
     15  C4'       20.3910  -11.1520   -8.9560 C.3   1342  DGT1342     0.1772
     16  O4'       19.7840  -12.4030   -9.2980 O.3   1342  DGT1342    -0.3347
     17  C3'       19.6710  -10.7060   -7.6800 C.3   1342  DGT1342     0.1857
     18  O3'       19.6260   -9.2770   -7.6650 O.3   1342  DGT1342    -0.2203
     19  C2'       18.2570  -11.2480   -7.8540 C.3   1342  DGT1342     0.0865
     20  C1'       18.3920  -12.2900   -8.9700 C.3   1342  DGT1342     0.1981
     21  N9        17.8950  -13.6210   -8.5650 N.pl3 1342  DGT1342    -0.2374
     22  C8        18.5170  -14.5560   -7.8520 C.3   1342  DGT1342     0.2245
     23  N7        17.7290  -15.6260   -7.7240 N.2   1342  DGT1342    -0.2322
     24  C5        16.5980  -15.3550   -8.3680 C.2   1342  DGT1342     0.2182
     25  C6        15.4400  -16.0930   -8.6090 C.1   1342  DGT1342     0.2372
     26  O6        15.3380  -17.2310   -8.1540 O.2   1342  DGT1342    -0.2069
     27  N1        14.4300  -15.5190   -9.3860 N.2   1342  DGT1342    -0.2485
     28  C2        14.5920  -14.2260   -9.9060 C.1   1342  DGT1342     0.2531
     29  N2        13.6350  -13.6860  -10.6680 N.pl3 1342  DGT1342    -0.0226
     30  N3        15.7120  -13.5440   -9.6490 N.2   1342  DGT1342    -0.3074
     31  C4        16.6960  -14.0800   -8.9070 C.2   1342  DGT1342     0.2299
@<TRIPOS>BOND
     1    29    28    1
     2    28    30    2
     3    28    27    2
     4    30    31    2
     5    27    25    2
     6    16    20    1
     7    16    15    1
     8    20    21    1
     9    20    19    1
    10    15    14    1
    11    15    17    1
    12    31    21    1
    13    31    24    1
    14    25    24    1
    15    25    26    2
    16    21    22    1
    17    14    13    1
    18    24    23    2
    19    19    17    1
    20    22    23    1
    21    17    18    1
    22    13    10    1
    23    12    10    2
    24    10    11    1
    25    10     9    1
    26     7     6    2
    27     9     6    1
    28     6     8    1
    29     6     5    1
    30     2     1    2
    31     5     1    1
    32     4     1    1
    33     1     3    1
