@<TRIPOS>MOLECULE
2w8l_DGT_A_1.pdb
 31 33 0 0 0
SMALL
GASTEIGER

@<TRIPOS>ATOM
      1  PG        24.0280  -12.3460   -2.5080 P.3   1343  DGT1343     0.5373
      2  O1G       24.5960  -10.9790   -1.8760 O.3   1343  DGT1343    -0.1143
      3  O2G       24.0020  -13.4120   -1.2930 O.3   1343  DGT1343    -0.1143
      4  O3G       24.8420  -12.8210   -3.6510 O.2   1343  DGT1343    -0.2221
      5  O3B       22.4910  -12.0460   -2.8780 O.3   1343  DGT1343    -0.2258
      6  PB        22.0990  -11.5750   -4.3750 P.3   1343  DGT1343     0.2277
      7  O1B       23.1970  -10.8210   -4.9830 O.2   1343  DGT1343    -0.5168
      8  O2B       20.6530  -11.3120   -4.4300 O.3   1343  DGT1343    -0.4368
      9  O3A       22.1990  -13.1020   -4.8900 O.3   1343  DGT1343    -0.2700
     10  PA        22.9220  -13.5420   -6.2600 P.3   1343  DGT1343     0.2189
     11  O1A       22.9150  -15.1490   -6.2250 O.3   1343  DGT1343    -0.4371
     12  O2A       24.3020  -13.0150   -6.4020 O.2   1343  DGT1343    -0.5170
     13  O5'       21.9170  -13.1330   -7.4510 O.3   1343  DGT1343    -0.3112
     14  C5'       21.9280  -11.8540   -8.0880 C.3   1343  DGT1343     0.1812
     15  C4'       20.5430  -11.5880   -8.6900 C.3   1343  DGT1343     0.1772
     16  O4'       20.0420  -12.7550   -9.3580 O.3   1343  DGT1343    -0.3347
     17  C3'       19.5540  -11.4000   -7.5440 C.3   1343  DGT1343     0.1857
     18  O3'       19.6700  -10.0600   -7.0620 O.3   1343  DGT1343    -0.2203
     19  C2'       18.2590  -11.5370   -8.3510 C.3   1343  DGT1343     0.0865
     20  C1'       18.6010  -12.7030   -9.2890 C.3   1343  DGT1343     0.1981
     21  N9        18.0720  -14.0070   -8.7970 N.pl3 1343  DGT1343    -0.2374
     22  C8        18.7220  -14.9180   -8.0710 C.3   1343  DGT1343     0.2245
     23  N7        17.9220  -15.9640   -7.8430 N.2   1343  DGT1343    -0.2322
     24  C5        16.7610  -15.7160   -8.4250 C.2   1343  DGT1343     0.2182
     25  C6        15.5580  -16.4320   -8.5140 C.1   1343  DGT1343     0.2372
     26  O6        15.4440  -17.5220   -7.9660 O.2   1343  DGT1343    -0.2069
     27  N1        14.4880  -15.8640   -9.2090 N.2   1343  DGT1343    -0.2485
     28  C2        14.6400  -14.6120   -9.8140 C.1   1343  DGT1343     0.2531
     29  N2        13.6370  -14.0770  -10.4920 N.pl3 1343  DGT1343    -0.0226
     30  N3        15.8050  -13.9540   -9.7080 N.2   1343  DGT1343    -0.3074
     31  C4        16.8450  -14.4730   -9.0340 C.2   1343  DGT1343     0.2299
@<TRIPOS>BOND
     1    29    28    1
     2    28    30    2
     3    28    27    2
     4    30    31    2
     5    16    20    1
     6    16    15    1
     7    20    21    1
     8    20    19    1
     9    27    25    2
    10    31    21    1
    11    31    24    1
    12    21    22    1
    13    15    14    1
    14    15    17    1
    15    25    24    1
    16    25    26    2
    17    24    23    2
    18    19    17    1
    19    14    13    1
    20    22    23    1
    21    17    18    1
    22    13    10    1
    23    12    10    2
    24    10    11    1
    25    10     9    1
    26     7     6    2
    27     9     6    1
    28     8     6    1
    29     6     5    1
    30     4     1    2
    31     5     1    1
    32     1     2    1
    33     1     3    1
