@<TRIPOS>MOLECULE
2w8r_ADP_A_1.pdb
 27 29 0 0 0
SMALL
GASTEIGER

@<TRIPOS>ATOM
      1  PB        30.7560  -46.2810  -64.8200 P.3   702  ADP702      0.5373
      2  O1B       29.5560  -45.8730  -63.8880 O.3   702  ADP702     -0.1143
      3  O2B       32.0000  -45.6700  -64.2880 O.3   702  ADP702     -0.1143
      4  O3B       30.4610  -45.9960  -66.2370 O.2   702  ADP702     -0.2221
      5  PA        31.7600  -48.9250  -63.9600 P.3   702  ADP702      0.2231
      6  O1A       32.8750  -48.2210  -63.3030 O.3   702  ADP702     -0.4370
      7  O2A       32.1380  -50.0070  -64.9090 O.2   702  ADP702     -0.5169
      8  O3A       30.7910  -47.9100  -64.7500 O.3   702  ADP702     -0.2261
      9  O5'       30.7410  -49.5660  -62.9430 O.3   702  ADP702     -0.3111
     10  C5'       30.1730  -48.7670  -61.8800 C.3   702  ADP702      0.1813
     11  C4'       30.1400  -49.5860  -60.5540 C.3   702  ADP702      0.1821
     12  O4'       30.9720  -50.7480  -60.6930 O.3   702  ADP702     -0.3135
     13  C3'       30.6520  -48.8330  -59.3450 C.3   702  ADP702      0.2184
     14  O3'       29.8800  -49.1760  -58.1850 O.3   702  ADP702     -0.2174
     15  C2'       32.1130  -49.3430  -59.2530 C.3   702  ADP702      0.2570
     16  O2'       32.7970  -49.2290  -58.0360 O.3   702  ADP702     -0.2130
     17  C1'       31.9380  -50.7850  -59.6770 C.3   702  ADP702      0.3186
     18  N9        33.1760  -51.4050  -60.2490 N.pl3 702  ADP702     -0.1439
     19  C8        34.0410  -50.8530  -61.1790 C.3   702  ADP702      0.3377
     20  N7        35.0390  -51.6870  -61.4650 N.2   702  ADP702     -0.2095
     21  C5        34.8000  -52.8240  -60.6830 C.2   702  ADP702      0.2526
     22  C6        35.4970  -54.0450  -60.5470 C.2   702  ADP702      0.4393
     23  N6        36.5870  -54.3540  -61.1830 N.pl3 702  ADP702      0.2180
     24  N1        34.9260  -54.9220  -59.6600 N.2   702  ADP702      0.0021
     25  C2        33.7940  -54.6570  -58.9710 C.3   702  ADP702      0.5254
     26  N3        33.0720  -53.5250  -59.0430 N.2   702  ADP702     -0.0055
     27  C4        33.6560  -52.6840  -59.9200 C.2   702  ADP702      0.3518
@<TRIPOS>BOND
     1     4     1    2
     2     7     5    2
     3     1     8    1
     4     1     3    1
     5     1     2    1
     6     8     5    1
     7     5     6    1
     8     5     9    1
     9     9    10    1
    10    10    11    1
    11    20    19    1
    12    20    21    2
    13    23    22    1
    14    19    18    1
    15    12    11    1
    16    12    17    1
    17    21    22    1
    18    21    27    1
    19    11    13    1
    20    22    24    2
    21    18    27    1
    22    18    17    1
    23    27    26    2
    24    17    15    1
    25    24    25    1
    26    13    15    1
    27    13    14    1
    28    15    16    1
    29    26    25    1
