@<TRIPOS>MOLECULE
2w8w_PLS_A_1.pdb
 22 22 0 0 0
SMALL
GASTEIGER

@<TRIPOS>ATOM
      1  N         30.4010   15.7950   11.7780 N.2   1420  PLS1420    -0.2567
      2  CA        31.4670   16.4680   11.0170 C.3   1420  PLS1420     0.2384
      3  CB        32.4630   17.2110   11.9080 C.3   1420  PLS1420     0.2178
      4  OG        31.8260   18.2140   12.7020 O.3   1420  PLS1420    -0.2176
      5  C         32.2420   15.4390   10.2320 C.2   1420  PLS1420     0.3893
      6  O         32.1840   14.2430   10.5860 O.co2 1420  PLS1420    -0.2434
      7  OXT       32.9180   15.7980    9.2470 O.co2 1420  PLS1420    -0.2434
      8  N1        27.1290   13.4640   14.8200 N.ar  1420  PLS1420    -0.2452
      9  C2        27.1020   13.7010   13.4910 C.ar  1420  PLS1420     0.0981
     10  C2A       25.9280   13.2390   12.6600 C.3   1420  PLS1420     0.0555
     11  C3        28.1540   14.3740   12.8940 C.ar  1420  PLS1420     0.2103
     12  O3        28.0900   14.5990   11.5570 O.3   1420  PLS1420    -0.2853
     13  C4        29.2440   14.8060   13.6530 C.ar  1420  PLS1420     0.0587
     14  C4A       30.3890   15.5290   13.0190 C.2   1420  PLS1420     0.0968
     15  C5        29.2370   14.5360   15.0230 C.ar  1420  PLS1420     0.0316
     16  C6        28.1600   13.8570   15.5860 C.ar  1420  PLS1420     0.0968
     17  C5A       30.3710   14.9460   15.9380 C.3   1420  PLS1420     0.1819
     18  O4P       30.3460   16.3450   16.1540 O.3   1420  PLS1420    -0.2653
     19  P         31.6740   17.2000   16.4640 P.3   1420  PLS1420     0.5329
     20  O1P       32.4880   16.4530   17.4800 O.3   1420  PLS1420    -0.1145
     21  O2P       32.3340   17.3870   15.1270 O.2   1420  PLS1420    -0.2224
     22  O3P       31.0460   18.4700   17.0060 O.3   1420  PLS1420    -0.1145
@<TRIPOS>BOND
     1     7     5   ar
     2     5     6   ar
     3     5     2    1
     4     2     1    1
     5     2     3    1
     6    12    11    1
     7     1    14    2
     8     3     4    1
     9    10     9    1
    10    11     9   ar
    11    11    13   ar
    12    14    13    1
    13     9     8   ar
    14    13    15   ar
    15     8    16   ar
    16    15    16   ar
    17    15    17    1
    18    21    19    2
    19    17    18    1
    20    18    19    1
    21    19    22    1
    22    19    20    1
