@<TRIPOS>MOLECULE
2w8y_NDR_B_1.pdb
 22 25 0 0 0
SMALL
GASTEIGER

@<TRIPOS>ATOM
      1  O22        3.9160   11.1760  -30.7880 O.2   1000  NDR1000    -0.2914
      2  C21        3.5020   11.9690  -29.9680 C.2   1000  NDR1000     0.1725
      3  C20        4.2060   13.2940  -29.7540 C.3   1000  NDR1000     0.0695
      4  C19        2.3350   11.6550  -29.1370 C.2   1000  NDR1000     0.0290
      5  C17        1.9410   12.4900  -28.1820 C.2   1000  NDR1000    -0.0417
      6  C15        0.6200   12.1800  -27.5070 C.3   1000  NDR1000     0.0221
      7  C14        2.7000   13.7270  -27.7990 C.3   1000  NDR1000     0.0188
      8  C18        4.1350   13.6940  -28.2930 C.3   1000  NDR1000     0.0121
      9  C8         2.7230   13.9080  -26.2680 C.3   1000  NDR1000     0.0037
     10  C3         1.2970   13.7930  -25.7060 C.3   1000  NDR1000     0.0007
     11  C9         0.7550   12.4000  -26.0100 C.3   1000  NDR1000     0.0044
     12  C13        3.3640   15.2330  -25.8450 C.3   1000  NDR1000     0.0004
     13  C6         3.3740   15.3900  -24.3090 C.3   1000  NDR1000     0.0033
     14  C2         1.9640   15.2830  -23.7560 C.3   1000  NDR1000     0.0366
     15  C1         1.3930   13.9030  -24.1920 C.3   1000  NDR1000     0.0034
     16  C7         1.1510   16.4600  -24.3280 C.3   1000  NDR1000     0.0034
     17  C5         1.7840   15.1650  -22.2230 C.3   1000  NDR1000     0.1797
     18  O12        1.7960   16.4250  -21.5790 O.3   1000  NDR1000    -0.2124
     19  C10        0.3690   14.5570  -22.0730 C.3   1000  NDR1000     0.0430
     20  C4         0.0590   13.8670  -23.4270 C.3   1000  NDR1000     0.0037
     21  C11        2.7870   14.2820  -21.5880 C.1   1000  NDR1000    -0.0491
     22  C16        3.5620   13.5480  -21.0720 C.1   1000  NDR1000    -0.0117
@<TRIPOS>BOND
     1     1     2    2
     2     2     3    1
     3     2     4    1
     4     3     8    1
     5     4     5    2
     6     8     7    1
     7     5     7    1
     8     5     6    1
     9     7     9    1
    10     6    11    1
    11     9    12    1
    12     9    10    1
    13    11    10    1
    14    12    13    1
    15    10    15    1
    16    16    14    1
    17    13    14    1
    18    15    14    1
    19    15    20    1
    20    14    17    1
    21    20    19    1
    22    17    19    1
    23    17    21    1
    24    17    18    1
    25    21    22    3
