@<TRIPOS>MOLECULE
2w8y_486_A_1.pdb
 32 36 0 0 0
SMALL
GASTEIGER

@<TRIPOS>ATOM
      1  O30       13.5700    7.3990    2.9280 O.2   1000  4861000    -0.2913
      2  C2        13.0500    6.7680    3.8260 C.2   1000  4861000     0.1731
      3  C1        11.5590    6.8400    3.9510 C.3   1000  4861000     0.0738
      4  C3        13.8510    6.0290    4.7120 C.2   1000  4861000     0.0329
      5  C4        13.3270    5.4180    5.7940 C.2   1000  4861000    -0.0239
      6  C7        14.2400    4.5480    6.6190 C.3   1000  4861000     0.0264
      7  C5        11.9040    5.5750    6.1810 C.2   1000  4861000    -0.0332
      8  C6        10.9900    6.4020    5.2970 C.3   1000  4861000     0.0335
      9  C10       11.4250    5.0620    7.3410 C.2   1000  4861000    -0.0450
     10  C14        9.9510    5.2980    7.7360 C.3   1000  4861000     0.0403
     11  C18        8.9960    4.3080    7.0470 C.ar  1000  4861000    -0.0187
     12  C22        9.4150    3.3370    6.1400 C.ar  1000  4861000    -0.0027
     13  C23        8.5020    2.4920    5.5140 C.ar  1000  4861000     0.0142
     14  C24        7.1330    2.5810    5.7760 C.ar  1000  4861000     0.0479
     15  N27        6.2080    1.7330    5.1350 N.pl3 1000  4861000    -0.3041
     16  C29        6.5760    0.4340    4.5630 C.3   1000  4861000     0.1122
     17  C28        4.9060    2.2840    4.7370 C.3   1000  4861000     0.1122
     18  C25        6.7050    3.5560    6.6660 C.ar  1000  4861000     0.0142
     19  C26        7.6300    4.4050    7.2770 C.ar  1000  4861000    -0.0027
     20  C13        9.7350    5.4050    9.2750 C.3   1000  4861000     0.0117
     21  C12       10.4890    4.3300   10.0310 C.3   1000  4861000     0.0374
     22  C19       10.0060    2.9410    9.5910 C.3   1000  4861000     0.0035
     23  C17       10.5030    4.4320   11.5660 C.3   1000  4861000     0.1788
     24  C31       10.7170    5.7960   12.0840 C.1   1000  4861000    -0.0622
     25  C30       10.9420    6.8570   12.5160 C.1   1000  4861000    -0.0877
     26  C32       11.2490    8.1660   13.1150 C.3   1000  4861000     0.0900
     27  O3         9.3380    3.8990   12.1630 O.3   1000  4861000    -0.2125
     28  C16       11.7210    3.5760   11.9630 C.3   1000  4861000     0.0430
     29  C15       12.6580    3.5960   10.7300 C.3   1000  4861000     0.0040
     30  C11       11.9900    4.5410    9.7220 C.3   1000  4861000     0.0071
     31  C9        12.3190    4.2570    8.2550 C.3   1000  4861000     0.0187
     32  C8        13.7880    4.5820    8.0740 C.3   1000  4861000     0.0087
@<TRIPOS>BOND
     1     1     2    2
     2     2     3    1
     3     2     4    1
     4     3     8    1
     5    16    15    1
     6     4     5    2
     7    17    15    1
     8    15    14    1
     9     8     7    1
    10    13    14   ar
    11    13    12   ar
    12    14    18   ar
    13     5     7    1
    14     5     6    1
    15    12    11   ar
    16     7     9    2
    17     6    32    1
    18    18    19   ar
    19    11    19   ar
    20    11    10    1
    21     9    10    1
    22     9    31    1
    23    10    20    1
    24    32    31    1
    25    31    30    1
    26    20    21    1
    27    22    21    1
    28    30    21    1
    29    30    29    1
    30    21    23    1
    31    29    28    1
    32    23    28    1
    33    23    24    1
    34    23    27    1
    35    24    25    3
    36    25    26    1
