@<TRIPOS>MOLECULE
2w8z_6PG_A_1.pdb
 17 16 0 0 0
SMALL
GASTEIGER

@<TRIPOS>ATOM
      1  C1        12.8030    7.4820  -35.0530 C.2   1470  6PG1470     0.3973
      2  C2        11.5230    8.1400  -34.5860 C.3   1470  6PG1470     0.2865
      3  C3        11.3460    9.6500  -34.9270 C.3   1470  6PG1470     0.2260
      4  C4        11.8990   10.3180  -36.2340 C.3   1470  6PG1470     0.2179
      5  C5        13.2560   11.0580  -36.1310 C.3   1470  6PG1470     0.2147
      6  C6        13.4830   12.0070  -37.3190 C.3   1470  6PG1470     0.1892
      7  O1A       12.7470    6.5820  -35.9220 O.co2 1470  6PG1470    -0.2427
      8  O1        13.8830    7.8400  -34.5300 O.co2 1470  6PG1470    -0.2427
      9  O2        10.3540    7.3890  -34.9690 O.3   1470  6PG1470    -0.2080
     10  O3        11.7610   10.3920  -33.7650 O.3   1470  6PG1470    -0.2169
     11  O4        11.8840    9.4680  -37.4010 O.3   1470  6PG1470    -0.2175
     12  O5        13.3530   11.7960  -34.9040 O.3   1470  6PG1470    -0.2176
     13  O6        13.4010   13.3960  -36.9540 O.3   1470  6PG1470    -0.2674
     14  P         13.4130   14.6020  -38.0440 P.3   1470  6PG1470     0.5327
     15  O1P       12.0150   14.5380  -38.6060 O.3   1470  6PG1470    -0.1145
     16  O2P       14.5340   14.3410  -39.0240 O.2   1470  6PG1470    -0.2224
     17  O3P       13.6580   15.8440  -37.2380 O.3   1470  6PG1470    -0.1145
@<TRIPOS>BOND
     1    16    14    2
     2    15    14    1
     3    14    17    1
     4    14    13    1
     5    11     4    1
     6     6    13    1
     7     6     5    1
     8     4     5    1
     9     4     3    1
    10     5    12    1
    11     7     1   ar
    12     1     2    1
    13     1     8   ar
    14     9     2    1
    15     3     2    1
    16     3    10    1
