@<TRIPOS>MOLECULE
2w90_6PG_A_1.pdb
 17 16 0 0 0
SMALL
GASTEIGER

@<TRIPOS>ATOM
      1  C1        20.3800    7.0390   34.2680 C.2   500  6PG500      0.3973
      2  C2        21.2620    8.2620   34.3010 C.3   500  6PG500      0.2865
      3  C3        21.3390    8.7650   35.7350 C.3   500  6PG500      0.2260
      4  C4        20.0340    9.4800   36.1290 C.3   500  6PG500      0.2179
      5  C5        20.0400   10.9900   35.8860 C.3   500  6PG500      0.2147
      6  C6        20.6260   11.7370   37.0670 C.3   500  6PG500      0.1892
      7  O1A       19.4770    6.9680   33.4030 O.co2 500  6PG500     -0.2427
      8  O1        20.5640    6.1440   35.1260 O.co2 500  6PG500     -0.2427
      9  O2        22.5800    7.9780   33.8270 O.3   500  6PG500     -0.2080
     10  O3        22.5040    9.5860   35.8930 O.3   500  6PG500     -0.2169
     11  O4        18.9320    8.8960   35.4120 O.3   500  6PG500     -0.2175
     12  O5        20.7970   11.3440   34.7250 O.3   500  6PG500     -0.2176
     13  O6        20.6760   13.1160   36.7450 O.3   500  6PG500     -0.2674
     14  P         20.3680   14.1670   37.9110 P.3   500  6PG500      0.5327
     15  O1P       20.6550   15.4850   37.2420 O.2   500  6PG500     -0.2224
     16  O2P       21.3330   13.7920   39.0100 O.3   500  6PG500     -0.1145
     17  O3P       18.9310   13.9260   38.2760 O.3   500  6PG500     -0.1145
@<TRIPOS>BOND
     1     7     1   ar
     2     9     2    1
     3     1     2    1
     4     1     8   ar
     5     2     3    1
     6    12     5    1
     7    11     4    1
     8     3    10    1
     9     3     4    1
    10     5     4    1
    11     5     6    1
    12    13     6    1
    13    13    14    1
    14    15    14    2
    15    14    17    1
    16    14    16    1
