@<TRIPOS>MOLECULE
2w92_NGT_A_1.pdb
 14 15 0 0 0
SMALL
GASTEIGER

@<TRIPOS>ATOM
      1  C1        -3.5930   -5.1300  -24.9050 C.3   1809  NGT1809     0.1925
      2  C2        -3.5530   -3.5850  -25.0090 C.3   1809  NGT1809     0.1740
      3  C3        -4.1310   -3.0880  -26.3500 C.3   1809  NGT1809     0.2101
      4  C4        -3.5890   -3.9000  -27.5240 C.3   1809  NGT1809     0.2137
      5  C5        -3.9280   -5.3660  -27.3010 C.3   1809  NGT1809     0.1820
      6  C6        -3.3600   -6.1950  -28.4820 C.3   1809  NGT1809     0.2142
      7  C7        -5.4020   -3.9510  -23.5280 C.2   1809  NGT1809     0.0815
      8  C8        -6.4310   -3.6440  -22.4350 C.3   1809  NGT1809     0.0587
      9  N2        -4.4340   -3.1120  -23.9240 N.2   1809  NGT1809    -0.2643
     10  S1        -5.3090   -5.4400  -24.3970 S.3   1809  NGT1809    -0.0689
     11  O3        -3.8480   -1.7070  -26.5770 O.3   1809  NGT1809    -0.2181
     12  O4        -4.2010   -3.4550  -28.7290 O.3   1809  NGT1809    -0.2176
     13  O5        -3.3470   -5.8510  -26.0870 O.3   1809  NGT1809    -0.3400
     14  O6        -3.8540   -7.5290  -28.4060 O.3   1809  NGT1809    -0.2176
@<TRIPOS>BOND
     1    12     4    1
     2     6    14    1
     3     6     5    1
     4     4     5    1
     5     4     3    1
     6     5    13    1
     7    11     3    1
     8     3     2    1
     9    13     1    1
    10     2     1    1
    11     2     9    1
    12     1    10    1
    13    10     7    1
    14     9     7    2
    15     7     8    1
