@<TRIPOS>MOLECULE
2w93_TPP_A_1.pdb
 26 27 0 0 0
SMALL
GASTEIGER

@<TRIPOS>ATOM
      1  N1'        7.0050    0.5690   29.6570 N.2   600  TPP600     -0.1861
      2  C2'        5.9510   -0.2520   29.3830 C.1   600  TPP600      0.0663
      3  CM2        4.6440    0.3160   28.9130 C.3   600  TPP600      0.1291
      4  N3'        6.0840   -1.5970   29.4910 N.2   600  TPP600     -0.3368
      5  C4'        7.2800   -2.1360   29.9180 C.2   600  TPP600      0.2292
      6  N4'        7.3250   -3.4600   29.9990 N.pl3 600  TPP600     -0.0925
      7  C5'        8.3500   -1.2990   30.2600 C.2   600  TPP600      0.0654
      8  C6'        8.2190    0.0700   30.1240 C.2   600  TPP600      0.1115
      9  C7'        9.6470   -1.8740   30.7780 C.3   600  TPP600      0.1237
     10  N3         9.5360   -2.4680   32.1370 N.pl3 600  TPP600     -0.2970
     11  C2         9.4370   -3.8330   32.4100 C.3   600  TPP600      0.1543
     12  S1         9.3920   -4.2080   33.9910 S.3   600  TPP600     -0.0951
     13  C5         9.5200   -2.6520   34.4110 C.2   600  TPP600      0.0164
     14  C4         9.6350   -1.8020   33.3330 C.2   600  TPP600      0.0279
     15  CM4        9.8060   -0.3110   33.4960 C.3   600  TPP600      0.0473
     16  C6         9.6090   -2.2890   35.8830 C.3   600  TPP600      0.0661
     17  C7         8.4060   -2.7290   36.7080 C.3   600  TPP600      0.1544
     18  O7         8.5840   -2.2790   38.0390 O.3   600  TPP600     -0.3134
     19  PA         7.6120   -2.7010   39.2310 P.3   600  TPP600      0.2230
     20  O1A        7.8490   -1.8350   40.4210 O.3   600  TPP600     -0.4370
     21  O2A        6.1600   -2.5810   38.7250 O.2   600  TPP600     -0.5169
     22  O3A        7.8740   -4.2680   39.4790 O.3   600  TPP600     -0.2261
     23  PB         8.9450   -4.9390   40.4910 P.3   600  TPP600      0.5373
     24  O1B        8.0890   -5.7620   41.4210 O.3   600  TPP600     -0.1143
     25  O2B        9.8490   -5.7410   39.5980 O.2   600  TPP600     -0.2221
     26  O3B        9.6300   -3.8120   41.2110 O.3   600  TPP600     -0.1143
@<TRIPOS>BOND
     1     3     2    1
     2     2     4    2
     3     2     1    2
     4     4     5    2
     5     1     8    1
     6     5     6    1
     7     5     7    1
     8     8     7    2
     9     7     9    1
    10     9    10    1
    11    10    11    1
    12    10    14    1
    13    11    12    1
    14    14    15    1
    15    14    13    2
    16    12    13    1
    17    13    16    1
    18    16    17    1
    19    17    18    1
    20    18    19    1
    21    21    19    2
    22    19    22    1
    23    19    20    1
    24    22    23    1
    25    25    23    2
    26    23    26    1
    27    23    24    1
