@<TRIPOS>MOLECULE
2w95_NGA_A_1.pdb
 15 15 0 0 0
SMALL
GASTEIGER

@<TRIPOS>ATOM
      1  C1         4.3350  -82.3560  -16.5950 C.3   254  NGA254      0.2917
      2  C2         4.4450  -81.1330  -15.6920 C.3   254  NGA254      0.1871
      3  C3         5.1710  -80.0130  -16.4420 C.3   254  NGA254      0.2095
      4  C4         6.4980  -80.4930  -17.0320 C.3   254  NGA254      0.2136
      5  C5         6.2650  -81.7460  -17.8850 C.3   254  NGA254      0.1835
      6  C6         7.5750  -82.3120  -18.4110 C.3   254  NGA254      0.2142
      7  C7         2.5740  -81.0360  -14.0940 C.2   254  NGA254      0.2421
      8  C8         1.1550  -80.5800  -13.9380 C.3   254  NGA254      0.0964
      9  N2         3.1210  -80.7210  -15.2660 N.am  254  NGA254     -0.1991
     10  O1         3.7910  -83.3990  -15.7820 O.3   254  NGA254     -0.1879
     11  O3         5.4030  -78.9470  -15.5170 O.3   254  NGA254     -0.2183
     12  O4         7.4140  -80.7910  -15.9630 O.3   254  NGA254     -0.2176
     13  O5         5.6310  -82.7220  -17.0600 O.3   254  NGA254     -0.3242
     14  O6         7.3310  -83.3090  -19.4160 O.3   254  NGA254     -0.2176
     15  O7         3.1290  -81.6280  -13.1830 O.2   254  NGA254     -0.2733
@<TRIPOS>BOND
     1    14     6    1
     2     6     5    1
     3     5    13    1
     4     5     4    1
     5    13     1    1
     6     4     3    1
     7     4    12    1
     8     1    10    1
     9     1     2    1
    10     3     2    1
    11     3    11    1
    12     2     9    1
    13     9     7   am
    14     7     8    1
    15     7    15    2
