@<TRIPOS>MOLECULE
2w97_MGO_A_1.pdb
 33 35 0 0 0
SMALL
GASTEIGER

@<TRIPOS>ATOM
      1  OAJ       28.9100    8.6220    9.0460 O.3   1218  MGO1218    -0.1143
      2  PBE       28.1320    7.2580    8.7570 P.3   1218  MGO1218     0.5373
      3  OAD       28.9250    6.2000    9.7100 O.3   1218  MGO1218    -0.1143
      4  OAI       28.2150    6.8770    7.3180 O.2   1218  MGO1218    -0.2221
      5  OAS       26.6360    7.4100    9.4170 O.3   1218  MGO1218    -0.2258
      6  PBG       25.2210    7.0190    8.7170 P.3   1218  MGO1218     0.2277
      7  OAL       24.2370    6.9780    9.9080 O.3   1218  MGO1218    -0.4368
      8  OAF       24.8680    8.0560    7.7300 O.2   1218  MGO1218    -0.5168
      9  OAT       25.3050    5.5690    8.0080 O.3   1218  MGO1218    -0.2700
     10  PBF       24.8760    4.0820    8.6130 P.3   1218  MGO1218     0.2189
     11  OAK       25.0570    3.1400    7.3140 O.2   1218  MGO1218    -0.5170
     12  OAE       23.5400    4.0520    9.2090 O.3   1218  MGO1218    -0.4371
     13  O5'       26.0740    3.7210    9.6500 O.3   1218  MGO1218    -0.3112
     14  C5'       26.0520    4.2670   11.0000 C.3   1218  MGO1218     0.1813
     15  C4'       26.7400    3.3180   11.9590 C.3   1218  MGO1218     0.1799
     16  O4'       25.9010    2.1590   12.1790 O.3   1218  MGO1218    -0.3326
     17  C3'       27.9960    2.7300   11.2990 C.3   1218  MGO1218     0.2158
     18  O3'       29.0880    3.6590   11.3780 O.3   1218  MGO1218    -0.2175
     19  C2'       28.2070    1.4980   12.1510 C.3   1218  MGO1218     0.2309
     20  O2'       28.6500    1.8370   13.4830 O.3   1218  MGO1218    -0.2158
     21  C1'       26.7630    0.9960   12.2290 C.3   1218  MGO1218     0.2271
     22  NBC       26.4700    0.0760   11.1100 N.pl3 1218  MGO1218    -0.2678
     23  CAN       25.9440    0.3640    9.9140 C.3   1218  MGO1218     0.1908
     24  NBD       25.8360   -0.7740    9.2260 N.pl3 1218  MGO1218    -0.2784
     25  CAA       25.3050   -0.8510    7.8520 C.3   1218  MGO1218     0.1145
     26  CAX       26.2790   -1.8080    9.9670 C.2   1218  MGO1218     0.1553
     27  CAW       26.6790   -1.2430   11.1800 C.2   1218  MGO1218     0.0624
     28  CAM       27.1990   -2.0240   12.2060 C.3   1218  MGO1218     0.1221
     29  CAU       27.3360   -3.3840   12.0230 C.2   1218  MGO1218     0.2152
     30  NAB       27.8260   -4.1190   12.9910 N.pl3 1218  MGO1218    -0.0966
     31  NAP       26.9440   -3.9750   10.8160 N.2   1218  MGO1218    -0.3176
     32  CAV       26.4050   -3.1960    9.7790 C.1   1218  MGO1218     0.2205
     33  OAC       26.0610   -3.7520    8.7310 O.2   1218  MGO1218    -0.2080
@<TRIPOS>BOND
     1    11    10    2
     2     4     2    2
     3     8     6    2
     4    25    24    1
     5     9    10    1
     6     9     6    1
     7    10    12    1
     8    10    13    1
     9     6     5    1
    10     6     7    1
    11    33    32    2
    12     2     1    1
    13     2     5    1
    14     2     3    1
    15    24    23    1
    16    24    26    1
    17    13    14    1
    18    32    26    1
    19    32    31    2
    20    23    22    1
    21    26    27    2
    22    31    29    2
    23    14    15    1
    24    22    27    1
    25    22    21    1
    26    27    28    1
    27    17    18    1
    28    17    15    1
    29    17    19    1
    30    15    16    1
    31    29    28    1
    32    29    30    1
    33    19    21    1
    34    19    20    1
    35    16    21    1
