@<TRIPOS>MOLECULE
2w98_NAP_A_1.pdb
 48 52 0 0 0
SMALL
GASTEIGER

@<TRIPOS>ATOM
      1  PA        11.1400  -10.4950   27.6350 P.3   1350  NAP1350     0.2189
      2  O1A       11.3360  -10.0720   29.0830 O.3   1350  NAP1350    -0.4371
      3  O2A       10.2170   -9.6210   26.8360 O.2   1350  NAP1350    -0.5170
      4  O5B       10.6450  -11.9300   27.6910 O.3   1350  NAP1350    -0.3112
      5  C5B       10.0200  -12.4740   26.5330 C.3   1350  NAP1350     0.1813
      6  C4B        8.5080  -12.2210   26.5530 C.3   1350  NAP1350     0.1820
      7  O4B        8.1230  -12.5520   25.1560 O.3   1350  NAP1350    -0.3136
      8  C3B        7.7170  -13.1980   27.3860 C.3   1350  NAP1350     0.2157
      9  O3B        7.5130  -12.7410   28.7630 O.3   1350  NAP1350    -0.2175
     10  C2B        6.3540  -13.2070   26.6470 C.3   1350  NAP1350     0.2314
     11  O2B        5.4440  -12.2770   27.2350 O.3   1350  NAP1350    -0.2630
     12  C1B        6.7120  -12.7650   25.2230 C.3   1350  NAP1350     0.3158
     13  N9A        6.4330  -13.8740   24.2410 N.pl3 1350  NAP1350    -0.1439
     14  C8A        6.9100  -15.1390   24.2400 C.3   1350  NAP1350     0.3377
     15  N7A        6.4130  -15.7970   23.1760 N.2   1350  NAP1350    -0.2095
     16  C5A        5.5930  -14.9630   22.5170 C.2   1350  NAP1350     0.2526
     17  C6A        4.7970  -15.0940   21.3610 C.2   1350  NAP1350     0.4393
     18  N6A        4.7660  -16.2390   20.6960 N.pl3 1350  NAP1350     0.2180
     19  N1A        4.0990  -14.0410   20.9480 N.2   1350  NAP1350     0.0021
     20  C2A        4.1260  -12.8840   21.6220 C.3   1350  NAP1350     0.5254
     21  N3A        4.8630  -12.7190   22.7290 N.2   1350  NAP1350    -0.0055
     22  C4A        5.6150  -13.7440   23.1820 C.2   1350  NAP1350     0.3518
     23  O3        12.5160  -10.6290   26.8980 O.3   1350  NAP1350    -0.2703
     24  PN        13.5720   -9.4840   26.5450 P.3   1350  NAP1350     0.2189
     25  O1N       12.9940   -8.1690   26.8660 O.2   1350  NAP1350    -0.5170
     26  O2N       14.9200   -9.8280   27.0240 O.3   1350  NAP1350    -0.4371
     27  O5D       13.7080   -9.5640   24.9280 O.3   1350  NAP1350    -0.3112
     28  C5D       12.6050   -8.9760   24.1710 C.3   1350  NAP1350     0.1813
     29  C4D       12.8890   -9.0400   22.6780 C.3   1350  NAP1350     0.1799
     30  O4D       13.9670   -8.1610   22.4710 O.3   1350  NAP1350    -0.3327
     31  C3D       13.3130  -10.3950   22.1040 C.3   1350  NAP1350     0.2158
     32  O3D       12.7700  -10.5590   20.7600 O.3   1350  NAP1350    -0.2175
     33  C2D       14.7940  -10.2430   21.9950 C.3   1350  NAP1350     0.2309
     34  O2D       15.3890  -11.0590   20.9790 O.3   1350  NAP1350    -0.2158
     35  C1D       14.9030   -8.7610   21.6210 C.3   1350  NAP1350     0.2263
     36  N1N       16.1730   -8.0910   21.9360 N.pl3 1350  NAP1350    -0.2787
     37  C2N       16.9360   -7.5240   20.9570 C.3   1350  NAP1350     0.1244
     38  C3N       18.1220   -6.8760   21.1730 C.2   1350  NAP1350     0.0544
     39  C7N       18.8380   -6.2670   20.0270 C.2   1350  NAP1350     0.2818
     40  O7N       20.0550   -5.7600   20.1790 O.2   1350  NAP1350    -0.2670
     41  N7N       18.1510   -6.1040   18.8820 N.am  1350  NAP1350    -0.0839
     42  C4N       18.6030   -6.7780   22.4770 C.2   1350  NAP1350     0.0033
     43  C5N       17.8380   -7.3390   23.4670 C.2   1350  NAP1350     0.0157
     44  C6N       16.6380   -8.0070   23.2710 C.2   1350  NAP1350     0.0633
     45  P2B        3.7870  -12.3400   26.8900 P.3   1350  NAP1350     0.5328
     46  O1X        3.0910  -12.7540   28.1880 O.3   1350  NAP1350    -0.1145
     47  O2X        3.4570  -10.8280   26.6640 O.3   1350  NAP1350    -0.1145
     48  O3X        3.6680  -13.2380   25.7180 O.2   1350  NAP1350    -0.2224
@<TRIPOS>BOND
     1    41    39   am
     2    39    40    2
     3    39    38    1
     4    18    17    1
     5    32    31    1
     6    19    17    2
     7    19    20    1
     8    37    38    1
     9    37    36    1
    10    34    33    1
    11    38    42    2
    12    17    16    1
    13    35    36    1
    14    35    33    1
    15    35    30    1
    16    20    21    1
    17    36    44    1
    18    33    31    1
    19    31    29    1
    20    30    29    1
    21    42    43    1
    22    16    15    2
    23    16    22    1
    24    29    28    1
    25    21    22    2
    26    15    14    1
    27    22    13    1
    28    44    43    2
    29    28    27    1
    30    14    13    1
    31    13    12    1
    32    27    24    1
    33     7    12    1
    34     7     6    1
    35    12    10    1
    36    48    45    2
    37     5     6    1
    38     5     4    1
    39    24    25    2
    40    24    23    1
    41    24    26    1
    42     6     8    1
    43    10    11    1
    44    10     8    1
    45    47    45    1
    46     3     1    2
    47    45    11    1
    48    45    46    1
    49    23     1    1
    50     8     9    1
    51     1     4    1
    52     1     2    1
