@<TRIPOS>MOLECULE
2w98_P1Z_A_1.pdb
 23 25 0 0 0
SMALL
GASTEIGER

@<TRIPOS>ATOM
      1  C16       24.3880   -8.8260   19.3580 C.ar  1351  P1Z1351     0.0013
      2  C17       23.0080   -8.5560   19.3470 C.ar  1351  P1Z1351     0.0166
      3  C12       22.1320   -9.5110   19.8630 C.ar  1351  P1Z1351     0.0734
      4  C13       22.6740  -10.7320   20.3470 C.ar  1351  P1Z1351     0.0166
      5  C14       24.0470  -11.0010   20.3660 C.ar  1351  P1Z1351     0.0013
      6  C15       24.9020  -10.0310   19.8600 C.ar  1351  P1Z1351     0.0001
      7  C8        20.5660   -9.7500   24.6510 C.ar  1351  P1Z1351     0.0013
      8  C9        21.3740   -8.6330   24.7530 C.ar  1351  P1Z1351     0.0001
      9  C10       21.7910   -7.9530   23.6120 C.ar  1351  P1Z1351     0.0013
     10  C11       21.3810   -8.4310   22.3490 C.ar  1351  P1Z1351     0.0166
     11  C6        20.6110   -9.5920   22.2210 C.ar  1351  P1Z1351     0.0734
     12  C7        20.1870  -10.2090   23.3860 C.ar  1351  P1Z1351     0.0166
     13  C21       18.7180  -13.2870   16.8740 C.3   1351  P1Z1351     0.0000
     14  C20       18.1220  -12.5570   18.0800 C.3   1351  P1Z1351     0.0000
     15  C19       17.4070  -11.3160   17.5990 C.3   1351  P1Z1351     0.0010
     16  C18       17.5450  -10.0790   18.4380 C.3   1351  P1Z1351     0.0185
     17  N2        20.8130   -9.5230   19.9260 N.am  1351  P1Z1351    -0.1788
     18  C3        20.0860   -9.6270   18.7570 C.2   1351  P1Z1351     0.2539
     19  C4        18.8500  -10.2810   19.1720 C.3   1351  P1Z1351     0.1566
     20  C5        18.8840  -10.1670   20.6710 C.2   1351  P1Z1351     0.2539
     21  N1        20.2030   -9.9330   20.9580 N.am  1351  P1Z1351    -0.1788
     22  O3        20.5280   -9.5630   17.5910 O.2   1351  P1Z1351    -0.2725
     23  O5        17.9630  -10.5810   21.3850 O.2   1351  P1Z1351    -0.2725
@<TRIPOS>BOND
     1    13    14    1
     2    22    18    2
     3    15    14    1
     4    15    16    1
     5    16    19    1
     6    18    19    1
     7    18    17   am
     8    19    20    1
     9     2     1   ar
    10     2     3   ar
    11     1     6   ar
    12     6     5   ar
    13     3    17    1
    14     3     4   ar
    15    17    21    1
    16     4     5   ar
    17    20    21   am
    18    20    23    2
    19    21    11    1
    20    11    10   ar
    21    11    12   ar
    22    10     9   ar
    23    12     7   ar
    24     9     8   ar
    25     7     8   ar
