@<TRIPOS>MOLECULE
2w9a_DGT_A_1.pdb
 31 33 0 0 0
SMALL
GASTEIGER

@<TRIPOS>ATOM
      1  PG        23.5130   39.9450    2.4810 P.3   594  DGT594      0.5373
      2  O1G       23.1230   41.1160    1.4590 O.2   594  DGT594     -0.2221
      3  O2G       23.7380   38.6570    1.5500 O.3   594  DGT594     -0.1143
      4  O3G       22.4760   39.6870    3.5010 O.3   594  DGT594     -0.1143
      5  O3B       24.9520   40.3200    3.0990 O.3   594  DGT594     -0.2258
      6  PB        25.1140   40.3610    4.7010 P.3   594  DGT594      0.2277
      7  O1B       23.9930   41.1030    5.3170 O.3   594  DGT594     -0.4368
      8  O2B       26.5210   40.6510    5.0620 O.2   594  DGT594     -0.5168
      9  O3A       24.9180   38.7850    4.9930 O.3   594  DGT594     -0.2700
     10  PA        24.5860   38.1710    6.4420 P.3   594  DGT594      0.2189
     11  O1A       25.0150   36.6310    6.2890 O.2   594  DGT594     -0.5170
     12  O2A       23.1760   38.3320    6.8520 O.3   594  DGT594     -0.4371
     13  O5'       25.6290   38.7550    7.5130 O.3   594  DGT594     -0.3112
     14  C5'       25.3390   39.8940    8.3230 C.3   594  DGT594      0.1812
     15  C4'       26.6880   40.4380    8.7840 C.3   594  DGT594      0.1772
     16  O4'       27.4040   39.3090    9.2870 O.3   594  DGT594     -0.3347
     17  C3'       27.3800   40.7810    7.4660 C.3   594  DGT594      0.1857
     18  O3'       27.3100   42.1890    7.2380 O.3   594  DGT594     -0.2203
     19  C2'       28.8380   40.3950    7.6970 C.3   594  DGT594      0.0865
     20  C1'       28.7810   39.5180    8.9500 C.3   594  DGT594      0.1981
     21  N9        29.4170   38.2040    8.7300 N.pl3 594  DGT594     -0.2374
     22  C8        28.8880   37.1270    8.1430 C.3   594  DGT594      0.2245
     23  N7        29.7710   36.1340    8.1670 N.2   594  DGT594     -0.2322
     24  C5        30.8710   36.5780    8.7720 C.2   594  DGT594      0.2182
     25  C6        32.0870   35.9910    9.1010 C.1   594  DGT594      0.2372
     26  O6        32.3230   34.8260    8.7920 O.2   594  DGT594     -0.2069
     27  N1        33.0470   36.7500    9.7850 N.2   594  DGT594     -0.2485
     28  C2        32.7480   38.0770   10.1190 C.1   594  DGT594      0.2531
     29  N2        33.6400   38.8070   10.7890 N.pl3 594  DGT594     -0.0226
     30  N3        31.5750   38.6120    9.7880 N.2   594  DGT594     -0.3074
     31  C4        30.6380   37.8940    9.1230 C.2   594  DGT594      0.2299
@<TRIPOS>BOND
     1     2     1    2
     2     3     1    1
     3     1     5    1
     4     1     4    1
     5     5     6    1
     6     6     9    1
     7     6     8    2
     8     6     7    1
     9     9    10    1
    10    11    10    2
    11    10    12    1
    12    10    13    1
    13    18    17    1
    14    17    19    1
    15    17    15    1
    16    13    14    1
    17    19    20    1
    18    22    23    1
    19    22    21    1
    20    23    24    2
    21    14    15    1
    22    21    20    1
    23    21    31    1
    24    24    25    1
    25    24    31    1
    26    15    16    1
    27    26    25    2
    28    20    16    1
    29    25    27    2
    30    31    30    2
    31    27    28    2
    32    30    28    2
    33    28    29    1
