@<TRIPOS>MOLECULE
2w9c_TTP_A_1.pdb
 29 30 0 0 0
SMALL
GASTEIGER

@<TRIPOS>ATOM
      1  PA        17.8720   -1.8900   48.0520 P.3   1345  TTP1345     0.2189
      2  O1A       16.7400   -2.2320   49.1460 O.3   1345  TTP1345    -0.4371
      3  O2A       18.2250   -0.4530   47.9800 O.2   1345  TTP1345    -0.5170
      4  O3A       19.1240   -2.8400   48.4020 O.3   1345  TTP1345    -0.2700
      5  PB        18.7980   -4.3990   48.6260 P.3   1345  TTP1345     0.2277
      6  O1B       18.1110   -4.4940   50.0780 O.3   1345  TTP1345    -0.4368
      7  O2B       19.9630   -5.2960   48.4560 O.2   1345  TTP1345    -0.5168
      8  O3B       17.6240   -4.7110   47.5790 O.3   1345  TTP1345    -0.2258
      9  PG        17.6440   -6.1700   46.9070 P.3   1345  TTP1345     0.5373
     10  O1G       17.5940   -7.1880   48.1570 O.3   1345  TTP1345    -0.1143
     11  O2G       19.1200   -6.3220   46.2850 O.3   1345  TTP1345    -0.1143
     12  O3G       16.5570   -6.3990   45.9280 O.2   1345  TTP1345    -0.2221
     13  O5'       17.3150   -2.4460   46.6540 O.3   1345  TTP1345    -0.3112
     14  C5'       16.5690   -1.5750   45.8060 C.3   1345  TTP1345     0.1812
     15  C4'       16.2860   -2.2860   44.4820 C.3   1345  TTP1345     0.1773
     16  O4'       15.4690   -1.4480   43.6620 O.3   1345  TTP1345    -0.3339
     17  C3'       17.5900   -2.5230   43.7210 C.3   1345  TTP1345     0.1857
     18  O3'       17.9380   -3.9080   43.8020 O.3   1345  TTP1345    -0.2203
     19  C2'       17.1950   -2.2790   42.2640 C.3   1345  TTP1345     0.0874
     20  C1'       15.7930   -1.6760   42.2910 C.3   1345  TTP1345     0.2090
     21  N1        16.0430   -0.3470   41.9450 N.am  1345  TTP1345    -0.1794
     22  C2        15.6910    0.1160   40.6820 C.1   1345  TTP1345     0.2844
     23  O2        15.0540   -0.6130   39.9200 O.2   1345  TTP1345    -0.1918
     24  N3        16.0830    1.4040   40.2380 N.2   1345  TTP1345    -0.2455
     25  C4        16.8310    2.2100   41.1020 C.1   1345  TTP1345     0.2134
     26  O4        17.1680    3.3330   40.7330 O.2   1345  TTP1345    -0.2088
     27  C5        17.1860    1.7820   42.3740 C.2   1345  TTP1345     0.0891
     28  C5M       18.0150    2.6650   43.3120 C.3   1345  TTP1345     0.0462
     29  C6        16.7790    0.4920   42.7960 C.2   1345  TTP1345     0.0877
@<TRIPOS>BOND
     1    23    22    2
     2    24    22    2
     3    24    25    2
     4    22    21   am
     5    26    25    2
     6    25    27    1
     7    21    20    1
     8    21    29    1
     9    19    20    1
    10    19    17    1
    11    20    16    1
    12    27    29    2
    13    27    28    1
    14    16    15    1
    15    17    18    1
    16    17    15    1
    17    15    14    1
    18    14    13    1
    19    12     9    2
    20    11     9    1
    21    13     1    1
    22     9     8    1
    23     9    10    1
    24     8     5    1
    25     3     1    2
    26     1     4    1
    27     1     2    1
    28     4     5    1
    29     7     5    2
    30     5     6    1
