@<TRIPOS>MOLECULE
2w9g_NDP_A_1.pdb
 48 52 0 0 0
SMALL
GASTEIGER

@<TRIPOS>ATOM
      1  PA         6.4960  -31.6530    6.2920 P.3   1160  NDP1160     0.2189
      2  O1A        5.2670  -32.2910    6.2440 O.3   1160  NDP1160    -0.4371
      3  O2A        6.6790  -30.5310    5.4700 O.2   1160  NDP1160    -0.5170
      4  O5B        7.5660  -32.6630    5.8490 O.3   1160  NDP1160    -0.3112
      5  C5B        8.8810  -32.6160    6.2850 C.3   1160  NDP1160     0.1813
      6  C4B        9.7530  -33.4190    5.3640 C.3   1160  NDP1160     0.1820
      7  O4B        9.5310  -33.2410    4.0080 O.3   1160  NDP1160    -0.3136
      8  C3B       11.2360  -33.3220    5.5220 C.3   1160  NDP1160     0.2157
      9  O3B       11.6930  -33.7950    6.7530 O.3   1160  NDP1160    -0.2175
     10  C2B       11.6660  -34.1260    4.3300 C.3   1160  NDP1160     0.2314
     11  O2B       11.5000  -35.5160    4.5530 O.3   1160  NDP1160    -0.2630
     12  C1B       10.6520  -33.6360    3.3000 C.3   1160  NDP1160     0.3158
     13  N9A       11.1720  -32.5170    2.5420 N.pl3 1160  NDP1160    -0.1439
     14  C8A       10.7820  -31.2450    2.5990 C.3   1160  NDP1160     0.3377
     15  N7A       11.4810  -30.4760    1.7600 N.2   1160  NDP1160    -0.2095
     16  C5A       12.3240  -31.2720    1.1180 C.2   1160  NDP1160     0.2526
     17  C6A       13.2840  -31.1630    0.1530 C.2   1160  NDP1160     0.4393
     18  N6A       13.6050  -30.0240   -0.4380 N.pl3 1160  NDP1160     0.2180
     19  N1A       13.9480  -32.2550   -0.2210 N.2   1160  NDP1160     0.0021
     20  C2A       13.7200  -33.4290    0.2900 C.3   1160  NDP1160     0.5254
     21  N3A       12.8230  -33.6270    1.2110 N.2   1160  NDP1160    -0.0055
     22  C4A       12.1160  -32.6040    1.6720 C.2   1160  NDP1160     0.3518
     23  O3         6.9190  -31.3130    7.7840 O.3   1160  NDP1160    -0.2703
     24  PN         6.6210  -30.0820    8.6980 P.3   1160  NDP1160     0.2189
     25  O1N        7.2710  -28.9820    8.1370 O.2   1160  NDP1160    -0.5170
     26  O2N        7.0500  -30.4790   10.0090 O.3   1160  NDP1160    -0.4371
     27  O5D        5.0740  -29.9950    8.7790 O.3   1160  NDP1160    -0.3112
     28  C5D        4.2040  -30.9450    9.3730 C.3   1160  NDP1160     0.1813
     29  C4D        2.9860  -30.3300   10.0990 C.3   1160  NDP1160     0.1799
     30  O4D        2.1220  -29.5890    9.2580 O.3   1160  NDP1160    -0.3327
     31  C3D        2.1200  -31.3260   10.8100 C.3   1160  NDP1160     0.2158
     32  O3D        1.8020  -30.9850   12.1190 O.3   1160  NDP1160    -0.2175
     33  C2D        0.8520  -31.4150   10.0240 C.3   1160  NDP1160     0.2309
     34  O2D       -0.2270  -31.7080   10.8380 O.3   1160  NDP1160    -0.2158
     35  C1D        0.7940  -30.0250    9.4520 C.3   1160  NDP1160     0.2263
     36  N1N        0.0480  -29.7500    8.2480 N.pl3 1160  NDP1160    -0.2787
     37  C2N       -0.9050  -28.8430    8.2960 C.3   1160  NDP1160     0.1244
     38  C3N       -1.6370  -28.4430    7.2100 C.2   1160  NDP1160     0.0544
     39  C7N       -2.7160  -27.4120    7.2990 C.2   1160  NDP1160     0.2818
     40  O7N       -3.1400  -26.9260    6.3160 O.2   1160  NDP1160    -0.2670
     41  N7N       -3.0800  -26.9920    8.4530 N.am  1160  NDP1160    -0.0839
     42  C4N       -1.3100  -29.0090    6.0250 C.2   1160  NDP1160     0.0033
     43  C5N       -0.3230  -29.9600    5.9990 C.2   1160  NDP1160     0.0157
     44  C6N        0.3660  -30.3010    7.1170 C.2   1160  NDP1160     0.0633
     45  P2B       12.7360  -36.4490    5.0190 P.3   1160  NDP1160     0.5328
     46  O1X       13.6670  -36.2940    3.9480 O.2   1160  NDP1160    -0.2224
     47  O2X       12.0730  -37.7070    5.0460 O.3   1160  NDP1160    -0.1145
     48  O3X       13.1480  -35.9610    6.3170 O.3   1160  NDP1160    -0.1145
@<TRIPOS>BOND
     1    18    17    1
     2    19    17    2
     3    19    20    1
     4    17    16    1
     5    20    21    1
     6    16    22    1
     7    16    15    2
     8    21    22    2
     9    22    13    1
    10    15    14    1
    11    13    14    1
    12    13    12    1
    13    12     7    1
    14    12    10    1
    15    46    45    2
    16     7     6    1
    17    10    11    1
    18    10     8    1
    19    11    45    1
    20    45    47    1
    21    45    48    1
    22     6     8    1
    23     6     5    1
    24     3     1    2
    25     8     9    1
    26     4     5    1
    27     4     1    1
    28    43    42    1
    29    43    44    2
    30    42    38    2
    31     2     1    1
    32     1    23    1
    33    40    39    2
    34    44    36    1
    35    38    39    1
    36    38    37    1
    37    39    41   am
    38    23    24    1
    39    25    24    2
    40    36    37    1
    41    36    35    1
    42    24    27    1
    43    24    26    1
    44    27    28    1
    45    30    35    1
    46    30    29    1
    47    28    29    1
    48    35    33    1
    49    33    31    1
    50    33    34    1
    51    29    31    1
    52    31    32    1
