@<TRIPOS>MOLECULE
2w9g_TOP_A_1.pdb
 21 22 0 0 0
SMALL
GASTEIGER

@<TRIPOS>ATOM
      1  C1        -5.8780  -29.7900    5.4700 C.2   1159  TOP1159     0.1118
      2  N2        -6.6980  -28.7140    5.3510 N.2   1159  TOP1159    -0.1675
      3  C3        -6.4500  -27.7660    4.4440 C.1   1159  TOP1159     0.1877
      4  N4        -7.2660  -26.7250    4.3430 N.pl3 1159  TOP1159    -0.0345
      5  N5        -5.3920  -27.8310    3.6170 N.2   1159  TOP1159    -0.3170
      6  C6        -4.5300  -28.8490    3.7030 C.2   1159  TOP1159     0.2297
      7  N7        -3.4370  -28.9090    2.9410 N.pl3 1159  TOP1159    -0.0924
      8  C8        -4.7890  -29.9350    4.6620 C.2   1159  TOP1159     0.0500
      9  C9        -3.7750  -31.0900    4.7070 C.3   1159  TOP1159     0.0585
     10  C10       -4.1920  -32.2450    5.6080 C.ar  1159  TOP1159    -0.0114
     11  C11       -3.4200  -32.5650    6.7220 C.ar  1159  TOP1159     0.0363
     12  C12       -3.8260  -33.6440    7.5400 C.ar  1159  TOP1159     0.1751
     13  O13       -3.1260  -33.9790    8.6820 O.3   1159  TOP1159    -0.4683
     14  C14       -1.8780  -33.3220    8.9770 C.3   1159  TOP1159     0.2526
     15  C15       -4.9360  -34.4120    7.2030 C.ar  1159  TOP1159     0.2060
     16  O16       -5.3160  -35.4490    8.0350 O.3   1159  TOP1159    -0.4654
     17  C17       -6.3650  -35.2030    8.9210 C.3   1159  TOP1159     0.2528
     18  C18       -5.6890  -34.1020    6.0780 C.ar  1159  TOP1159     0.1751
     19  O19       -6.8150  -34.8410    5.7510 O.3   1159  TOP1159    -0.4683
     20  C20       -7.2090  -34.8510    4.3660 C.3   1159  TOP1159     0.2526
     21  C21       -5.3040  -33.0200    5.2740 C.ar  1159  TOP1159     0.0363
@<TRIPOS>BOND
     1     7     6    1
     2     5     6    2
     3     5     3    2
     4     6     8    1
     5     4     3    1
     6    20    19    1
     7     3     2    2
     8     8     9    1
     9     8     1    2
    10     9    10    1
    11    21    10   ar
    12    21    18   ar
    13     2     1    1
    14    10    11   ar
    15    19    18    1
    16    18    15   ar
    17    11    12   ar
    18    15    12   ar
    19    15    16    1
    20    12    13    1
    21    16    17    1
    22    13    14    1
