@<TRIPOS>MOLECULE
2w9h_TOP_A_1.pdb
 21 22 0 0 0
SMALL
GASTEIGER

@<TRIPOS>ATOM
      1  C1         7.0800   -4.2930   14.7190 C.2   1160  TOP1160     0.1118
      2  N2         6.0010   -3.8790   14.0780 N.2   1160  TOP1160    -0.1675
      3  C3         6.0670   -2.8760   13.2410 C.1   1160  TOP1160     0.1877
      4  N4         4.9790   -2.5240   12.5840 N.pl3 1160  TOP1160    -0.0345
      5  N5         7.1920   -2.2280   13.0720 N.2   1160  TOP1160    -0.3170
      6  C6         8.2800   -2.5070   13.7140 C.2   1160  TOP1160     0.2297
      7  N7         9.3950   -1.8170   13.5620 N.pl3 1160  TOP1160    -0.0924
      8  C8         8.2590   -3.6500   14.6160 C.2   1160  TOP1160     0.0500
      9  C14       10.4380   -5.1920   20.3750 C.3   1160  TOP1160     0.2526
     10  C20        9.0340   -9.0900   14.6430 C.3   1160  TOP1160     0.2526
     11  C9         9.5350   -4.0470   15.3400 C.3   1160  TOP1160     0.0585
     12  C10        9.5490   -5.2960   16.2120 C.ar  1160  TOP1160    -0.0114
     13  C11        9.8030   -5.1980   17.5710 C.ar  1160  TOP1160     0.0363
     14  C12        9.8280   -6.3630   18.3910 C.ar  1160  TOP1160     0.1751
     15  O13       10.0770   -6.3160   19.7210 O.3   1160  TOP1160    -0.4683
     16  C15        9.5530   -7.5160   17.8150 C.ar  1160  TOP1160     0.2060
     17  O16        9.4900   -8.6780   18.5090 O.3   1160  TOP1160    -0.4654
     18  C17        8.4000   -9.5670   18.2700 C.3   1160  TOP1160     0.2528
     19  C18        9.2980   -7.6260   16.5000 C.ar  1160  TOP1160     0.1751
     20  O19        9.0550   -8.8040   15.9850 O.3   1160  TOP1160    -0.4683
     21  C21        9.3050   -6.5000   15.6680 C.ar  1160  TOP1160     0.0363
@<TRIPOS>BOND
     1     4     3    1
     2     5     3    2
     3     5     6    2
     4     3     2    2
     5     7     6    1
     6     6     8    1
     7     2     1    1
     8     8     1    2
     9     8    11    1
    10    10    20    1
    11    11    12    1
    12    21    12   ar
    13    21    19   ar
    14    20    19    1
    15    12    13   ar
    16    19    16   ar
    17    13    14   ar
    18    16    14   ar
    19    16    17    1
    20    18    17    1
    21    14    15    1
    22    15     9    1
