@<TRIPOS>MOLECULE
2w9i_MBT_A_1.pdb
 20 22 0 0 0
SMALL
GASTEIGER

@<TRIPOS>ATOM
      1  C1         1.8580   61.6190   71.1710 C.2   1540  MBT1540     0.1227
      2  C2         1.1040   62.7780   71.0530 C.3   1540  MBT1540     0.1271
      3  S3        -0.4370   62.8490   71.7600 S.3   1540  MBT1540    -0.1005
      4  C4        -0.7600   61.3840   72.5370 C.2   1540  MBT1540     0.0528
      5  C5         0.1850   60.3820   72.4970 C.2   1540  MBT1540     0.1187
      6  N6         1.4020   60.5230   71.8440 N.2   1540  MBT1540    -0.4085
      7  C7        -1.9810   61.2030   73.2000 C.2   1540  MBT1540     0.0226
      8  C8        -2.3380   60.0270   73.8700 C.2   1540  MBT1540     0.0446
      9  C9        -1.4000   59.0010   73.8360 C.2   1540  MBT1540    -0.0041
     10  C10       -0.1710   59.1850   73.1580 C.3   1540  MBT1540     0.0867
     11  C11        1.5910   63.8860   70.3620 C.2   1540  MBT1540     0.0062
     12  C12        2.8580   63.8920   69.7690 C.2   1540  MBT1540     0.0449
     13  C13        3.6120   62.7290   69.8740 C.2   1540  MBT1540     0.0165
     14  C14        3.1070   61.6170   70.5610 C.2   1540  MBT1540     0.0300
     15  N15       -3.5610   59.9040   74.5070 N.pl3 1540  MBT1540    -0.3043
     16  C16       -3.9360   58.6690   75.1790 C.3   1540  MBT1540     0.1122
     17  C17       -4.5610   60.9760   74.5490 C.3   1540  MBT1540     0.1122
     18  N18        3.2990   65.0220   69.1150 N.pl3 1540  MBT1540    -0.3043
     19  C19        2.4370   66.1910   69.0380 C.3   1540  MBT1540     0.1122
     20  C20        4.5930   65.1100   68.4550 C.3   1540  MBT1540     0.1122
@<TRIPOS>BOND
     1    20    18    1
     2    19    18    1
     3    18    12    1
     4    12    13    1
     5    12    11    2
     6    13    14    2
     7    11     2    1
     8    14     1    1
     9     2     1    1
    10     2     3    1
    11     1     6    2
    12     3     4    1
    13     6     5    2
    14     5     4    1
    15     5    10    1
    16     4     7    2
    17    10     9    1
    18     7     8    1
    19     9     8    2
    20     8    15    1
    21    15    17    1
    22    15    16    1
