@<TRIPOS>MOLECULE
2w9l_SIA_C_1.pdb
 21 21 0 0 0
SMALL
GASTEIGER

@<TRIPOS>ATOM
      1  C1       -45.0880  -24.5620  -46.9260 C.2   1543  SIA1543     0.4179
      2  C2       -44.8280  -25.9830  -46.4710 C.3   1543  SIA1543     0.3155
      3  C3       -46.1250  -26.6650  -46.0050 C.3   1543  SIA1543     0.1056
      4  C4       -47.1140  -26.8690  -47.1620 C.3   1543  SIA1543     0.1798
      5  C5       -46.4500  -27.5980  -48.3120 C.3   1543  SIA1543     0.1554
      6  C6       -45.1500  -26.8930  -48.6900 C.3   1543  SIA1543     0.1734
      7  C7       -44.4390  -27.6370  -49.8150 C.3   1543  SIA1543     0.2135
      8  C8       -43.0700  -27.0330  -50.0770 C.3   1543  SIA1543     0.2173
      9  C9       -42.6770  -27.3620  -51.4990 C.3   1543  SIA1543     0.2175
     10  C10      -47.6640  -28.5440  -50.2180 C.2   1543  SIA1543     0.2420
     11  C11      -48.6600  -28.3200  -51.3190 C.3   1543  SIA1543     0.0964
     12  N5       -47.3910  -27.5080  -49.4230 N.am  1543  SIA1543    -0.2020
     13  O1A      -44.2490  -24.0090  -47.6490 O.co2 1543  SIA1543    -0.2401
     14  O1B      -46.1190  -23.9630  -46.5730 O.co2 1543  SIA1543    -0.2401
     15  O2       -43.9110  -25.8610  -45.3760 O.3   1543  SIA1543    -0.1830
     16  O4       -48.2210  -27.6700  -46.7840 O.3   1543  SIA1543    -0.2210
     17  O6       -44.2760  -26.7540  -47.5520 O.3   1543  SIA1543    -0.3220
     18  O7       -44.3190  -29.0410  -49.5430 O.3   1543  SIA1543    -0.2176
     19  O8       -43.0930  -25.6080  -49.9230 O.3   1543  SIA1543    -0.2175
     20  O9       -41.3510  -26.8900  -51.7130 O.3   1543  SIA1543    -0.2175
     21  O10      -47.1360  -29.6300  -50.0790 O.2   1543  SIA1543    -0.2733
@<TRIPOS>BOND
     1    20     9    1
     2     9     8    1
     3    11    10    1
     4    10    21    2
     5    10    12   am
     6     8    19    1
     7     8     7    1
     8     7    18    1
     9     7     6    1
    10    12     5    1
    11     6     5    1
    12     6    17    1
    13     5     4    1
    14    13     1   ar
    15    17     2    1
    16     4    16    1
    17     4     3    1
    18     1    14   ar
    19     1     2    1
    20     2     3    1
    21     2    15    1
