@<TRIPOS>MOLECULE
2w9s_NDP_A_1.pdb
 48 52 0 0 0
SMALL
GASTEIGER

@<TRIPOS>ATOM
      1  PA        17.2640    3.8670   37.9920 P.3   1159  NDP1159     0.2189
      2  O1A       15.7450    3.8450   37.9180 O.2   1159  NDP1159    -0.5170
      3  O2A       17.9190    3.7230   39.3430 O.3   1159  NDP1159    -0.4371
      4  O5B       17.8170    5.1730   37.2230 O.3   1159  NDP1159    -0.3112
      5  C5B       19.2240    5.4600   37.1220 C.3   1159  NDP1159     0.1813
      6  C4B       19.3280    6.9380   36.6930 C.3   1159  NDP1159     0.1820
      7  O4B       18.9700    7.7940   37.7970 O.3   1159  NDP1159    -0.3136
      8  C3B       20.7780    7.3570   36.3980 C.3   1159  NDP1159     0.2157
      9  O3B       21.0840    6.9810   35.0480 O.3   1159  NDP1159    -0.2175
     10  C2B       20.7160    8.8610   36.6460 C.3   1159  NDP1159     0.2314
     11  O2B       19.9090    9.4910   35.6390 O.3   1159  NDP1159    -0.2630
     12  C1B       19.8220    8.9000   37.8650 C.3   1159  NDP1159     0.3158
     13  N9A       20.5870    8.8780   39.0990 N.pl3 1159  NDP1159    -0.1439
     14  C8A       20.8910    7.8520   39.9180 C.3   1159  NDP1159     0.3377
     15  N7A       21.6420    8.2970   40.9690 N.2   1159  NDP1159    -0.2095
     16  C5A       21.7940    9.6540   40.8290 C.2   1159  NDP1159     0.2526
     17  C6A       22.4130   10.7100   41.5060 C.2   1159  NDP1159     0.4393
     18  N6A       23.0910   10.5290   42.6660 N.pl3 1159  NDP1159     0.2180
     19  N1A       22.3150   11.9690   41.0020 N.2   1159  NDP1159     0.0021
     20  C2A       21.6820   12.2250   39.8550 C.3   1159  NDP1159     0.5254
     21  N3A       21.0670   11.2820   39.1380 N.2   1159  NDP1159    -0.0055
     22  C4A       21.0940    9.9990   39.5740 C.2   1159  NDP1159     0.3518
     23  O3        17.9320    2.7850   37.0210 O.3   1159  NDP1159    -0.2703
     24  PN        18.2860    1.2160   37.3040 P.3   1159  NDP1159     0.2189
     25  O1N       19.2710    1.0530   38.3770 O.3   1159  NDP1159    -0.4371
     26  O2N       18.6240    0.6950   35.9440 O.2   1159  NDP1159    -0.5170
     27  O5D       16.9060    0.6220   37.8240 O.3   1159  NDP1159    -0.3112
     28  C5D       15.7500    0.5450   36.9800 C.3   1159  NDP1159     0.1813
     29  C4D       15.1650   -0.8840   37.0620 C.3   1159  NDP1159     0.1799
     30  O4D       14.5070   -1.0200   38.3330 O.3   1159  NDP1159    -0.3327
     31  C3D       14.0720   -1.1160   36.0220 C.3   1159  NDP1159     0.2158
     32  O3D       14.1350   -2.4270   35.4250 O.3   1159  NDP1159    -0.2175
     33  C2D       12.7610   -1.0410   36.7590 C.3   1159  NDP1159     0.2309
     34  O2D       11.7530   -1.8680   36.1700 O.3   1159  NDP1159    -0.2158
     35  C1D       13.1740   -1.5200   38.1330 C.3   1159  NDP1159     0.2263
     36  N1N       12.2990   -1.1140   39.2210 N.pl3 1159  NDP1159    -0.2787
     37  C2N       11.7570   -2.1000   39.9570 C.3   1159  NDP1159     0.1244
     38  C3N       10.9610   -1.8050   41.0520 C.2   1159  NDP1159     0.0544
     39  C7N       10.3440   -2.9150   41.8290 C.2   1159  NDP1159     0.2818
     40  O7N        9.8210   -2.5920   42.8700 O.2   1159  NDP1159    -0.2670
     41  N7N       10.3840   -4.1900   41.3900 N.am  1159  NDP1159    -0.0839
     42  C4N       10.7260   -0.4490   41.3860 C.2   1159  NDP1159     0.0033
     43  C5N       11.3040    0.5550   40.5920 C.2   1159  NDP1159     0.0157
     44  C6N       12.1100    0.1900   39.5160 C.2   1159  NDP1159     0.0633
     45  P2B       20.5720   10.2880   34.3610 P.3   1159  NDP1159     0.5328
     46  O1X       21.6450   11.0960   34.9990 O.3   1159  NDP1159    -0.1145
     47  O2X       19.3710   10.9090   33.7570 O.3   1159  NDP1159    -0.1145
     48  O3X       21.0860    9.2020   33.4580 O.2   1159  NDP1159    -0.2224
@<TRIPOS>BOND
     1    48    45    2
     2    47    45    1
     3    45    46    1
     4    45    11    1
     5     9     8    1
     6    32    31    1
     7    11    10    1
     8    26    24    2
     9    31    33    1
    10    31    29    1
    11    34    33    1
    12     8    10    1
    13     8     6    1
    14    10    12    1
    15     6     5    1
    16     6     7    1
    17    33    35    1
    18    28    29    1
    19    28    27    1
    20    23    24    1
    21    23     1    1
    22    29    30    1
    23     5     4    1
    24     4     1    1
    25    24    27    1
    26    24    25    1
    27     7    12    1
    28    12    13    1
    29     2     1    2
    30     1     3    1
    31    35    30    1
    32    35    36    1
    33    13    22    1
    34    13    14    1
    35    21    22    2
    36    21    20    1
    37    36    44    1
    38    36    37    1
    39    44    43    2
    40    22    16    1
    41    20    19    1
    42    14    15    1
    43    37    38    1
    44    43    42    1
    45    16    15    2
    46    16    17    1
    47    19    17    2
    48    38    42    2
    49    38    39    1
    50    41    39   am
    51    17    18    1
    52    39    40    2
