@<TRIPOS>MOLECULE
2w9s_TOP_A_1.pdb
 21 22 0 0 0
SMALL
GASTEIGER

@<TRIPOS>ATOM
      1  C1         6.4180   -1.1420   42.2750 C.2   1160  TOP1160     0.1118
      2  N2         6.0700   -2.0100   43.2650 N.2   1160  TOP1160    -0.1675
      3  C3         6.5620   -1.8330   44.5110 C.1   1160  TOP1160     0.1877
      4  N4         6.1810   -2.6470   45.5290 N.pl3 1160  TOP1160    -0.0345
      5  N5         7.4200   -0.8170   44.7640 N.2   1160  TOP1160    -0.3170
      6  C6         7.8540    0.0510   43.8310 C.2   1160  TOP1160     0.2297
      7  N7         8.7370    1.0320   44.1240 N.pl3 1160  TOP1160    -0.0924
      8  C8         7.3320   -0.0970   42.4530 C.2   1160  TOP1160     0.0500
      9  C9         7.7660    0.9140   41.3710 C.3   1160  TOP1160     0.0585
     10  C10        6.9680    0.8160   40.0630 C.ar  1160  TOP1160    -0.0114
     11  C11        7.6950    0.4540   38.9350 C.ar  1160  TOP1160     0.0363
     12  C12        7.0500    0.3650   37.7020 C.ar  1160  TOP1160     0.1751
     13  O13        7.7530    0.0130   36.6060 O.3   1160  TOP1160    -0.4683
     14  C14        9.1810   -0.0570   36.7310 C.3   1160  TOP1160     0.2526
     15  C15        5.7080    0.6180   37.5840 C.ar  1160  TOP1160     0.2060
     16  O16        5.1150    0.4890   36.3540 O.3   1160  TOP1160    -0.4654
     17  C17        4.5060   -0.7570   36.0390 C.3   1160  TOP1160     0.2528
     18  C18        4.9700    0.9740   38.6690 C.ar  1160  TOP1160     0.1751
     19  O19        3.6410    1.2450   38.4310 O.3   1160  TOP1160    -0.4683
     20  C20        2.7880    1.7480   39.4480 C.3   1160  TOP1160     0.2526
     21  C21        5.5950    1.0890   39.9300 C.ar  1160  TOP1160     0.0363
@<TRIPOS>BOND
     1    17    16    1
     2    16    15    1
     3    13    14    1
     4    13    12    1
     5    15    12   ar
     6    15    18   ar
     7    12    11   ar
     8    19    18    1
     9    19    20    1
    10    18    21   ar
    11    11    10   ar
    12    21    10   ar
    13    10     9    1
    14     9     8    1
    15     1     8    2
    16     1     2    1
    17     8     6    1
    18     2     3    2
    19     6     7    1
    20     6     5    2
    21     3     5    2
    22     3     4    1
