@<TRIPOS>MOLECULE
2wa2_SAM_A_1.pdb
 27 29 0 0 0
SMALL
GASTEIGER

@<TRIPOS>ATOM
      1  N         15.5380    6.8690   40.6230 N.3   1248  SAM1248    -0.1208
      2  CA        16.1600    5.6710   39.9670 C.3   1248  SAM1248     0.1952
      3  C         17.5860    5.4600   40.4860 C.2   1248  SAM1248     0.3819
      4  O         18.1370    6.3700   41.1170 O.co2 1248  SAM1248    -0.2441
      5  OXT       18.2320    4.4140   40.2880 O.co2 1248  SAM1248    -0.2441
      6  CB        16.1840    5.8480   38.4490 C.3   1248  SAM1248     0.0414
      7  CG        14.8080    5.7680   37.8000 C.3   1248  SAM1248     0.0503
      8  SD        14.4370    4.0300   37.5110 S.3   1248  SAM1248    -0.1761
      9  CE        15.2260    3.8460   35.8790 C.3   1248  SAM1248     0.0590
     10  C5'       12.7230    4.0740   36.9480 C.3   1248  SAM1248     0.0806
     11  C4'       12.1480    2.6890   37.2450 C.3   1248  SAM1248     0.1622
     12  O4'       10.7460    2.7010   37.3220 O.3   1248  SAM1248    -0.3153
     13  C3'       12.4960    1.6870   36.1470 C.3   1248  SAM1248     0.2168
     14  O3'       13.4650    0.8140   36.6730 O.3   1248  SAM1248    -0.2175
     15  C2'       11.2080    0.9380   35.8550 C.3   1248  SAM1248     0.2569
     16  O2'       11.4390   -0.4480   35.8990 O.3   1248  SAM1248    -0.2130
     17  C1'       10.3100    1.3930   37.0090 C.3   1248  SAM1248     0.3185
     18  N9         8.8910    1.3780   36.6700 N.pl3 1248  SAM1248    -0.1439
     19  C8         8.3190    1.8120   35.4970 C.3   1248  SAM1248     0.3377
     20  N7         6.9940    1.6500   35.5780 N.2   1248  SAM1248    -0.2095
     21  C5         6.7300    1.1020   36.7960 C.2   1248  SAM1248     0.2526
     22  C6         5.5370    0.7190   37.4120 C.2   1248  SAM1248     0.4393
     23  N6         4.3690    0.8300   36.8060 N.pl3 1248  SAM1248     0.2180
     24  N1         5.5910    0.2130   38.6970 N.2   1248  SAM1248     0.0021
     25  C2         6.7850    0.0650   39.3510 C.3   1248  SAM1248     0.5254
     26  N3         7.9770    0.4350   38.7600 N.2   1248  SAM1248    -0.0055
     27  C4         7.9170    0.9370   37.4880 C.2   1248  SAM1248     0.3518
@<TRIPOS>BOND
     1    19    20    1
     2    19    18    1
     3    20    21    2
     4    15    16    1
     5    15    13    1
     6    15    17    1
     7     9     8    1
     8    13    14    1
     9    13    11    1
    10    18    17    1
    11    18    27    1
    12    21    22    1
    13    21    27    1
    14    23    22    1
    15    10    11    1
    16    10     8    1
    17    17    12    1
    18    11    12    1
    19    22    24    2
    20    27    26    2
    21     8     7    1
    22     7     6    1
    23     6     2    1
    24    24    25    1
    25    26    25    1
    26     2     3    1
    27     2     1    1
    28     5     3   ar
    29     3     4   ar
