@<TRIPOS>MOLECULE
2wa3_A29_A_1.pdb
 12 12 0 0 0
SMALL
GASTEIGER

@<TRIPOS>ATOM
      1  C8        22.6840   26.0610   27.7960 C.2   400  A29400      0.4260
      2  O1        22.6770   25.0670   27.0470 O.co2 400  A29400     -0.2369
      3  O2        23.7170   26.8100   27.8990 O.co2 400  A29400     -0.2369
      4  C7        21.3890   26.4540   28.5550 C.2   400  A29400      0.2747
      5  C1        20.0360   25.7500   28.4510 C.ar  400  A29400      0.0489
      6  C2        18.9410   26.3420   29.0740 C.ar  400  A29400      0.0454
      7  C3        17.6460   25.8150   28.9940 C.ar  400  A29400      0.1958
      8  C4        17.3950   24.6550   28.2730 C.ar  400  A29400      0.0420
      9  C5        18.4710   24.0420   27.6250 C.ar  400  A29400      0.0034
     10  C6        19.7790   24.5890   27.7110 C.ar  400  A29400      0.0036
     11  O3        16.6200   26.4460   29.6500 O.3   400  A29400     -0.2866
     12  O7        21.4370   27.4510   29.2660 O.2   400  A29400     -0.2795
@<TRIPOS>BOND
     1     2     1   ar
     2     9    10   ar
     3     9     8   ar
     4    10     5   ar
     5     1     3   ar
     6     1     4    1
     7     8     7   ar
     8     5     4    1
     9     5     6   ar
    10     4    12    2
    11     7     6   ar
    12     7    11    1
