@<TRIPOS>MOLECULE
2wa4_069_A_1.pdb
 11 11 0 0 0
SMALL
GASTEIGER

@<TRIPOS>ATOM
      1  C3        17.0740   25.7740   29.1330 C.ar  400  069400      0.1958
      2  O3        16.1090   26.3830   29.8610 O.3   400  069400     -0.2866
      3  C2        18.3680   26.2490   29.2720 C.ar  400  069400      0.0439
      4  C1        19.4060   25.7080   28.5330 C.ar  400  069400      0.0259
      5  C         20.8400   26.3270   28.6710 C.2   400  069400      0.1102
      6  O         21.0730   27.2610   29.4690 O.2   400  069400     -0.5359
      7  N         21.7390   25.8450   27.8040 N.am  400  069400     -0.1984
      8  C6        19.1010   24.6390   27.6550 C.ar  400  069400      0.0021
      9  C5        17.7920   24.1450   27.5380 C.ar  400  069400      0.0033
     10  C4        16.7480   24.7270   28.2840 C.ar  400  069400      0.0420
     11  O2        23.0340   26.3190   27.7390 O.3   400  069400     -0.4024
@<TRIPOS>BOND
     1     9     8   ar
     2     9    10   ar
     3     8     4   ar
     4    11     7    1
     5     7     5   am
     6    10     1   ar
     7     4     5    1
     8     4     3   ar
     9     5     6    2
    10     1     3   ar
    11     1     2    1
