@<TRIPOS>MOLECULE
2wa8_III_D_1.pdb
 50 50 0 0 0
SMALL
GASTEIGER

@<TRIPOS>ATOM
      1  N         -8.6550    2.5640   11.9230 N.3   107  PHE107     -0.1227
      2  CA        -9.3780    1.6340   11.0810 C.3   107  PHE107      0.1736
      3  C        -10.5680    1.0960   11.8660 C.2   107  PHE107      0.2595
      4  O        -10.8970    1.6290   12.9130 O.2   107  PHE107     -0.2718
      5  CB        -8.4560    0.5200   10.6320 C.3   107  PHE107      0.0547
      6  CG        -7.2160    1.0070    9.9440 C.ar  107  PHE107     -0.0202
      7  CD1       -7.2920    1.6760    8.7230 C.ar  107  PHE107     -0.0042
      8  CD2       -5.9540    0.7940   10.5100 C.ar  107  PHE107     -0.0042
      9  CE1       -6.1380    2.1330    8.0990 C.ar  107  PHE107     -0.0003
     10  CE2       -4.7900    1.2420    9.8590 C.ar  107  PHE107     -0.0003
     11  CZ        -4.8830    1.8900    8.6490 C.ar  107  PHE107     -0.0000
     12  N        -11.2330    0.0700   11.3670 N.am  108  ARG108     -0.1966
     13  CA       -12.3520   -0.5050   12.1240 C.3   108  ARG108      0.1729
     14  C        -12.2650   -2.0140   12.2000 C.2   108  ARG108      0.2617
     15  O        -11.7550   -2.6530   11.2760 O.2   108  ARG108     -0.2715
     16  CB       -13.7120   -0.0800   11.5520 C.3   108  ARG108      0.0348
     17  CG       -13.9370   -0.3510   10.0750 C.3   108  ARG108      0.0492
     18  CD       -14.5840   -1.7340    9.7860 C.3   108  ARG108      0.2205
     19  NE       -15.9180   -1.9290   10.3630 N.pl3 108  ARG108     -0.0865
     20  CZ       -16.7870   -2.8660    9.9650 C.cat 108  ARG108      0.5346
     21  NH1      -16.4830   -3.6910    8.9610 N.pl3 108  ARG108      0.1354
     22  NH2      -17.9750   -2.9740   10.5630 N.pl3 108  ARG108      0.1354
     23  N        -12.7370   -2.5860   13.3070 N.am  109  SER109     -0.1936
     24  CA       -12.8230   -4.0520   13.4110 C.3   109  SER109      0.2055
     25  C        -14.2290   -4.5430   13.1240 C.2   109  SER109      0.2643
     26  O        -15.1310   -3.7430   12.8800 O.2   109  SER109     -0.2714
     27  CB       -12.3700   -4.5440   14.7800 C.3   109  SER109      0.2130
     28  OG       -12.8900   -3.7190   15.8090 O.3   109  SER109     -0.2179
     29  N        -14.4310   -5.8550   13.1690 N.am  110  LYS110     -0.1963
     30  CA       -15.7090   -6.4070   12.7080 C.3   110  LYS110      0.1728
     31  C        -16.8080   -6.8260   13.7200 C.2   110  LYS110      0.2617
     32  O        -17.9730   -6.9030   13.3340 O.2   110  LYS110     -0.2715
     33  CB       -15.4500   -7.5070   11.6720 C.3   110  LYS110      0.0311
     34  CG       -14.7330   -6.9770   10.4390 C.3   110  LYS110      0.0038
     35  CD       -14.3890   -8.0730    9.4380 C.3   110  LYS110      0.0206
     36  CE       -13.5280   -7.5070    8.3050 C.3   110  LYS110      0.1093
     37  NZ       -13.3620   -8.4720    7.1860 N.3   110  LYS110     -0.1314
     38  N        -16.4910   -7.0690   14.9940 N.am  111  GLY111     -0.1940
     39  CA       -15.1860   -6.8640   15.5900 C.3   111  GLY111      0.2014
     40  C        -15.2250   -5.6280   16.4790 C.2   111  GLY111      0.2638
     41  O        -15.4660   -4.5220   15.9680 O.2   111  GLY111     -0.2714
     42  N        -15.0370   -5.7800   17.7940 N.am  112  GLU112     -0.1977
     43  CA       -14.8990   -7.0740   18.4760 C.3   112  GLU112      0.1602
     44  C        -14.0420   -8.1280   17.7820 C.2   112  GLU112      0.2287
     45  O        -14.1530   -9.3210   18.0790 O.2   112  GLU112     -0.2864
     46  CB       -16.2700   -7.6530   18.8350 C.3   112  GLU112      0.0415
     47  CG       -16.9240   -6.9810   20.0250 C.3   112  GLU112      0.1163
     48  CD       -18.0420   -7.8110   20.6190 C.2   112  GLU112      0.3649
     49  OE1      -18.6430   -8.6080   19.8710 O.co2 112  GLU112     -0.2457
     50  OE2      -18.3210   -7.6570   21.8290 O.co2 112  GLU112     -0.2457
@<TRIPOS>BOND
     1    37    36    1
     2     9    11   ar
     3     9     7   ar
     4    36    35    1
     5    11    10   ar
     6     7     6   ar
     7    21    20    1
     8    35    34    1
     9    18    17    1
    10    18    19    1
    11    10     8   ar
    12     6     8   ar
    13     6     5    1
    14    20    19    2
    15    20    22    1
    16    17    16    1
    17    34    33    1
    18     5     2    1
    19     2     3    1
    20     2     1    1
    21    15    14    2
    22    12     3   am
    23    12    13    1
    24    16    13    1
    25    33    30    1
    26     3     4    2
    27    13    14    1
    28    14    23   am
    29    30    29    1
    30    30    31    1
    31    26    25    2
    32    25    29   am
    33    25    24    1
    34    23    24    1
    35    32    31    2
    36    24    27    1
    37    31    38   am
    38    27    28    1
    39    38    39    1
    40    39    40    1
    41    41    40    2
    42    40    42   am
    43    44    45    2
    44    44    43    1
    45    42    43    1
    46    43    46    1
    47    46    47    1
    48    49    48   ar
    49    47    48    1
    50    48    50   ar
