@<TRIPOS>MOLECULE
2wa9_III_H_1.pdb
 23 22 0 0 0
SMALL
GASTEIGER

@<TRIPOS>ATOM
      1  N         50.8710  -13.3880   16.3880 N.3     1  LEU1       -0.1231
      2  CA        52.1740  -12.7170   16.0630 C.3     1  LEU1        0.1693
      3  C         53.3430  -13.5860   16.5190 C.2     1  LEU1        0.2592
      4  O         53.1710  -14.4460   17.4000 O.2     1  LEU1       -0.2718
      5  CB        52.2290  -11.3260   16.7160 C.3     1  LEU1        0.0284
      6  CG        51.0490  -10.3650   16.4740 C.3     1  LEU1        0.0019
      7  CD1       51.3190   -8.9910   17.0350 C.3     1  LEU1        0.0001
      8  CD2       50.6650  -10.2140   15.0210 C.3     1  LEU1        0.0001
      9  N         54.5200  -13.3800   15.9330 N.am    2  LEU2       -0.1966
     10  CA        55.7340  -14.0700   16.4030 C.3     2  LEU2        0.1728
     11  C         56.2040  -13.4250   17.6900 C.2     2  LEU2        0.2616
     12  O         55.5540  -12.5080   18.2020 O.2     2  LEU2       -0.2715
     13  CB        56.8920  -13.9330   15.4020 C.3     2  LEU2        0.0311
     14  CG        57.2750  -14.9060   14.3010 C.3     2  LEU2        0.0022
     15  CD1       58.4380  -14.2950   13.5000 C.3     2  LEU2        0.0001
     16  CD2       57.6670  -16.2790   14.8460 C.3     2  LEU2        0.0001
     17  N         57.3770  -13.8450   18.1670 N.am    3  THR3       -0.1951
     18  CA        57.9700  -13.2160   19.3370 C.3     3  THR3        0.1897
     19  C         59.4350  -12.7420   19.1290 C.2     3  THR3        0.2313
     20  O         60.4140  -13.4810   19.2780 O.2     3  THR3       -0.2863
     21  CB        57.7180  -14.0560   20.6250 C.3     3  THR3        0.1794
     22  OG1       58.8740  -13.9820   21.4840 O.3     3  THR3       -0.2208
     23  CG2       57.4100  -15.5330   20.2510 C.3     3  THR3        0.0378
@<TRIPOS>BOND
     1    15    14    1
     2    14    16    1
     3    14    13    1
     4     8     6    1
     5    13    10    1
     6     9    10    1
     7     9     3   am
     8     2     1    1
     9     2     3    1
    10     2     5    1
    11    10    11    1
    12     6     5    1
    13     6     7    1
    14     3     4    2
    15    11    17   am
    16    11    12    2
    17    17    18    1
    18    19    20    2
    19    19    18    1
    20    18    21    1
    21    23    21    1
    22    21    22    1
