@<TRIPOS>MOLECULE
2wab_BGC_A_1.pdb
 11 11 0 0 0
SMALL
GASTEIGER

@<TRIPOS>ATOM
      1  C2        10.3390   36.0560   -3.3960 C.3   1335  BGC1335     0.2409
      2  C3        10.0010   35.5950   -1.9820 C.3   1335  BGC1335     0.1899
      3  C4         8.5000   35.3200   -1.9060 C.3   1335  BGC1335     0.0681
      4  C5         8.0260   34.3720   -3.0080 C.3   1335  BGC1335     0.1534
      5  C6         6.5060   34.3240   -3.0260 C.3   1335  BGC1335     0.2116
      6  C1         9.8310   35.0270   -4.4160 C.3   1335  BGC1335     0.3022
      7  O1         9.8980   35.5860   -5.7090 O.3   1335  BGC1335    -0.1869
      8  O2        11.7250   36.2530   -3.4740 O.3   1335  BGC1335    -0.2149
      9  O3        10.3480   36.5870   -1.0160 O.3   1335  BGC1335    -0.2201
     10  O5         8.4460   34.8630   -4.2520 O.3   1335  BGC1335    -0.3263
     11  O6         6.1740   33.1930   -3.7710 O.3   1335  BGC1335    -0.2177
@<TRIPOS>BOND
     1     7     6    1
     2     6    10    1
     3     6     1    1
     4    10     4    1
     5    11     5    1
     6     8     1    1
     7     1     2    1
     8     5     4    1
     9     4     3    1
    10     2     3    1
    11     2     9    1
