@<TRIPOS>MOLECULE
2wah_BMA_B_1.pdb
 11 11 0 0 0
SMALL
GASTEIGER

@<TRIPOS>ATOM
      1  C1         2.9120  -44.1220   10.1940 C.3   1448  BMA1448     0.1777
      2  C2         3.2790  -42.6380   10.1100 C.3   1448  BMA1448     0.2141
      3  C3         4.3830  -42.2930   11.0990 C.3   1448  BMA1448     0.2173
      4  C4         3.9660  -42.7250   12.5020 C.3   1448  BMA1448     0.2142
      5  C5         3.6410  -44.2140   12.5110 C.3   1448  BMA1448     0.1810
      6  C6         3.2060  -44.6660   13.9080 C.3   1448  BMA1448     0.2141
      7  O2         2.1330  -41.8140   10.3840 O.3   1448  BMA1448    -0.2176
      8  O3         4.6310  -40.8830   11.0450 O.3   1448  BMA1448    -0.2175
      9  O4         5.0080  -42.4640   13.4410 O.3   1448  BMA1448    -0.2176
     10  O5         2.6090  -44.4960   11.5510 O.3   1448  BMA1448    -0.3481
     11  O6         4.3450  -45.1270   14.6460 O.3   1448  BMA1448    -0.2176
@<TRIPOS>BOND
     1     2     1    1
     2     2     7    1
     3     2     3    1
     4     1    10    1
     5     8     3    1
     6     3     4    1
     7    10     5    1
     8     4     5    1
     9     4     9    1
    10     5     6    1
    11     6    11    1
