@<TRIPOS>MOLECULE
2wah_MAN_A_1.pdb
 11 11 0 0 0
SMALL
GASTEIGER

@<TRIPOS>ATOM
      1  C1        -7.5390  -24.8040   25.9610 C.3   1450  MAN1450     0.1777
      2  C2        -7.8740  -25.0820   27.4280 C.3   1450  MAN1450     0.2141
      3  C3        -8.7380  -26.3360   27.5660 C.3   1450  MAN1450     0.2173
      4  C4        -9.9690  -26.2480   26.6770 C.3   1450  MAN1450     0.2142
      5  C5        -9.5470  -25.9220   25.2440 C.3   1450  MAN1450     0.1810
      6  C6       -10.7300  -25.7150   24.3080 C.3   1450  MAN1450     0.2141
      7  O2        -8.5310  -23.9620   27.9830 O.3   1450  MAN1450    -0.2176
      8  O3        -9.2150  -26.4500   28.8820 O.3   1450  MAN1450    -0.2175
      9  O4       -10.6370  -27.4900   26.7370 O.3   1450  MAN1450    -0.2176
     10  O5        -8.7230  -24.7640   25.1870 O.3   1450  MAN1450    -0.3481
     11  O6       -10.2400  -25.8920   22.9950 O.3   1450  MAN1450    -0.2176
@<TRIPOS>BOND
     1    11     6    1
     2     6     5    1
     3    10     5    1
     4    10     1    1
     5     5     4    1
     6     1     2    1
     7     4     9    1
     8     4     3    1
     9     2     3    1
    10     2     7    1
    11     3     8    1
