@<TRIPOS>MOLECULE
2waj_SNB_A_1.pdb
 20 22 0 0 0
SMALL
GASTEIGER

@<TRIPOS>ATOM
      1 CL         18.6030    6.6010   33.1110 Cl    1401  SNB1401    -0.0791
      2  C16       19.9190    7.6810   32.5780 C.ar  1401  SNB1401     0.0915
      3  C2        21.0810    7.1450   32.0540 C.ar  1401  SNB1401     0.1489
      4  O         21.1920    5.7840   31.9400 O.3   1401  SNB1401    -0.4706
      5  C1        22.2100    5.2400   31.0890 C.3   1401  SNB1401     0.2525
      6  C15       19.7610    9.0620   32.6930 C.ar  1401  SNB1401     0.0156
      7  C14       20.7880    9.9010   32.2710 C.ar  1401  SNB1401     0.0144
      8  C4        21.9650    9.3710   31.7450 C.ar  1401  SNB1401    -0.0157
      9  C3        22.1160    7.9900   31.6280 C.ar  1401  SNB1401     0.0336
     10  C7        20.6710   11.3810   32.3810 C.2   1401  SNB1401     0.0757
     11  N         21.4980   12.0690   31.7140 N.2   1401  SNB1401    -0.2701
     12  C6        22.4980   11.6030   30.7510 C.3   1401  SNB1401     0.1302
     13  C5        23.0720   10.2950   31.2860 C.3   1401  SNB1401     0.0528
     14  C8        19.6410   12.0270   33.2790 C.ar  1401  SNB1401     0.0177
     15  C13       19.4250   11.5260   34.5530 C.ar  1401  SNB1401     0.0082
     16  C12       18.4910   12.1230   35.3870 C.ar  1401  SNB1401     0.0346
     17 BR         18.2520   11.4290   37.1280 Br    1401  SNB1401    -0.0490
     18  C11       17.7410   13.2130   34.9450 C.ar  1401  SNB1401     0.0067
     19  C10       17.9310   13.7160   33.6700 C.ar  1401  SNB1401     0.0006
     20  C9        18.8990   13.1210   32.8560 C.ar  1401  SNB1401     0.0015
@<TRIPOS>BOND
     1    12    13    1
     2    12    11    1
     3     5     4    1
     4    13     8    1
     5     9     8   ar
     6     9     3   ar
     7    11    10    2
     8     8     7   ar
     9     4     3    1
    10     3     2   ar
    11     7    10    1
    12     7     6   ar
    13    10    14    1
    14     2     6   ar
    15     2     1    1
    16    20    14   ar
    17    20    19   ar
    18    14    15   ar
    19    19    18   ar
    20    15    16   ar
    21    18    16   ar
    22    16    17    1
