@<TRIPOS>MOLECULE
2wao_BGC_A_1.pdb
 12 12 0 0 0
SMALL
GASTEIGER

@<TRIPOS>ATOM
      1  C2        15.7090   -2.3460   33.9210 C.3   1335  BGC1335     0.2434
      2  C3        15.7200   -3.2520   32.6840 C.3   1335  BGC1335     0.2199
      3  C4        14.3030   -3.6870   32.3040 C.3   1335  BGC1335     0.2144
      4  C5        13.4630   -2.4440   32.0860 C.3   1335  BGC1335     0.1836
      5  C6        12.0490   -2.7700   31.5730 C.3   1335  BGC1335     0.2142
      6  C1        14.6610   -1.2530   33.7400 C.3   1335  BGC1335     0.3024
      7  O1        14.4890   -0.5190   34.9480 O.3   1335  BGC1335    -0.1869
      8  O2        16.9890   -1.7800   34.1690 O.3   1335  BGC1335    -0.2148
      9  O3        16.6040   -4.3390   32.8690 O.3   1335  BGC1335    -0.2174
     10  O4        14.3390   -4.3990   31.0840 O.3   1335  BGC1335    -0.2176
     11  O5        13.4230   -1.8210   33.3590 O.3   1335  BGC1335    -0.3236
     12  O6        11.2100   -3.1250   32.6400 O.3   1335  BGC1335    -0.2176
@<TRIPOS>BOND
     1    10     3    1
     2     5     4    1
     3     5    12    1
     4     4     3    1
     5     4    11    1
     6     3     2    1
     7     2     9    1
     8     2     1    1
     9    11     6    1
    10     6     1    1
    11     6     7    1
    12     1     8    1
