@<TRIPOS>MOLECULE
2wap_PIX_A_1.pdb
 26 28 0 0 0
SMALL
GASTEIGER

@<TRIPOS>ATOM
      1  O9       -12.5720  -11.4210   -4.6340 O.2   1574  PIX1574    -0.2649
      2  C8       -13.5160  -11.2030   -3.8770 C.2   1574  PIX1574     0.3029
      3  N3       -14.6790  -10.6950   -4.2770 N.am  1574  PIX1574    -0.2724
      4  C2       -15.7490  -10.4700   -3.2970 C.3   1574  PIX1574     0.0939
      5  C1       -16.3760   -9.0940   -3.5450 C.3   1574  PIX1574     0.0219
      6  C4       -14.9060  -10.3930   -5.6890 C.3   1574  PIX1574     0.0939
      7  C5       -15.5670   -9.0360   -5.8370 C.3   1574  PIX1574     0.0219
      8  C6       -16.8080   -8.8810   -4.9790 C.3   1574  PIX1574     0.0078
      9  C7       -17.3700   -7.4660   -5.0870 C.3   1574  PIX1574     0.0266
     10  C12      -18.0840   -7.2500   -6.3940 C.ar  1574  PIX1574    -0.0192
     11  C13      -19.4390   -7.4930   -6.4980 C.ar  1574  PIX1574    -0.0041
     12  C14      -20.0980   -7.3070   -7.7090 C.ar  1574  PIX1574     0.0028
     13  C15      -19.3950   -6.8660   -8.8190 C.ar  1574  PIX1574     0.0375
     14  C17      -17.3820   -6.8030   -7.4930 C.ar  1574  PIX1574     0.0333
     15  C16      -18.0350   -6.6290   -8.6970 C.ar  1574  PIX1574     0.1469
     16  O18      -17.3280   -6.1890   -9.7600 O.3   1574  PIX1574    -0.4361
     17  C19      -17.1890   -4.8440   -9.9220 C.ar  1574  PIX1574     0.2297
     18  C20      -17.9130   -3.9590   -9.1220 C.ar  1574  PIX1574     0.0581
     19  C21      -17.7440   -2.5970   -9.3040 C.ar  1574  PIX1574     0.0102
     20  N24      -16.3290   -4.3880  -10.8710 N.ar  1574  PIX1574    -0.2099
     21  C23      -16.1600   -3.0680  -11.0590 C.ar  1574  PIX1574     0.1059
     22  C24      -16.8670   -2.1370  -10.2840 C.ar  1574  PIX1574     0.0907
     23  C25      -16.6690   -0.6590  -10.4900 C.3   1574  PIX1574     0.4200
     24  F28      -16.3400   -0.3870  -11.7320 F     1574  PIX1574    -0.1658
     25  F26      -17.7680    0.0120  -10.1990 F     1574  PIX1574    -0.1658
     26  F27      -15.6770   -0.2570   -9.7210 F     1574  PIX1574    -0.1658
@<TRIPOS>BOND
     1    24    23    1
     2    21    20   ar
     3    21    22   ar
     4    20    17   ar
     5    23    22    1
     6    23    25    1
     7    23    26    1
     8    22    19   ar
     9    17    16    1
    10    17    18   ar
    11    16    15    1
    12    19    18   ar
    13    13    15   ar
    14    13    12   ar
    15    15    14   ar
    16    12    11   ar
    17    14    10   ar
    18    11    10   ar
    19    10     9    1
    20     7     6    1
    21     7     8    1
    22     6     3    1
    23     9     8    1
    24     8     5    1
    25     1     2    2
    26     3     2   am
    27     3     4    1
    28     5     4    1
