@<TRIPOS>MOLECULE
2wat_COA_B_1.pdb
 48 50 0 0 0
SMALL
GASTEIGER

@<TRIPOS>ATOM
      1  N1A       -4.9670   21.1330  -48.3070 N.2   2887  COA2887     0.0021
      2  C2A       -5.4230   20.0460  -47.5990 C.3   2887  COA2887     0.5254
      3  N3A       -5.2580   19.9930  -46.2300 N.2   2887  COA2887    -0.0055
      4  C4A       -4.6540   21.0160  -45.5750 C.2   2887  COA2887     0.3518
      5  C5A       -4.1840   22.1160  -46.2790 C.2   2887  COA2887     0.2526
      6  C6A       -4.3430   22.1790  -47.6550 C.2   2887  COA2887     0.4393
      7  N6A       -4.0250   23.3010  -48.3070 N.pl3 2887  COA2887     0.2180
      8  N7A       -3.6310   22.9710  -45.3950 N.2   2887  COA2887    -0.2095
      9  C8A       -3.7340   22.4440  -44.1520 C.3   2887  COA2887     0.3377
     10  N9A       -4.3620   21.2310  -44.2510 N.pl3 2887  COA2887    -0.1439
     11  C1B       -4.7260   20.3720  -43.1160 C.3   2887  COA2887     0.3185
     12  C2B       -3.5860   20.4010  -42.1150 C.3   2887  COA2887     0.2543
     13  O2B       -3.3660   19.0790  -41.6980 O.3   2887  COA2887    -0.2131
     14  C3B       -4.1030   21.2040  -40.9430 C.3   2887  COA2887     0.1928
     15  O3B       -3.7330   20.6260  -39.7220 O.3   2887  COA2887    -0.2673
     16  P3B       -2.1850   20.6680  -39.2780 P.3   2887  COA2887     0.5327
     17  O7A       -1.6580   19.3050  -39.6280 O.3   2887  COA2887    -0.1145
     18  O8A       -2.0530   20.9450  -37.8030 O.3   2887  COA2887    -0.1145
     19  O9A       -1.4640   21.7540  -40.0220 O.2   2887  COA2887    -0.2224
     20  C4B       -5.6070   21.1220  -41.0970 C.3   2887  COA2887     0.1795
     21  O4B       -5.8620   20.9160  -42.4750 O.3   2887  COA2887    -0.3136
     22  C5B       -6.3230   22.3590  -40.5730 C.3   2887  COA2887     0.1812
     23  O5B       -7.6780   22.0420  -40.7260 O.3   2887  COA2887    -0.3112
     24  P1A       -8.7580   22.3750  -39.6010 P.3   2887  COA2887     0.2189
     25  O1A       -8.1650   22.0620  -38.2490 O.3   2887  COA2887    -0.4371
     26  O2A       -9.9790   21.5230  -39.8610 O.2   2887  COA2887    -0.5170
     27  O3A       -9.1860   23.9270  -39.6190 O.3   2887  COA2887    -0.2703
     28  P2A       -8.2920   25.2270  -39.9070 P.3   2887  COA2887     0.2188
     29  O4A       -9.1810   26.4290  -39.7080 O.2   2887  COA2887    -0.5170
     30  O5A       -7.1020   25.2990  -38.9670 O.3   2887  COA2887    -0.4371
     31  O6A       -7.8100   25.1270  -41.4480 O.3   2887  COA2887    -0.3138
     32  CBP       -8.1450   25.2490  -43.8660 C.3   2887  COA2887     0.0645
     33  CCP       -8.6920   24.8080  -42.5020 C.3   2887  COA2887     0.1519
     34  CDP       -6.8820   24.4710  -44.2100 C.3   2887  COA2887     0.0056
     35  CEP       -9.2110   24.9200  -44.9010 C.3   2887  COA2887     0.0056
     36  CAP       -7.8520   26.7480  -43.9510 C.3   2887  COA2887     0.2312
     37  OAP       -9.0310   27.4870  -43.7620 O.3   2887  COA2887    -0.2131
     38  C9P       -6.7720   27.2280  -43.0220 C.2   2887  COA2887     0.2719
     39  O9P       -5.5080   26.6120  -42.9690 O.2   2887  COA2887    -0.2706
     40  N8P       -7.0910   28.2820  -42.2760 N.am  2887  COA2887    -0.2028
     41  C7P       -6.5830   28.4870  -40.9350 C.3   2887  COA2887     0.1248
     42  C6P       -5.5110   29.5700  -40.9080 C.3   2887  COA2887     0.1102
     43  C5P       -6.1230   30.9120  -41.2280 C.2   2887  COA2887     0.2432
     44  O5P       -7.3570   31.0620  -41.2420 O.2   2887  COA2887    -0.2733
     45  N4P       -5.2540   31.8870  -41.4910 N.am  2887  COA2887    -0.2044
     46  C3P       -5.6740   33.1930  -41.9440 C.3   2887  COA2887     0.1276
     47  C2P       -4.8760   34.2970  -41.2750 C.3   2887  COA2887     0.0920
     48  S1P       -5.9240   35.6640  -40.7470 S.3   2887  COA2887    -0.0802
@<TRIPOS>BOND
     1     7     6    1
     2     1     6    2
     3     1     2    1
     4     6     5    1
     5     2     3    1
     6     5     4    1
     7     5     8    2
     8     3     4    2
     9     4    10    1
    10     8     9    1
    11    35    32    1
    12    10     9    1
    13    10    11    1
    14    34    32    1
    15    36    32    1
    16    36    37    1
    17    36    38    1
    18    32    33    1
    19    11    21    1
    20    11    12    1
    21    38    39    2
    22    38    40   am
    23    33    31    1
    24    21    20    1
    25    40    41    1
    26    12    13    1
    27    12    14    1
    28    46    45    1
    29    46    47    1
    30    45    43   am
    31    31    28    1
    32    47    48    1
    33    44    43    2
    34    43    42    1
    35    20    14    1
    36    20    22    1
    37    14    15    1
    38    41    42    1
    39    23    22    1
    40    23    24    1
    41    19    16    2
    42    28    29    2
    43    28    27    1
    44    28    30    1
    45    26    24    2
    46    15    16    1
    47    17    16    1
    48    27    24    1
    49    24    25    1
    50    16    18    1
