@<TRIPOS>MOLECULE
2wb4_C2E_A_1.pdb
 46 52 0 0 0
SMALL
GASTEIGER

@<TRIPOS>ATOM
      1  P1        12.0440   60.4600   26.7810 P.3   503  C2E503      0.2141
      2  O2P       12.0690   58.9870   27.1050 O.2   503  C2E503     -0.5172
      3  O1P       12.1070   61.4760   27.9240 O.3   503  C2E503     -0.4373
      4  O5'       13.3580   60.7490   25.9010 O.3   503  C2E503     -0.3114
      5  C5'       13.8650   62.0570   25.6760 C.3   503  C2E503      0.1812
      6  C4'       14.9890   62.0510   24.6410 C.3   503  C2E503      0.1771
      7  O4'       16.1100   61.3930   25.2100 O.3   503  C2E503     -0.3327
      8  C3'       14.6930   61.3690   23.3100 C.3   503  C2E503      0.1857
      9  O3'       14.0710   62.2830   22.3760 O.3   503  C2E503     -0.3112
     10  C2'       16.1060   60.9870   22.9040 C.3   503  C2E503      0.2282
     11  O2'       16.7740   62.0610   22.2090 O.3   503  C2E503     -0.2159
     12  C1'       16.8280   60.6630   24.2090 C.3   503  C2E503      0.2292
     13  N9        16.8280   59.1910   24.4990 N.pl3 503  C2E503     -0.2354
     14  C8        16.1940   58.5700   25.5350 C.3   503  C2E503      0.2246
     15  N7        16.4320   57.2300   25.4650 N.2   503  C2E503     -0.2322
     16  C5        17.2130   57.0060   24.3750 C.2   503  C2E503      0.2182
     17  C6        17.7630   55.8630   23.7980 C.1   503  C2E503      0.2372
     18  O6        17.6130   54.6930   24.2230 O.2   503  C2E503     -0.2069
     19  N1        18.5050   55.9680   22.7250 N.2   503  C2E503     -0.2485
     20  C2        18.7440   57.1400   22.1610 C.1   503  C2E503      0.2531
     21  N2        19.5090   57.1070   21.0470 N.pl3 503  C2E503     -0.0226
     22  N3        18.2200   58.2930   22.6640 N.2   503  C2E503     -0.3074
     23  C4        17.4520   58.2420   23.7740 C.2   503  C2E503      0.2300
     24  P11       13.1790   61.4780   21.3220 P.3   503  C2E503      0.2141
     25  O21       13.9660   60.2990   20.8060 O.3   503  C2E503     -0.4373
     26  O11       12.6970   62.4290   20.2410 O.2   503  C2E503     -0.5172
     27  O5A       11.9110   60.8670   22.0940 O.3   503  C2E503     -0.3114
     28  C5A       11.1770   61.6440   23.0100 C.3   503  C2E503      0.1812
     29  C4A       10.1280   60.7430   23.6040 C.3   503  C2E503      0.1771
     30  O4A        9.6180   59.7750   22.6820 O.3   503  C2E503     -0.3327
     31  C3A       10.7150   59.9550   24.7450 C.3   503  C2E503      0.1857
     32  O3A       10.7350   60.7710   25.9020 O.3   503  C2E503     -0.3112
     33  C2A        9.7760   58.7630   24.8280 C.3   503  C2E503      0.2282
     34  O2A        8.6480   59.0400   25.6300 O.3   503  C2E503     -0.2159
     35  C1A        9.3280   58.5490   23.3940 C.3   503  C2E503      0.2292
     36  N91       10.0180   57.4290   22.7000 N.pl3 503  C2E503     -0.2354
     37  C81       10.9840   57.5480   21.7610 C.3   503  C2E503      0.2246
     38  N71       11.3480   56.3380   21.3090 N.2   503  C2E503     -0.2322
     39  C51       10.5980   55.4550   21.9890 C.2   503  C2E503      0.2182
     40  C61       10.5260   54.0810   21.9600 C.1   503  C2E503      0.2372
     41  O61       11.2370   53.4070   21.1990 O.2   503  C2E503     -0.2069
     42  N11        9.6790   53.4770   22.7730 N.2   503  C2E503     -0.2485
     43  C21        8.8920   54.1670   23.5910 C.1   503  C2E503      0.2531
     44  N21        8.0360   53.5100   24.3680 N.pl3 503  C2E503     -0.0226
     45  N31        8.9310   55.5010   23.6680 N.2   503  C2E503     -0.3074
     46  C41        9.7740   56.1520   22.8590 C.2   503  C2E503      0.2300
@<TRIPOS>BOND
     1    26    24    2
     2    25    24    1
     3    21    20    1
     4    41    40    2
     5    38    37    1
     6    38    39    2
     7    24    27    1
     8    24     9    1
     9    37    36    1
    10    40    39    1
    11    40    42    2
    12    39    46    1
    13    27    28    1
    14    20    22    2
    15    20    19    2
    16    11    10    1
    17     9     8    1
    18    22    23    2
    19    30    35    1
    20    30    29    1
    21    36    46    1
    22    36    35    1
    23    19    17    2
    24    42    43    2
    25    46    45    2
    26    10     8    1
    27    10    12    1
    28    28    29    1
    29     8     6    1
    30    35    33    1
    31    43    45    2
    32    43    44    1
    33    29    31    1
    34    23    16    1
    35    23    13    1
    36    17    18    2
    37    17    16    1
    38    12    13    1
    39    12     7    1
    40    16    15    2
    41    13    14    1
    42     6     7    1
    43     6     5    1
    44    31    33    1
    45    31    32    1
    46    33    34    1
    47    15    14    1
    48     5     4    1
    49     4     1    1
    50    32     1    1
    51     1     2    2
    52     1     3    1
