@<TRIPOS>MOLECULE
2wb5_VGB_A_1.pdb
 26 28 0 0 0
SMALL
GASTEIGER

@<TRIPOS>ATOM
      1  CBA       37.1180   40.7830   22.4200 C.3   1628  VGB1628     0.0101
      2  CAN       36.3730   41.9840   21.8530 C.3   1628  VGB1628     0.0868
      3  CAL       34.8300   41.8550   21.8190 C.2   1628  VGB1628     0.2418
      4  OAM       34.1940   40.8890   22.2620 O.2   1628  VGB1628    -0.2733
      5  NAK       34.2570   42.9020   21.2500 N.am  1628  VGB1628    -0.1958
      6  CAC       32.7940   43.0210   21.1110 C.3   1628  VGB1628     0.1941
      7  CAB       32.1550   43.1900   22.4710 C.3   1628  VGB1628     0.2117
      8  OAG       32.2030   44.5760   22.7320 O.3   1628  VGB1628    -0.2180
      9  CAA       30.7170   42.6680   22.4770 C.3   1628  VGB1628     0.2049
     10  OAH       30.1570   42.9940   23.7540 O.3   1628  VGB1628    -0.2185
     11  CAF       30.7730   41.1640   22.2490 C.3   1628  VGB1628     0.1410
     12  CAI       29.4770   40.3640   22.4840 C.3   1628  VGB1628     0.2044
     13  OAJ       28.4160   41.0020   21.8070 O.3   1628  VGB1628    -0.2185
     14  NAE       31.1810   41.0250   20.8510 N.pl3 1628  VGB1628    -0.2758
     15  CAQ       30.8100   40.2080   19.8900 C.3   1628  VGB1628     0.1477
     16  CAD       32.1570   41.8780   20.3130 C.2   1628  VGB1628     0.1822
     17  NAO       32.2980   41.5580   19.0520 N.2   1628  VGB1628    -0.3965
     18  CAP       31.4990   40.5410   18.7870 C.2   1628  VGB1628     0.1082
     19  CAR       31.4280   39.8440   17.4180 C.3   1628  VGB1628     0.0609
     20  CAS       31.2930   40.8880   16.3130 C.3   1628  VGB1628     0.0335
     21  CAT       29.8640   41.4530   16.1900 C.ar  1628  VGB1628    -0.0218
     22  CAU       28.8390   40.6370   15.7040 C.ar  1628  VGB1628    -0.0043
     23  CAV       27.5530   41.1440   15.5490 C.ar  1628  VGB1628    -0.0003
     24  CAW       27.3130   42.4690   15.8980 C.ar  1628  VGB1628    -0.0000
     25  CAX       28.3240   43.2950   16.3920 C.ar  1628  VGB1628    -0.0003
     26  CAY       29.6050   42.7840   16.5420 C.ar  1628  VGB1628    -0.0043
@<TRIPOS>BOND
     1    23    22   ar
     2    23    24   ar
     3    22    21   ar
     4    24    25   ar
     5    21    20    1
     6    21    26   ar
     7    20    19    1
     8    25    26   ar
     9    19    18    1
    10    18    17    2
    11    18    15    1
    12    17    16    2
    13    15    14    1
    14    16    14    1
    15    16     6    1
    16    14    11    1
    17     6     5    1
    18     6     7    1
    19     5     3   am
    20    13    12    1
    21     3     2    1
    22     3     4    2
    23     2     1    1
    24    11     9    1
    25    11    12    1
    26     7     9    1
    27     7     8    1
    28     9    10    1
