@<TRIPOS>MOLECULE
2wb9_GSH_A_1.pdb
 20 19 0 0 0
SMALL
GASTEIGER

@<TRIPOS>ATOM
      1  N1       -10.2050   10.6640   26.7810 N.3   300  GSH300     -0.1208
      2  CA1       -9.8040   11.0590   25.3550 C.3   300  GSH300      0.1948
      3  C1        -8.3350   10.8800   25.2000 C.2   300  GSH300      0.3819
      4  O11       -7.5260   11.1330   26.1770 O.co2 300  GSH300     -0.2441
      5  O12       -7.9040   10.5160   24.0500 O.co2 300  GSH300     -0.2441
      6  CB1      -10.1100   12.5370   25.1960 C.3   300  GSH300      0.0402
      7  CG1       -9.9190   12.9010   23.6770 C.3   300  GSH300      0.0889
      8  CD1      -10.3430   14.3240   23.3480 C.2   300  GSH300      0.2418
      9  OE1      -10.7990   15.0950   24.3590 O.2   300  GSH300     -0.2733
     10  N2       -10.2570   14.8080   22.1650 N.am  300  GSH300     -0.1968
     11  C2       -11.1850   16.2630   20.4710 C.2   300  GSH300      0.2627
     12  O2       -10.7180   15.4160   19.6090 O.2   300  GSH300     -0.2714
     13  N3       -12.0780   17.1400   20.1540 N.am  300  GSH300     -0.1917
     14  CA3      -12.5240   17.2710   18.7540 C.3   300  GSH300      0.2285
     15  C3       -13.9460   16.9980   18.5210 C.2   300  GSH300      0.3865
     16  O31      -14.4920   16.3160   19.4230 O.co2 300  GSH300     -0.2437
     17  O32      -14.4360   17.3820   17.4270 O.co2 300  GSH300     -0.2437
     18  CA2      -10.6620   16.2230   21.8540 C.3   300  GSH300      0.1843
     19  CB2       -9.3210   16.9650   21.7030 C.3   300  GSH300      0.0997
     20  SG2       -9.4190   18.7390   21.7720 S.3   300  GSH300     -0.0797
@<TRIPOS>BOND
     1    17    15   ar
     2    15    14    1
     3    15    16   ar
     4    14    13    1
     5    12    11    2
     6    13    11   am
     7    11    18    1
     8    19    20    1
     9    19    18    1
    10    18    10    1
    11    10     8   am
    12     8     7    1
    13     8     9    2
    14     7     6    1
    15     5     3   ar
    16     6     2    1
    17     3     2    1
    18     3     4   ar
    19     2     1    1
