@<TRIPOS>MOLECULE
2wba_NDP_A_1.pdb
 27 29 0 0 0
SMALL
GASTEIGER

@<TRIPOS>ATOM
      1  PA        -4.0220  -21.7180   12.7340 P.3   1496  NDP1496     0.5327
      2  O1A       -5.3940  -22.0310   13.1980 O.3   1496  NDP1496    -0.1145
      3  O2A       -3.0230  -22.9120   13.1470 O.2   1496  NDP1496    -0.2224
      4  O5B       -3.9500  -21.6310   11.1230 O.3   1496  NDP1496    -0.2675
      5  C5B       -4.6280  -22.5550   10.3050 C.3   1496  NDP1496     0.1860
      6  C4B       -5.5040  -21.8560    9.2680 C.3   1496  NDP1496     0.1822
      7  O4B       -6.0300  -22.8250    8.3840 O.3   1496  NDP1496    -0.3136
      8  C3B       -6.7070  -21.1890    9.9130 C.3   1496  NDP1496     0.2157
      9  O3B       -7.0480  -20.0580    9.1460 O.3   1496  NDP1496    -0.2175
     10  C2B       -7.7980  -22.2390    9.8080 C.3   1496  NDP1496     0.2314
     11  O2B       -9.0630  -21.6530    9.6300 O.3   1496  NDP1496    -0.2630
     12  C1B       -7.4220  -23.0170    8.5600 C.3   1496  NDP1496     0.3158
     13  N9A       -7.7500  -24.4510    8.6950 N.pl3 1496  NDP1496    -0.1439
     14  C8A       -7.7410  -25.1930    9.8480 C.3   1496  NDP1496     0.3377
     15  N7A       -8.0890  -26.4640    9.5550 N.2   1496  NDP1496    -0.2095
     16  C5A       -8.3300  -26.5500    8.2290 C.2   1496  NDP1496     0.2526
     17  C6A       -8.7170  -27.6100    7.4140 C.2   1496  NDP1496     0.4393
     18  N6A       -8.7500  -28.8500    7.9010 N.pl3 1496  NDP1496     0.2180
     19  N1A       -8.8880  -27.3960    6.0610 N.2   1496  NDP1496     0.0021
     20  C2A       -8.6740  -26.1400    5.5260 C.3   1496  NDP1496     0.5254
     21  N3A       -8.2940  -25.0910    6.3410 N.2   1496  NDP1496    -0.0055
     22  C4A       -8.1230  -25.2900    7.6740 C.2   1496  NDP1496     0.3518
     23  O3        -3.5080  -20.4360   13.2750 O.3   1496  NDP1496    -0.1145
     24  P2B      -10.0790  -21.4880   10.8630 P.3   1496  NDP1496     0.5328
     25  O1X      -10.4650  -22.8550   11.3710 O.3   1496  NDP1496    -0.1145
     26  O2X       -9.4420  -20.6580   11.9500 O.3   1496  NDP1496    -0.1145
     27  O3X      -11.3000  -20.7710   10.3380 O.2   1496  NDP1496    -0.2224
@<TRIPOS>BOND
     1    20    19    1
     2    20    21    1
     3    19    17    2
     4    21    22    2
     5    17    18    1
     6    17    16    1
     7    22    16    1
     8    22    13    1
     9    16    15    2
    10     7    12    1
    11     7     6    1
    12    12    13    1
    13    12    10    1
    14    13    14    1
    15     9     8    1
    16     6     8    1
    17     6     5    1
    18    15    14    1
    19    11    10    1
    20    11    24    1
    21    10     8    1
    22     5     4    1
    23    27    24    2
    24    24    25    1
    25    24    26    1
    26     4     1    1
    27     1     3    2
    28     1     2    1
    29     1    23    1
