@<TRIPOS>MOLECULE
2wbb_RO3_A_1.pdb
 20 21 0 0 0
SMALL
GASTEIGER

@<TRIPOS>ATOM
      1  C5         5.1960  -15.5910    7.9160 C.ar  1336  RO31336    -0.0029
      2  C6         5.3350  -14.4510    7.1410 C.ar  1336  RO31336     0.0199
      3  C9         4.6950  -16.7500   10.0740 C.3   1336  RO31336     0.0310
      4  C10        4.8350  -15.4950    9.2570 C.ar  1336  RO31336    -0.0218
      5  C1         7.4780  -10.8590    7.5200 C.2   1336  RO31336     0.3663
      6  O1         6.9980  -10.3970    8.5390 O.2   1336  RO31336    -0.2470
      7  N1         8.7720  -10.6900    7.2190 N.am  1336  RO31336    -0.1345
      8  C4         9.5840   -9.9180    7.9450 C.ar  1336  RO31336     0.1878
      9  O3         4.7650  -12.0650    5.4910 O.2   1336  RO31336    -0.1482
     10  C15       11.2170   -8.4600    8.3020 C.ar  1336  RO31336     0.1141
     11  C14       10.6300   -8.6020    9.5140 C.ar  1336  RO31336     0.0856
     12  C12        4.7120  -13.0970    9.0540 C.ar  1336  RO31336     0.0199
     13  O2         4.5450  -10.7830    7.3600 O.2   1336  RO31336    -0.1482
     14 BR2        11.2740   -7.6460   11.0690 Br    1336  RO31336    -0.0402
     15  S16        9.3990   -9.5990    9.4930 S.2   1336  RO31336    -0.0428
     16  N17       10.5840   -9.2110    7.4210 N.ar  1336  RO31336    -0.2204
     17  N5         6.7500  -11.5770    6.6700 N.am  1336  RO31336    -0.0397
     18  S2         5.2650  -11.8960    6.8220 S.O2  1336  RO31336     0.0967
     19  C11        5.0840  -13.2030    7.7110 C.ar  1336  RO31336     0.1272
     20  C8         4.5880  -14.2450    9.8300 C.ar  1336  RO31336    -0.0029
@<TRIPOS>BOND
     1     9    18    2
     2    17    18    1
     3    17     5   am
     4    18    13    2
     5    18    19    1
     6     2    19   ar
     7     2     1   ar
     8     7     5   am
     9     7     8    1
    10    16     8   ar
    11    16    10   ar
    12     5     6    2
    13    19    12   ar
    14     1     4   ar
    15     8    15   ar
    16    10    11   ar
    17    12    20   ar
    18     4    20   ar
    19     4     3    1
    20    15    11   ar
    21    11    14    1
