@<TRIPOS>MOLECULE
2wbd_RO5_A_1.pdb
 21 22 0 0 0
SMALL
GASTEIGER

@<TRIPOS>ATOM
      1  C5        34.8610   13.8410  -23.2290 C.ar  1337  RO51337     0.0011
      2  C6        36.2530   13.8000  -23.2130 C.ar  1337  RO51337     0.0202
      3  C10       34.1510   13.5390  -22.0780 C.ar  1337  RO51337    -0.0042
      4  C1        39.3890   10.9120  -22.4290 C.2   1337  RO51337     0.3663
      5  O1        39.0970   10.5930  -21.2920 O.2   1337  RO51337    -0.2470
      6  N1        39.8530   10.0460  -23.3190 N.am  1337  RO51337    -0.1345
      7  C4        40.0740    8.8140  -22.9060 C.ar  1337  RO51337     0.1878
      8  O3        39.3080   14.5630  -22.5550 O.2   1337  RO51337    -0.1482
      9  C15       41.0480    6.7670  -22.8370 C.ar  1337  RO51337     0.1141
     10  C14       40.3050    6.5600  -21.7110 C.ar  1337  RO51337     0.0856
     11  C12       36.2350   13.1840  -20.8980 C.ar  1337  RO51337     0.0160
     12  O2        39.0730   13.3430  -20.6190 O.2   1337  RO51337    -0.1482
     13 BR2        40.1840    5.0270  -20.5840 Br    1337  RO51337    -0.0402
     14  S16       39.4330    8.0370  -21.4850 S.2   1337  RO51337    -0.0428
     15  N17       40.9340    7.9280  -23.4190 N.ar  1337  RO51337    -0.2204
     16  N5        39.2490   12.1390  -22.8640 N.am  1337  RO51337    -0.0397
     17  S2        38.6890   13.4090  -21.9990 S.O2  1337  RO51337     0.0966
     18  C11       36.9340   13.4640  -22.0550 C.ar  1337  RO51337     0.1269
     19  C8        34.8430   13.2160  -20.9070 C.ar  1337  RO51337    -0.0208
     20  C20       34.1110   12.9330  -19.6110 C.3   1337  RO51337     0.0264
     21  C21       33.2690   11.7020  -19.7290 C.3   1337  RO51337     0.0050
@<TRIPOS>BOND
     1    15     7   ar
     2    15     9   ar
     3     6     7    1
     4     6     4   am
     5     1     2   ar
     6     1     3   ar
     7     2    18   ar
     8     7    14   ar
     9    16     4   am
    10    16    17    1
    11     9    10   ar
    12     8    17    2
    13     4     5    2
    14     3    19   ar
    15    18    17    1
    16    18    11   ar
    17    17    12    2
    18    10    14   ar
    19    10    13    1
    20    19    11   ar
    21    19    20    1
    22    21    20    1
