@<TRIPOS>MOLECULE
2wbe_GDP_B_1.pdb
 28 30 0 0 0
SMALL
GASTEIGER

@<TRIPOS>ATOM
      1  PB        -6.7300   -0.8820   26.8670 P.3   1438  GDP1438     0.5373
      2  O1B       -6.3800    0.0120   28.1890 O.3   1438  GDP1438    -0.1143
      3  O2B       -6.5640   -2.2580   27.0500 O.3   1438  GDP1438    -0.1143
      4  O3B       -6.0300   -0.2930   25.7100 O.2   1438  GDP1438    -0.2221
      5  O3A       -8.2690   -0.7060   26.5780 O.3   1438  GDP1438    -0.2261
      6  PA        -9.4840   -1.8510   26.4790 P.3   1438  GDP1438     0.2231
      7  O1A       -9.5060   -2.5610   27.8230 O.3   1438  GDP1438    -0.4370
      8  O2A       -9.2340   -2.7220   25.2980 O.2   1438  GDP1438    -0.5169
      9  O5'      -10.7160   -0.9510   26.1800 O.3   1438  GDP1438    -0.3111
     10  C5'      -12.0710   -1.3870   26.5080 C.3   1438  GDP1438     0.1813
     11  C4'      -12.9860   -1.4360   25.3830 C.3   1438  GDP1438     0.1799
     12  O4'      -12.5020   -2.4580   24.4240 O.3   1438  GDP1438    -0.3326
     13  C3'      -14.4250   -1.9780   25.7100 C.3   1438  GDP1438     0.2158
     14  O3'      -15.3520   -1.1800   24.8880 O.3   1438  GDP1438    -0.2175
     15  C2'      -14.5260   -3.4550   25.2590 C.3   1438  GDP1438     0.2310
     16  O2'      -15.7890   -3.9590   24.7870 O.3   1438  GDP1438    -0.2158
     17  C1'      -13.4890   -3.5430   24.1410 C.3   1438  GDP1438     0.2293
     18  N9       -12.7570   -4.8080   24.0890 N.pl3 1438  GDP1438    -0.2354
     19  C8       -11.7590   -5.1240   25.1670 C.3   1438  GDP1438     0.2246
     20  N7       -11.4080   -6.3610   24.5980 N.2   1438  GDP1438    -0.2322
     21  C5       -11.9860   -6.7810   23.4770 C.2   1438  GDP1438     0.2182
     22  C6       -12.0690   -7.8160   22.5220 C.1   1438  GDP1438     0.2372
     23  O6       -11.2490   -8.8650   22.7140 O.2   1438  GDP1438    -0.2069
     24  N1       -12.8740   -7.8010   21.4380 N.2   1438  GDP1438    -0.2485
     25  C2       -13.7610   -6.6230   21.2380 C.1   1438  GDP1438     0.2531
     26  N2       -14.4650   -6.8290   20.1450 N.pl3 1438  GDP1438    -0.0226
     27  N3       -13.7510   -5.6670   22.0700 N.2   1438  GDP1438    -0.3074
     28  C4       -12.9040   -5.7110   23.1160 C.2   1438  GDP1438     0.2300
@<TRIPOS>BOND
     1    26    25    1
     2    25    24    2
     3    25    27    2
     4    24    22    2
     5    27    28    2
     6    22    23    2
     7    22    21    1
     8    28    21    1
     9    28    18    1
    10    21    20    2
    11    18    17    1
    12    18    19    1
    13    17    12    1
    14    17    15    1
    15    12    11    1
    16    20    19    1
    17    16    15    1
    18    14    13    1
    19    15    13    1
    20     8     6    2
    21    11    13    1
    22    11    10    1
    23     4     1    2
    24     9     6    1
    25     9    10    1
    26     6     5    1
    27     6     7    1
    28     5     1    1
    29     1     3    1
    30     1     2    1
