@<TRIPOS>MOLECULE
2wbe_ANP_C_1.pdb
 31 33 0 0 0
SMALL
GASTEIGER

@<TRIPOS>ATOM
      1  PG         6.9980   30.4880   -5.8460 P.3   1358  ANP1358     0.4884
      2  O1G        5.6510   29.8330   -5.8370 O.3   1358  ANP1358    -0.1240
      3  O2G        7.2720   30.8980   -4.4700 O.3   1358  ANP1358    -0.1240
      4  O3G        8.0100   29.4460   -6.2260 O.2   1358  ANP1358    -0.2331
      5  PB         6.5970   33.2990   -6.4410 P.3   1358  ANP1358     0.4669
      6  O1B        5.8340   33.8460   -7.5590 O.2   1358  ANP1358    -0.2351
      7  O2B        7.1900   33.9760   -5.3470 O.3   1358  ANP1358    -0.1253
      8  N3B        7.2880   31.8500   -6.7100 N.3   1358  ANP1358    -0.0163
      9  PA         8.8890   35.0900   -6.7310 P.3   1358  ANP1358     0.2220
     10  O1A        8.5060   36.5000   -6.7550 O.2   1358  ANP1358    -0.5170
     11  O2A       10.2910   34.6170   -6.6490 O.3   1358  ANP1358    -0.4370
     12  O3A        7.7990   34.0210   -7.3100 O.3   1358  ANP1358    -0.2360
     13  O5'        9.4900   35.5290   -8.1530 O.3   1358  ANP1358    -0.3111
     14  C5'        9.1470   35.1520   -9.4830 C.3   1358  ANP1358     0.1813
     15  C4'       10.4880   35.4930  -10.2500 C.3   1358  ANP1358     0.1821
     16  O4'       10.2850   36.6510  -11.1590 O.3   1358  ANP1358    -0.3135
     17  C3'       11.7090   36.0110   -9.4480 C.3   1358  ANP1358     0.2184
     18  O3'       12.9190   35.7380  -10.1590 O.3   1358  ANP1358    -0.2174
     19  C2'       11.3800   37.5040   -9.2870 C.3   1358  ANP1358     0.2570
     20  O2'       12.5730   38.2700   -8.9700 O.3   1358  ANP1358    -0.2130
     21  C1'       10.7990   37.8520  -10.6300 C.3   1358  ANP1358     0.3186
     22  N9         9.7130   38.8840  -10.5650 N.pl3 1358  ANP1358    -0.1439
     23  C8         8.4380   38.7530  -10.1270 C.3   1358  ANP1358     0.3377
     24  N7         7.7460   39.8700  -10.2250 N.2   1358  ANP1358    -0.2095
     25  C5         8.5760   40.7900  -10.7380 C.2   1358  ANP1358     0.2526
     26  C6         8.3670   42.1590  -11.0730 C.2   1358  ANP1358     0.4393
     27  N6         7.3090   42.8320  -10.9370 N.pl3 1358  ANP1358     0.2180
     28  N1         9.5080   42.7580  -11.5850 N.2   1358  ANP1358     0.0021
     29  C2        10.7100   42.1020  -11.7730 C.3   1358  ANP1358     0.5254
     30  N3        10.8960   40.8350  -11.4730 N.2   1358  ANP1358    -0.0055
     31  C4         9.8020   40.2090  -10.9650 C.2   1358  ANP1358     0.3518
@<TRIPOS>BOND
     1    29    28    1
     2    29    30    1
     3    28    26    2
     4    30    31    2
     5    16    21    1
     6    16    15    1
     7    26    27    1
     8    26    25    1
     9    31    25    1
    10    31    22    1
    11    25    24    2
    12    21    22    1
    13    21    19    1
    14    22    23    1
    15    15    14    1
    16    15    17    1
    17    24    23    1
    18    18    17    1
    19    14    13    1
    20    17    19    1
    21    19    20    1
    22    13     9    1
    23     6     5    2
    24    12     9    1
    25    12     5    1
    26    10     9    2
    27     9    11    1
    28     8     5    1
    29     8     1    1
    30     5     7    1
    31     4     1    2
    32     1     2    1
    33     1     3    1
