@<TRIPOS>MOLECULE
2wbg_LGS_A_1.pdb
 22 23 0 0 0
SMALL
GASTEIGER

@<TRIPOS>ATOM
      1  O4         0.8430    7.5450   14.1690 O.3   1446  LGS1446    -0.2184
      2  C4         1.6720    6.6330   13.4690 C.3   1446  LGS1446     0.2066
      3  C5         1.0010    6.2190   12.1540 C.3   1446  LGS1446     0.1557
      4  C6         0.6600    7.3350   11.1680 C.3   1446  LGS1446     0.2308
      5  O6         1.0800    6.8220    9.8780 O.2   1446  LGS1446    -0.4479
      6  C3         1.8340    5.3450   14.2850 C.3   1446  LGS1446     0.2183
      7  O3         2.3120    5.6540   15.5960 O.3   1446  LGS1446    -0.2174
      8  C2         2.8750    4.4130   13.6440 C.3   1446  LGS1446     0.2342
      9  O2         2.8340    3.0940   14.2000 O.3   1446  LGS1446    -0.2156
     10  C1         2.7120    4.2930   12.1090 C.3   1446  LGS1446     0.2646
     11  O1         4.0080    4.3370   11.4810 O.3   1446  LGS1446    -0.1977
     12  N1         1.9430    5.3590   11.4230 N.pl3 1446  LGS1446    -0.2327
     13  C7         1.9110    5.7430   10.0970 C.2   1446  LGS1446     0.2851
     14  N2         2.5470    5.1310    9.0940 N.2   1446  LGS1446    -0.2242
     15  C8         2.3860    5.3470    7.6500 C.3   1446  LGS1446     0.1300
     16  C9         3.5960    6.0670    7.0660 C.3   1446  LGS1446     0.0264
     17  C10        3.5340    6.1340    5.5330 C.3   1446  LGS1446     0.0021
     18  C11        4.7730    6.8200    4.9100 C.3   1446  LGS1446     0.0001
     19  C12        4.5550    6.8210    3.3860 C.3   1446  LGS1446     0.0000
     20  C13        5.5930    7.6750    2.6270 C.3   1446  LGS1446     0.0000
     21  C14        6.9840    7.0190    2.6930 C.3   1446  LGS1446     0.0000
     22  C15        7.9430    7.6770    1.6970 C.3   1446  LGS1446     0.0000
@<TRIPOS>BOND
     1    22    21    1
     2    20    21    1
     3    20    19    1
     4    19    18    1
     5    18    17    1
     6    17    16    1
     7    16    15    1
     8    15    14    1
     9    14    13    2
    10     5    13    1
    11     5     4    1
    12    13    12    1
    13     4     3    1
    14    12    10    1
    15    12     3    1
    16    11    10    1
    17    10     8    1
    18     3     2    1
    19     2     1    1
    20     2     6    1
    21     8     9    1
    22     8     6    1
    23     6     7    1
