@<TRIPOS>MOLECULE
2wbk_M2F_A_1.pdb
 24 25 0 0 0
SMALL
GASTEIGER

@<TRIPOS>ATOM
      1  O1B      -30.6500  -10.2710    3.5540 O.2   1869  M2F1869    -0.1260
      2  N1B      -31.2160  -10.8820    4.6700 N.pl3 1869  M2F1869     0.0607
      3  O2B      -32.5840  -10.6810    4.7750 O.2   1869  M2F1869    -0.1260
      4  C6B      -30.5100  -11.6380    5.5980 C.ar  1869  M2F1869     0.1783
      5  C1A      -31.0280  -11.7740    6.8860 C.ar  1869  M2F1869     0.0513
      6  C2B      -30.4000  -12.5240    7.8840 C.ar  1869  M2F1869     0.1447
      7  N1C      -31.0440  -12.5640    9.0700 N.pl3 1869  M2F1869     0.0577
      8  O3C      -32.0850  -11.6140    9.2780 O.2   1869  M2F1869    -0.1261
      9  O2C      -30.7360  -13.5120   10.0930 O.2   1869  M2F1869    -0.1261
     10  C3B      -29.1800  -13.1790    7.6180 C.ar  1869  M2F1869     0.0273
     11  C4B      -28.6390  -13.0400    6.3390 C.ar  1869  M2F1869     0.0404
     12  C5B      -29.2870  -12.2910    5.3200 C.ar  1869  M2F1869     0.1638
     13  O1       -28.7830  -12.1510    4.0430 O.3   1869  M2F1869    -0.4486
     14  C1       -27.4110  -12.5140    3.7730 C.3   1869  M2F1869     0.3242
     15  O5       -26.5490  -11.6340    4.4760 O.3   1869  M2F1869    -0.3155
     16  C2       -27.1960  -12.3480    2.2920 C.3   1869  M2F1869     0.2631
     17  F2       -27.9040  -13.3070    1.6340 F     1869  M2F1869    -0.2276
     18  C3       -27.5990  -10.9030    1.8540 C.3   1869  M2F1869     0.2233
     19  O3       -28.9880  -10.8770    1.6110 O.3   1869  M2F1869    -0.2171
     20  C4       -27.2700   -9.8970    2.9350 C.3   1869  M2F1869     0.2147
     21  O4       -26.9390   -8.6240    2.4270 O.3   1869  M2F1869    -0.2176
     22  C5       -26.1090  -10.3870    3.8380 C.3   1869  M2F1869     0.1846
     23  C6       -25.7680   -9.3230    4.9680 C.3   1869  M2F1869     0.2142
     24  O6       -26.9430   -9.1310    5.7760 O.3   1869  M2F1869    -0.2176
@<TRIPOS>BOND
     1    19    18    1
     2    17    16    1
     3    18    16    1
     4    18    20    1
     5    16    14    1
     6    21    20    1
     7    20    22    1
     8     1     2    2
     9    14    13    1
    10    14    15    1
    11    22    15    1
    12    22    23    1
    13    13    12    1
    14     2     3    2
    15     2     4    1
    16    23    24    1
    17    12     4   ar
    18    12    11   ar
    19     4     5   ar
    20    11    10   ar
    21     5     6   ar
    22    10     6   ar
    23     6     7    1
    24     7     8    2
    25     7     9    2
