@<TRIPOS>MOLECULE
2wbo_ARG_A_1.pdb
 12 11 0 0 0
SMALL
GASTEIGER

@<TRIPOS>ATOM
      1  N         11.7720    5.8520   17.0890 N.3   1360  ARG1360    -0.1208
      2  CA        12.0080    6.6310   18.3330 C.3   1360  ARG1360     0.1944
      3  C         12.6090    5.7340   19.4050 C.2   1360  ARG1360     0.3819
      4  O         12.4710    4.5180   19.3500 O.co2 1360  ARG1360    -0.2441
      5  CB        10.7010    7.2340   18.8290 C.3   1360  ARG1360     0.0343
      6  CG        10.8460    7.9520   20.1520 C.3   1360  ARG1360     0.0490
      7  CD        10.2550    9.3360   20.1620 C.3   1360  ARG1360     0.2205
      8  NE        10.2300    9.8240   21.5370 N.pl3 1360  ARG1360    -0.0865
      9  CZ         9.4680   10.8130   21.9890 C.cat 1360  ARG1360     0.5346
     10  NH1        8.6370   11.4570   21.1870 N.pl3 1360  ARG1360     0.1354
     11  NH2        9.5370   11.1450   23.2690 N.pl3 1360  ARG1360     0.1354
     12  OXT       13.2610    6.1930   20.3420 O.co2 1360  ARG1360    -0.2441
@<TRIPOS>BOND
     1     1     2    1
     2     2     5    1
     3     2     3    1
     4     5     6    1
     5     4     3   ar
     6     3    12   ar
     7     6     7    1
     8     7     8    1
     9    10     9    1
    10     8     9    2
    11     9    11    1
