@<TRIPOS>MOLECULE
2wbp_ARG_A_1.pdb
 12 11 0 0 0
SMALL
GASTEIGER

@<TRIPOS>ATOM
      1  N         19.1040  -18.9590    1.1460 N.3   1361  ARG1361    -0.1208
      2  CA        18.0940  -18.2330    0.3300 C.3   1361  ARG1361     0.1944
      3  C         16.9100  -19.1410    0.0100 C.2   1361  ARG1361     0.3819
      4  O         16.2420  -18.9800   -1.0100 O.co2 1361  ARG1361    -0.2441
      5  CB        18.7300  -17.7170   -0.9640 C.3   1361  ARG1361     0.0343
      6  CG        18.2090  -16.3580   -1.4030 C.3   1361  ARG1361     0.0490
      7  CD        17.1240  -16.4790   -2.4570 C.3   1361  ARG1361     0.2205
      8  NE        16.3180  -15.2650   -2.5330 N.pl3 1361  ARG1361    -0.0865
      9  CZ        16.6690  -14.1650   -3.1890 C.cat 1361  ARG1361     0.5346
     10  NH1       15.8850  -13.0960   -3.1590 N.pl3 1361  ARG1361     0.1354
     11  NH2       17.7990  -14.1270   -3.8790 N.pl3 1361  ARG1361     0.1354
     12  OXT       16.5840  -20.0560    0.7690 O.co2 1361  ARG1361    -0.2441
@<TRIPOS>BOND
     1    11     9    1
     2     9    10    1
     3     9     8    2
     4     8     7    1
     5     7     6    1
     6     6     5    1
     7     4     3   ar
     8     5     2    1
     9     3     2    1
    10     3    12   ar
    11     2     1    1
