@<TRIPOS>MOLECULE
2wbp_ZZU_A_1.pdb
 13 12 0 0 0
SMALL
GASTEIGER

@<TRIPOS>ATOM
      1  OXT       12.9650    6.4060   20.7090 O.co2 1359  ZZU1359    -0.2440
      2  C         12.3670    6.0070   19.7220 C.2   1359  ZZU1359     0.3844
      3  O         12.4290    4.8040   19.3890 O.co2 1359  ZZU1359    -0.2440
      4  CA        11.6460    7.0550   18.8730 C.3   1359  ZZU1359     0.2245
      5  N         11.4970    6.4560   17.5440 N.3   1359  ZZU1359    -0.1181
      6  CB        10.2670    7.5360   19.4150 C.3   1359  ZZU1359     0.1840
      7  OB         9.5730    6.3510   19.8230 O.3   1359  ZZU1359    -0.2209
      8  CG        10.2030    8.5810   20.5680 C.3   1359  ZZU1359     0.0819
      9  CD        10.1380   10.0820   20.1840 C.3   1359  ZZU1359     0.2231
     10  NE         9.0790   11.0000   20.6970 N.pl3 1359  ZZU1359    -0.0864
     11  CZ         8.8330   11.3130   21.9850 C.cat 1359  ZZU1359     0.5346
     12  NH2        9.4680   10.7640   23.0010 N.pl3 1359  ZZU1359     0.1354
     13  NH1        7.8800   12.1760   22.3150 N.pl3 1359  ZZU1359     0.1354
@<TRIPOS>BOND
     1     5     4    1
     2     4     6    1
     3     4     2    1
     4     3     2   ar
     5     6     7    1
     6     6     8    1
     7     2     1   ar
     8     9     8    1
     9     9    10    1
    10    10    11    2
    11    11    13    1
    12    11    12    1
