@<TRIPOS>MOLECULE
2wbq_ZZU_A_1.pdb
 13 12 0 0 0
SMALL
GASTEIGER

@<TRIPOS>ATOM
      1  OXT       12.7310    6.2280   20.5880 O.co2 1358  ZZU1358    -0.2440
      2  C         12.1800    5.9400   19.5120 C.2   1358  ZZU1358     0.3844
      3  O         12.1300    4.7660   19.0850 O.co2 1358  ZZU1358    -0.2440
      4  CA        11.5570    7.0500   18.6630 C.3   1358  ZZU1358     0.2245
      5  N         11.4030    6.5340   17.3010 N.3   1358  ZZU1358    -0.1181
      6  CB        10.1620    7.4630   19.1740 C.3   1358  ZZU1358     0.1840
      7  OB         9.4530    6.2460   19.4690 O.3   1358  ZZU1358    -0.2209
      8  CG        10.1330    8.3930   20.4030 C.3   1358  ZZU1358     0.0819
      9  CD        10.1420    9.8950   20.0690 C.3   1358  ZZU1358     0.2231
     10  NE         9.0400   10.7720   20.5380 N.pl3 1358  ZZU1358    -0.0864
     11  CZ         8.8490   11.1390   21.8120 C.cat 1358  ZZU1358     0.5346
     12  NH2        9.6310   10.6490   22.7660 N.pl3 1358  ZZU1358     0.1354
     13  NH1        7.8630   11.9600   22.1350 N.pl3 1358  ZZU1358     0.1354
@<TRIPOS>BOND
     1     5     4    1
     2     4     6    1
     3     4     2    1
     4     3     2   ar
     5     6     7    1
     6     6     8    1
     7     2     1   ar
     8     9     8    1
     9     9    10    1
    10    10    11    2
    11    11    13    1
    12    11    12    1
