@<TRIPOS>MOLECULE
2wbv_SIA_A_1.pdb
 21 21 0 0 0
SMALL
GASTEIGER

@<TRIPOS>ATOM
      1  C1       -52.3680  -13.3760  -60.6900 C.2   1545  SIA1545     0.4179
      2  C2       -53.6170  -12.7030  -61.2080 C.3   1545  SIA1545     0.3155
      3  C3       -54.8800  -13.1500  -60.4640 C.3   1545  SIA1545     0.1056
      4  C4       -54.9090  -12.5970  -59.0380 C.3   1545  SIA1545     0.1798
      5  C5       -54.7060  -11.0790  -59.0330 C.3   1545  SIA1545     0.1554
      6  C6       -53.4120  -10.7520  -59.7780 C.3   1545  SIA1545     0.1734
      7  C7       -53.0550   -9.2620  -59.8590 C.3   1545  SIA1545     0.2135
      8  C8       -51.8150   -9.0240  -60.7250 C.3   1545  SIA1545     0.2173
      9  C9       -51.2260   -7.6420  -60.4600 C.3   1545  SIA1545     0.2175
     10  C10      -54.9510   -9.4660  -57.1840 C.2   1545  SIA1545     0.2420
     11  C11      -54.7400   -9.1740  -55.7260 C.3   1545  SIA1545     0.0964
     12  N5       -54.5520  -10.6670  -57.6300 N.am  1545  SIA1545    -0.2020
     13  O1A      -51.2960  -12.7340  -60.7470 O.co2 1545  SIA1545    -0.2401
     14  O1B      -52.4420  -14.5400  -60.2500 O.co2 1545  SIA1545    -0.2401
     15  O2       -53.6950  -13.0670  -62.5850 O.3   1545  SIA1545    -0.1830
     16  O4       -56.1370  -12.9460  -58.4060 O.3   1545  SIA1545    -0.2210
     17  O6       -53.4900  -11.2820  -61.1130 O.3   1545  SIA1545    -0.3220
     18  O7       -54.1410   -8.5070  -60.4090 O.3   1545  SIA1545    -0.2176
     19  O8       -50.8430  -10.0330  -60.4370 O.3   1545  SIA1545    -0.2175
     20  O9       -50.1400   -7.3900  -61.3520 O.3   1545  SIA1545    -0.2175
     21  O10      -55.4650   -8.6390  -57.9220 O.2   1545  SIA1545    -0.2733
@<TRIPOS>BOND
     1    15     2    1
     2    20     9    1
     3     2    17    1
     4     2     1    1
     5     2     3    1
     6    17     6    1
     7    13     1   ar
     8     8     9    1
     9     8    19    1
    10     8     7    1
    11     1    14   ar
    12     3     4    1
    13    18     7    1
    14     7     6    1
    15     6     5    1
    16     4     5    1
    17     4    16    1
    18     5    12    1
    19    21    10    2
    20    12    10   am
    21    10    11    1
