@<TRIPOS>MOLECULE
2wbw_SIA_A_1.pdb
 21 21 0 0 0
SMALL
GASTEIGER

@<TRIPOS>ATOM
      1  C1       -34.7710   42.7690   43.6380 C.2   1366  SIA1366     0.4179
      2  C2       -35.6070   41.5340   43.3510 C.3   1366  SIA1366     0.3155
      3  C3       -35.4420   41.0750   41.8940 C.3   1366  SIA1366     0.1056
      4  C4       -34.0990   40.3820   41.6250 C.3   1366  SIA1366     0.1798
      5  C5       -33.8270   39.2810   42.6560 C.3   1366  SIA1366     0.1554
      6  C6       -33.9620   39.8910   44.0560 C.3   1366  SIA1366     0.1734
      7  C7       -33.6750   38.9270   45.2040 C.3   1366  SIA1366     0.2135
      8  C8       -33.8020   39.6300   46.5600 C.3   1366  SIA1366     0.2173
      9  C9       -33.1390   38.8330   47.6740 C.3   1366  SIA1366     0.2175
     10  C10      -32.2380   37.4420   42.1300 C.2   1366  SIA1366     0.2420
     11  C11      -30.7890   37.0570   42.1130 C.3   1366  SIA1366     0.0964
     12  N5       -32.4970   38.6930   42.5350 N.am  1366  SIA1366    -0.2020
     13  O1A      -34.7170   43.6590   42.7660 O.co2 1366  SIA1366    -0.2401
     14  O1B      -34.1640   42.8740   44.7290 O.co2 1366  SIA1366    -0.2401
     15  O2       -36.9820   41.8630   43.6040 O.3   1366  SIA1366    -0.1830
     16  O4       -34.1000   39.8680   40.2860 O.3   1366  SIA1366    -0.2210
     17  O6       -35.2740   40.4460   44.2280 O.3   1366  SIA1366    -0.3220
     18  O7       -34.5950   37.8280   45.1250 O.3   1366  SIA1366    -0.2176
     19  O8       -33.2000   40.9320   46.5340 O.3   1366  SIA1366    -0.2175
     20  O9       -33.8630   39.0880   48.8850 O.3   1366  SIA1366    -0.2175
     21  O10      -33.1050   36.6540   41.7790 O.2   1366  SIA1366    -0.2733
@<TRIPOS>BOND
     1    16     4    1
     2     4     3    1
     3     4     5    1
     4    21    10    2
     5     3     2    1
     6    11    10    1
     7    10    12   am
     8    12     5    1
     9     5     6    1
    10    13     1   ar
    11     2    15    1
    12     2     1    1
    13     2    17    1
    14     1    14   ar
    15     6    17    1
    16     6     7    1
    17    18     7    1
    18     7     8    1
    19    19     8    1
    20     8     9    1
    21     9    20    1
