@<TRIPOS>MOLECULE
2wc1_FMN_A_1.pdb
 31 33 0 0 0
SMALL
GASTEIGER

@<TRIPOS>ATOM
      1  N1         4.7520   29.0710    1.3240 N.2   183  FMN183     -0.2887
      2  C2         5.0730   29.3490    0.0030 C.1   183  FMN183      0.3669
      3  O2         6.1690   29.0330   -0.4440 O.2   183  FMN183     -0.1744
      4  N3         4.1630   29.9950   -0.8150 N.2   183  FMN183     -0.2300
      5  C4         2.8970   30.3540   -0.3520 C.1   183  FMN183      0.2513
      6  O4         2.1280   31.0240   -1.0720 O.2   183  FMN183     -0.2057
      7  C4A        2.5830   30.0780    0.9770 C.2   183  FMN183      0.2706
      8  N5         1.3500   30.4440    1.4710 N.2   183  FMN183     -0.3841
      9  C5A        1.0300   30.1050    2.7590 C.2   183  FMN183      0.1452
     10  C6        -0.1950   30.3370    3.3480 C.2   183  FMN183      0.0252
     11  C7        -0.7210   30.0610    4.6150 C.2   183  FMN183     -0.0375
     12  C7M       -2.1300   30.3340    5.0410 C.3   183  FMN183      0.0268
     13  C8         0.2370   29.3870    5.4420 C.3   183  FMN183      0.0417
     14  C8M       -0.0680   28.9500    6.8710 C.3   183  FMN183      0.0091
     15  C9         1.5360   29.1030    4.9350 C.2   183  FMN183     -0.0049
     16  C9A        1.9360   29.4560    3.6160 C.2   183  FMN183      0.0795
     17  N10        3.2070   29.1790    3.1400 N.pl3 183  FMN183     -0.2545
     18  C10        3.5180   29.4440    1.8140 C.2   183  FMN183      0.2449
     19  C1'        4.2550   28.5240    4.0050 C.3   183  FMN183      0.1336
     20  C2'        4.9610   29.4700    4.9690 C.3   183  FMN183      0.2048
     21  O2'        5.5630   30.5570    4.3010 O.3   183  FMN183     -0.2185
     22  C3'        5.9900   28.6730    5.7430 C.3   183  FMN183      0.2165
     23  O3'        5.3040   27.7590    6.5610 O.3   183  FMN183     -0.2175
     24  C4'        6.9630   29.4890    6.5950 C.3   183  FMN183      0.2147
     25  O4'        7.8950   28.6000    7.1700 O.3   183  FMN183     -0.2176
     26  C5'        6.2550   30.2950    7.7000 C.3   183  FMN183      0.1892
     27  O5'        7.1590   31.2670    8.1770 O.3   183  FMN183     -0.2674
     28  P          6.9180   32.0540    9.5760 P.3   183  FMN183      0.5327
     29  O1P        8.1040   32.9240    9.7290 O.3   183  FMN183     -0.1145
     30  O2P        5.6270   32.8390    9.4400 O.2   183  FMN183     -0.2224
     31  O3P        6.8310   30.9990   10.6650 O.3   183  FMN183     -0.1145
@<TRIPOS>BOND
     1     6     5    2
     2     4     5    2
     3     4     2    2
     4     3     2    2
     5     5     7    1
     6     2     1    2
     7     7     8    2
     8     7    18    1
     9     1    18    2
    10     8     9    2
    11    18    17    1
    12     9    10    1
    13     9    16    1
    14    17    16    1
    15    17    19    1
    16    10    11    2
    17    16    15    2
    18    19    20    1
    19    21    20    1
    20    11    12    1
    21    11    13    1
    22    15    13    1
    23    20    22    1
    24    13    14    1
    25    22    23    1
    26    22    24    1
    27    24    25    1
    28    24    26    1
    29    26    27    1
    30    27    28    1
    31    30    28    2
    32    28    29    1
    33    28    31    1
