@<TRIPOS>MOLECULE
2wc3_AM3_A_1.pdb
 22 23 0 0 0
SMALL
GASTEIGER

@<TRIPOS>ATOM
      1  O4         0.4080   -0.0410   11.7630 O.3   1446  AM31446    -0.2188
      2  C4         1.6890    0.3380   11.2440 C.3   1446  AM31446     0.2019
      3  C5         1.8200    1.8740   11.1390 C.3   1446  AM31446     0.1258
      4  C6         0.6760    2.5940   10.3810 C.3   1446  AM31446     0.1638
      5  O6         0.3070    3.6430   11.3140 O.3   1446  AM31446    -0.3254
      6  C3         2.8740   -0.1490   12.0980 C.3   1446  AM31446     0.2177
      7  O3         2.9070   -1.5580   12.1860 O.3   1446  AM31446    -0.2175
      8  C2         2.9180    0.4130   13.5280 C.3   1446  AM31446     0.2305
      9  O2         4.2510    0.1860   14.0480 O.3   1446  AM31446    -0.2160
     10  C1         2.6310    1.9250   13.5880 C.3   1446  AM31446     0.2486
     11  O1         1.7810    2.1770   14.6900 O.3   1446  AM31446    -0.2019
     12  N1         1.8160    2.4440   12.4920 N.3   1446  AM31446    -0.2050
     13  C7         0.9160    3.5260   12.5140 C.3   1446  AM31446     0.2601
     14  N2         0.6120    4.3240   13.5520 N.3   1446  AM31446    -0.1769
     15  C8        -0.7070    4.7020   14.1310 C.3   1446  AM31446     0.0926
     16  C9        -1.0960    6.1100   13.7270 C.3   1446  AM31446     0.0189
     17  C10       -1.6840    6.9770   14.8290 C.3   1446  AM31446     0.0015
     18  C11       -3.1450    6.6770   15.1400 C.3   1446  AM31446     0.0000
     19  C12       -3.8480    7.9790   15.5160 C.3   1446  AM31446     0.0000
     20  C13       -5.1960    7.6560   16.1520 C.3   1446  AM31446     0.0000
     21  C14       -5.9040    8.9200   16.6040 C.3   1446  AM31446     0.0000
     22  C15       -6.7890    9.4530   15.4970 C.3   1446  AM31446     0.0000
@<TRIPOS>BOND
     1     4     3    1
     2     4     5    1
     3     3     2    1
     4     3    12    1
     5     2     1    1
     6     2     6    1
     7     5    13    1
     8     6     7    1
     9     6     8    1
    10    12    13    1
    11    12    10    1
    12    13    14    1
    13     8    10    1
    14     8     9    1
    15    14    15    1
    16    10    11    1
    17    16    15    1
    18    16    17    1
    19    17    18    1
    20    18    19    1
    21    22    21    1
    22    19    20    1
    23    20    21    1
