@<TRIPOS>MOLECULE
2wc4_AMF_A_1.pdb
 22 23 0 0 0
SMALL
GASTEIGER

@<TRIPOS>ATOM
      1  O4         0.7280    7.5290   14.3270 O.3   1446  AMF1446    -0.2185
      2  C4         1.6200    6.6390   13.6320 C.3   1446  AMF1446     0.2037
      3  C5         0.9800    6.2960   12.2800 C.3   1446  AMF1446     0.1210
      4  C6         0.5540    7.4960   11.4160 C.3   1446  AMF1446     0.0874
      5  S1         0.6600    6.9870    9.7150 S.3   1446  AMF1446    -0.0785
      6  C3         1.8110    5.3290   14.3850 C.3   1446  AMF1446     0.2182
      7  O3         2.3660    5.5290   15.6720 O.3   1446  AMF1446    -0.2175
      8  C2         2.8660    4.4700   13.6870 C.3   1446  AMF1446     0.2341
      9  O2         2.7650    3.1160   14.1630 O.3   1446  AMF1446    -0.2156
     10  C1         2.7050    4.4200   12.1600 C.3   1446  AMF1446     0.2627
     11  O1         4.0160    4.3950   11.5500 O.3   1446  AMF1446    -0.1977
     12  N1         1.9240    5.4520   11.5040 N.pl3 1446  AMF1446    -0.2605
     13  C7         1.7950    5.7170   10.1190 C.2   1446  AMF1446     0.1562
     14  N2         2.4930    5.0800    9.1530 N.2   1446  AMF1446    -0.2509
     15  C8         2.3840    5.3600    7.7010 C.3   1446  AMF1446     0.1274
     16  C9         3.6330    6.0350    7.1610 C.3   1446  AMF1446     0.0264
     17  C10        3.6000    6.0750    5.6300 C.3   1446  AMF1446     0.0021
     18  C11        4.8600    6.7980    5.1500 C.3   1446  AMF1446     0.0001
     19  C12        4.9050    6.8160    3.6270 C.3   1446  AMF1446     0.0000
     20  C13        6.3550    6.9580    3.1520 C.3   1446  AMF1446     0.0000
     21  C14        6.3940    7.8860    1.9490 C.3   1446  AMF1446     0.0000
     22  C15        7.8090    8.4080    1.7750 C.3   1446  AMF1446     0.0000
@<TRIPOS>BOND
     1    22    21    1
     2    21    20    1
     3    20    19    1
     4    19    18    1
     5    18    17    1
     6    17    16    1
     7    16    15    1
     8    15    14    1
     9    14    13    2
    10     5    13    1
    11     5     4    1
    12    13    12    1
    13     4     3    1
    14    12    10    1
    15    12     3    1
    16    11    10    1
    17    10     8    1
    18     3     2    1
    19     2     1    1
    20     2     6    1
    21     8     9    1
    22     8     6    1
    23     6     7    1
