@<TRIPOS>MOLECULE
2wc5_BOM_A_1.pdb
 17 16 0 0 0
SMALL
GASTEIGER

@<TRIPOS>ATOM
      1  O1        14.2230    1.5600   22.1650 O.3   1143  BOM1143    -0.2204
      2  C2        13.2690    0.4280   22.2400 C.3   1143  BOM1143     0.1821
      3  C4        12.1900    0.4210   21.1770 C.3   1143  BOM1143     0.0355
      4  C7        11.1830   -0.6940   21.3270 C.3   1143  BOM1143     0.0027
      5  C10       10.0290   -0.6650   20.3220 C.3   1143  BOM1143     0.0001
      6  C13       10.1460   -1.8480   19.3560 C.3   1143  BOM1143     0.0000
      7  C16        8.8680   -2.7100   19.1610 C.3   1143  BOM1143     0.0000
      8  C19        9.0530   -3.8750   18.1490 C.3   1143  BOM1143     0.0003
      9  C22        9.2410   -3.3410   16.7360 C.3   1143  BOM1143     0.0047
     10  C25        8.7680   -4.0570   15.4650 C.3   1143  BOM1143     0.0260
     11  C28        7.4850   -4.8720   15.5300 C.2   1143  BOM1143    -0.0261
     12  C31        6.2950   -4.6270   14.9560 C.2   1143  BOM1143    -0.0049
     13  C33        5.2170   -5.6090   15.1990 C.2   1143  BOM1143    -0.0049
     14  C35        3.9980   -5.3470   15.7300 C.2   1143  BOM1143    -0.0261
     15  C37        3.5090   -3.9650   16.1300 C.3   1143  BOM1143     0.0260
     16  C39        3.6660   -3.5760   17.6080 C.3   1143  BOM1143     0.0047
     17  C42        5.1060   -3.2850   17.9870 C.3   1143  BOM1143     0.0004
@<TRIPOS>BOND
     1    12    13    1
     2    12    11    2
     3    13    14    2
     4    10    11    1
     5    10     9    1
     6    14    15    1
     7    15    16    1
     8     9     8    1
     9    16    17    1
    10     8     7    1
    11     7     6    1
    12     6     5    1
    13     5     4    1
    14     3     4    1
    15     3     2    1
    16     1     2    1
