@<TRIPOS>MOLECULE
2wc6_BOM_A_1.pdb
 17 16 0 0 0
SMALL
GASTEIGER

@<TRIPOS>ATOM
      1  O1        12.5680    0.0010   21.6290 O.3   1143  BOM1143    -0.2204
      2  C2        11.1580   -0.0890   21.3930 C.3   1143  BOM1143     0.1821
      3  C4        10.7870   -1.0780   20.3030 C.3   1143  BOM1143     0.0355
      4  C7         9.3660   -0.7800   19.8450 C.3   1143  BOM1143     0.0027
      5  C10        8.5910   -2.0970   19.6890 C.3   1143  BOM1143     0.0001
      6  C13        8.6300   -2.6090   18.2540 C.3   1143  BOM1143     0.0000
      7  C16        9.2670   -3.9840   18.1510 C.3   1143  BOM1143     0.0000
      8  C19        9.5210   -4.3510   16.6990 C.3   1143  BOM1143     0.0003
      9  C22        8.6690   -3.5360   15.7640 C.3   1143  BOM1143     0.0047
     10  C25        8.0100   -4.3170   14.6450 C.3   1143  BOM1143     0.0260
     11  C28        6.8580   -5.1410   15.1630 C.2   1143  BOM1143    -0.0261
     12  C31        5.6120   -4.8590   14.8350 C.2   1143  BOM1143    -0.0049
     13  C33        4.5430   -5.6990   15.3620 C.2   1143  BOM1143    -0.0049
     14  C35        3.5440   -5.1920   16.0740 C.2   1143  BOM1143    -0.0261
     15  C37        3.4460   -3.7130   16.3560 C.3   1143  BOM1143     0.0260
     16  C39        3.6800   -3.3860   17.8280 C.3   1143  BOM1143     0.0047
     17  C42        5.1720   -3.3070   18.0630 C.3   1143  BOM1143     0.0004
@<TRIPOS>BOND
     1    10    11    1
     2    10     9    1
     3    12    11    2
     4    12    13    1
     5    13    14    2
     6     9     8    1
     7    14    15    1
     8    15    16    1
     9     8     7    1
    10    16    17    1
    11     7     6    1
    12     6     5    1
    13     5     4    1
    14     4     3    1
    15     3     2    1
    16     2     1    1
