@<TRIPOS>MOLECULE
2wca_NP6_A_1.pdb
 27 28 0 0 0
SMALL
GASTEIGER

@<TRIPOS>ATOM
      1  C2       -11.6300  -11.9620    3.9150 C.3   900  NP6900      0.0005
      2  C1       -10.8660  -11.3430    5.0790 C.3   900  NP6900      0.0096
      3  C3        -9.7790  -12.2600    5.6170 C.3   900  NP6900      0.0868
      4  C4        -9.1080  -11.5830    6.8330 C.2   900  NP6900      0.2418
      5  O1        -9.3390  -10.4000    7.1020 O.2   900  NP6900     -0.2733
      6  N1        -8.2990  -12.3810    7.5430 N.am  900  NP6900     -0.1948
      7  C5        -7.5410  -11.9910    8.7700 C.3   900  NP6900      0.2065
      8  C6        -8.4910  -11.6570    9.9340 C.3   900  NP6900      0.2146
      9  O2        -8.7880  -12.8410   10.6560 O.3   900  NP6900     -0.2179
     10  C7        -7.8700  -10.6270   10.8640 C.3   900  NP6900      0.2266
     11  O3        -8.7600  -10.3290   11.9490 O.3   900  NP6900     -0.2163
     12  C8        -7.6560   -9.3410   10.0690 C.3   900  NP6900      0.2328
     13  C9        -7.1080   -8.1250   10.8560 C.3   900  NP6900      0.2281
     14  O4        -5.9500   -8.4830   11.6000 O.3   900  NP6900     -0.2163
     15  O5        -6.7550   -9.5630    8.9930 O.2   900  NP6900     -0.4583
     16  C10       -6.5490  -10.8350    8.5180 C.2   900  NP6900      0.2599
     17  N2        -5.4220  -11.0460    7.8390 N.2   900  NP6900     -0.0369
     18  O6        -4.5350  -10.0080    7.6740 O.3   900  NP6900     -0.2944
     19  C11       -3.2740  -10.4050    7.2640 C.2   900  NP6900      0.4504
     20  O7        -2.3680   -9.5680    7.1710 O.2   900  NP6900     -0.2218
     21  N3        -3.0940  -11.7220    6.9990 N.am  900  NP6900     -0.1406
     22  C12       -2.0090  -12.3690    6.5050 C.ar  900  NP6900      0.0768
     23  C13       -2.1290  -13.7370    6.2340 C.ar  900  NP6900      0.0167
     24  C14       -1.0640  -14.4730    5.7020 C.ar  900  NP6900      0.0013
     25  C15        0.1500  -13.8360    5.4220 C.ar  900  NP6900      0.0001
     26  C16        0.2770  -12.4670    5.6660 C.ar  900  NP6900      0.0013
     27  C17       -0.7940  -11.7390    6.2020 C.ar  900  NP6900      0.0167
@<TRIPOS>BOND
     1     1     2    1
     2     2     3    1
     3    25    26   ar
     4    25    24   ar
     5     3     4    1
     6    26    27   ar
     7    24    23   ar
     8    27    22   ar
     9    23    22   ar
    10    22    21    1
    11     4     5    2
    12     4     6   am
    13    21    19   am
    14    20    19    2
    15    19    18    1
    16     6     7    1
    17    18    17    1
    18    17    16    2
    19    16     7    1
    20    16    15    1
    21     7     8    1
    22    15    12    1
    23     8     9    1
    24     8    10    1
    25    12    13    1
    26    12    10    1
    27    13    14    1
    28    10    11    1
