@<TRIPOS>MOLECULE
2wcg_NAG_A_1.pdb
 14 14 0 0 0
SMALL
GASTEIGER

@<TRIPOS>ATOM
      1  C1        -5.1780   -3.3880  -64.3970 C.3   1499  NAG1499     0.1665
      2  C2        -4.9090   -1.9040  -64.5330 C.3   1499  NAG1499     0.1576
      3  C3        -3.5730   -1.7990  -65.2560 C.3   1499  NAG1499     0.2069
      4  C4        -2.5400   -2.5660  -64.4340 C.3   1499  NAG1499     0.2134
      5  C5        -3.0020   -3.9960  -64.1200 C.3   1499  NAG1499     0.1809
      6  C6        -2.0190   -4.7760  -63.2550 C.3   1499  NAG1499     0.2141
      7  C7        -6.5260   -0.0930  -64.5710 C.2   1499  NAG1499     0.2420
      8  C8        -7.7530    0.5580  -65.1790 C.3   1499  NAG1499     0.0964
      9  N2        -6.0160   -1.1860  -65.1710 N.am  1499  NAG1499    -0.2019
     10  O3        -3.1770   -0.4420  -65.3600 O.3   1499  NAG1499    -0.2184
     11  O4        -1.3520   -2.5940  -65.1870 O.3   1499  NAG1499    -0.2176
     12  O5        -4.2590   -3.9410  -63.4910 O.3   1499  NAG1499    -0.3489
     13  O6        -1.6070   -3.9580  -62.2060 O.3   1499  NAG1499    -0.2176
     14  O7        -6.0120    0.4090  -63.5620 O.2   1499  NAG1499    -0.2733
@<TRIPOS>BOND
     1    10     3    1
     2     3     2    1
     3     3     4    1
     4    11     4    1
     5     8     7    1
     6     9     7   am
     7     9     2    1
     8     7    14    2
     9     2     1    1
    10     4     5    1
    11     1    12    1
    12     5    12    1
    13     5     6    1
    14     6    13    1
