@<TRIPOS>MOLECULE
2wcg_MT5_A_1.pdb
 14 15 0 0 0
SMALL
GASTEIGER

@<TRIPOS>ATOM
      1  N9       -24.5140  -17.0110  -38.3320 N.pl3 1509  MT51509     0.1440
      2  C10      -24.3030  -16.5890  -39.5890 C.2   1509  MT51509     0.4490
      3  N11      -23.4540  -15.6180  -39.9860 N.2   1509  MT51509    -0.0922
      4  C12      -23.5070  -15.4480  -41.4370 C.3   1509  MT51509     0.2598
      5  C13      -24.5410  -16.5030  -41.8660 C.3   1509  MT51509     0.2170
      6  N14      -24.9760  -17.1480  -40.6480 N.am  1509  MT51509    -0.1379
      7  C15      -25.9600  -18.1570  -40.6510 C.2   1509  MT51509     0.3205
      8  O16      -25.6760  -19.3890  -40.1450 O.2   1509  MT51509    -0.2536
      9  C17      -26.8270  -18.2540  -41.9000 C.3   1509  MT51509     0.2764
     10  O18      -26.9570  -19.5750  -42.4770 O.3   1509  MT51509    -0.2087
     11  C19      -26.4850  -17.2570  -43.0140 C.3   1509  MT51509     0.2261
     12  O20      -27.7150  -16.8290  -43.5320 O.3   1509  MT51509    -0.2169
     13  C21      -25.7960  -16.0120  -42.4650 C.3   1509  MT51509     0.2230
     14  O22      -25.4830  -15.0600  -43.4370 O.3   1509  MT51509    -0.2167
@<TRIPOS>BOND
     1    12    11    1
     2    14    13    1
     3    11    13    1
     4    11     9    1
     5    10     9    1
     6    13     5    1
     7     9     7    1
     8     5     4    1
     9     5     6    1
    10     4     3    1
    11     7     6   am
    12     7     8    2
    13     6     2    1
    14     3     2    2
    15     2     1    1
