@<TRIPOS>MOLECULE
2wch_B7M_A_1.pdb
 17 16 0 0 0
SMALL
GASTEIGER

@<TRIPOS>ATOM
      1  O         10.9660   -3.0880   18.3940 O.2   1145  B7M1145    -0.2883
      2  C16        9.8340   -3.6090   18.2810 C.2   1145  B7M1145     0.2074
      3  C15        9.5740   -4.5970   17.1480 C.3   1145  B7M1145     0.0722
      4  C14        8.3420   -5.4780   17.3460 C.3   1145  B7M1145     0.0082
      5  C13        8.4100   -6.7140   16.4440 C.3   1145  B7M1145     0.0005
      6  C12        7.2500   -6.8460   15.4590 C.3   1145  B7M1145     0.0004
      7  C11        7.1060   -8.2280   14.8360 C.3   1145  B7M1145     0.0047
      8  C10        5.9160   -8.3260   13.8760 C.3   1145  B7M1145     0.0260
      9  C9         5.2930   -9.7180   13.8940 C.2   1145  B7M1145    -0.0261
     10  C8         3.7560   -9.8380   13.8390 C.2   1145  B7M1145    -0.0046
     11  C7         2.9300   -8.5750   14.0640 C.2   1145  B7M1145    -0.0003
     12  C6         2.8740   -8.0140   15.2790 C.2   1145  B7M1145    -0.0003
     13  C5         2.1020   -6.8140   15.5860 C.2   1145  B7M1145    -0.0046
     14  C4         2.6210   -5.5900   15.7100 C.2   1145  B7M1145    -0.0261
     15  C3         4.0860   -5.2770   15.5250 C.3   1145  B7M1145     0.0260
     16  C2         4.6940   -4.8040   16.8300 C.3   1145  B7M1145     0.0047
     17  C1         5.1660   -3.3660   16.7260 C.3   1145  B7M1145     0.0004
@<TRIPOS>BOND
     1    10     9    2
     2    10    11    1
     3     8     9    1
     4     8     7    1
     5    11    12    2
     6     7     6    1
     7    12    13    1
     8     6     5    1
     9    15    14    1
    10    15    16    1
    11    13    14    2
    12     5     4    1
    13    17    16    1
    14     3     4    1
    15     3     2    1
    16     2     1    2
