@<TRIPOS>MOLECULE
2wci_GSH_A_1.pdb
 20 19 0 0 0
SMALL
GASTEIGER

@<TRIPOS>ATOM
      1  N1        28.4810   22.4760    0.7660 N.3   1115  GSH1115    -0.1208
      2  CA1       28.4190   22.7380    2.1870 C.3   1115  GSH1115     0.1948
      3  C1        28.5670   21.4280    2.9590 C.2   1115  GSH1115     0.3819
      4  O11       28.8110   21.3410    4.1760 O.co2 1115  GSH1115    -0.2441
      5  O12       28.2650   20.3770    2.3570 O.co2 1115  GSH1115    -0.2441
      6  CB1       29.1730   24.0090    2.5340 C.3   1115  GSH1115     0.0402
      7  CG1       29.7270   24.1720    3.9420 C.3   1115  GSH1115     0.0889
      8  CD1       30.3750   25.5480    3.9550 C.2   1115  GSH1115     0.2418
      9  OE1       30.5650   26.2420    2.7670 O.2   1115  GSH1115    -0.2733
     10  N2        30.8110   26.0470    5.0940 N.am  1115  GSH1115    -0.1968
     11  CA2       31.5450   27.3140    5.1100 C.3   1115  GSH1115     0.1843
     12  C2        32.6770   27.2410    6.1300 C.2   1115  GSH1115     0.2627
     13  O2        32.5480   26.3050    7.1200 O.2   1115  GSH1115    -0.2714
     14  CB2       30.5900   28.4880    5.3600 C.3   1115  GSH1115     0.0997
     15  SG2       29.6520   28.2570    6.8900 S.3   1115  GSH1115    -0.0797
     16  N3        33.7410   28.0770    6.0880 N.am  1115  GSH1115    -0.1917
     17  CA3       34.8180   28.0060    7.0580 C.3   1115  GSH1115     0.2285
     18  C3        34.6140   28.8910    8.2400 C.2   1115  GSH1115     0.3865
     19  O31       35.3420   28.7400    9.2360 O.co2 1115  GSH1115    -0.2437
     20  O32       33.7500   29.8040    8.2290 O.co2 1115  GSH1115    -0.2437
@<TRIPOS>BOND
     1     1     2    1
     2     2     6    1
     3     2     3    1
     4     5     3   ar
     5     6     7    1
     6     9     8    2
     7     3     4   ar
     8     7     8    1
     9     8    10   am
    10    10    11    1
    11    11    14    1
    12    11    12    1
    13    14    15    1
    14    16    12   am
    15    16    17    1
    16    12    13    2
    17    17    18    1
    18    20    18   ar
    19    18    19   ar
