@<TRIPOS>MOLECULE
2wcj_M21_A_1.pdb
 15 14 0 0 0
SMALL
GASTEIGER

@<TRIPOS>ATOM
      1  C1         2.4950   -7.0920   15.3260 C.3   1147  M211147     0.0004
      2  C2         2.3030   -8.4480   14.6550 C.3   1147  M211147     0.0047
      3  C3         3.2770   -9.0910   14.0090 C.3   1147  M211147     0.0257
      4  C4         4.5630   -8.3750   13.9790 C.2   1147  M211147    -0.0307
      5  C5         5.6810   -8.9250   13.5570 C.2   1147  M211147    -0.0307
      6  C6         6.9190   -8.0660   13.5880 C.3   1147  M211147     0.0257
      7  C7         7.4170   -8.1250   15.0100 C.3   1147  M211147     0.0047
      8  C8         7.6060   -6.7090   15.4790 C.3   1147  M211147     0.0003
      9  C9         7.6580   -6.6950   16.9850 C.3   1147  M211147     0.0000
     10  C10        8.4950   -5.5180   17.4600 C.3   1147  M211147     0.0000
     11  C11        7.5650   -4.3050   17.5380 C.3   1147  M211147     0.0001
     12  C12        8.3360   -3.0060   17.5800 C.3   1147  M211147     0.0027
     13  C13        9.2610   -3.0790   18.7870 C.3   1147  M211147     0.0355
     14  C14       10.7100   -2.8300   18.4280 C.3   1147  M211147     0.1821
     15  O         11.2780   -1.9130   19.3640 O.3   1147  M211147    -0.2204
@<TRIPOS>BOND
     1     5     6    1
     2     5     4    2
     3     6     7    1
     4     4     3    1
     5     3     2    1
     6     2     1    1
     7     7     8    1
     8     8     9    1
     9     9    10    1
    10    10    11    1
    11    11    12    1
    12    12    13    1
    13    14    13    1
    14    14    15    1
