@<TRIPOS>MOLECULE
2wcl_B8M_A_1.pdb
 17 16 0 0 0
SMALL
GASTEIGER

@<TRIPOS>ATOM
      1  C16        4.1100   -5.2220   16.0940 C.3   1145  B8M1145     0.0000
      2  C15        2.8980   -5.8610   15.4390 C.3   1145  B8M1145     0.0000
      3  C14        2.8210   -7.3410   15.7050 C.3   1145  B8M1145     0.0003
      4  C13        2.5580   -8.1950   14.4640 C.3   1145  B8M1145     0.0047
      5  C12        2.9600   -9.6380   14.8180 C.3   1145  B8M1145     0.0257
      6  C11        3.8140  -10.3950   13.8080 C.2   1145  B8M1145    -0.0307
      7  C10        5.0010  -10.0150   13.3350 C.2   1145  B8M1145    -0.0307
      8  C9         5.6150   -8.7600   13.7340 C.3   1145  B8M1145     0.0257
      9  C8         6.3710   -8.6580   14.8090 C.3   1145  B8M1145     0.0047
     10  C7         6.8990   -7.2660   15.0600 C.3   1145  B8M1145     0.0003
     11  C6         7.9610   -7.2210   16.1580 C.3   1145  B8M1145     0.0000
     12  C5         7.7780   -6.0820   17.1710 C.3   1145  B8M1145     0.0000
     13  C4         8.2020   -4.7100   16.6220 C.3   1145  B8M1145     0.0001
     14  C3         8.3330   -3.5690   17.6340 C.3   1145  B8M1145     0.0027
     15  C2         9.4940   -3.8090   18.6020 C.3   1145  B8M1145     0.0355
     16  C1        10.7750   -3.1430   18.1330 C.3   1145  B8M1145     0.1821
     17  O         11.2010   -2.2500   19.1290 O.3   1145  B8M1145    -0.2204
@<TRIPOS>BOND
     1     7     8    1
     2     7     6    2
     3     8     9    1
     4     6     5    1
     5     4     5    1
     6     4     3    1
     7     9    10    1
     8    10    11    1
     9     2     3    1
    10     2     1    1
    11    11    12    1
    12    13    12    1
    13    13    14    1
    14    14    15    1
    15    16    15    1
    16    16    17    1
