@<TRIPOS>MOLECULE
2wcm_B9M_A_1.pdb
 17 16 0 0 0
SMALL
GASTEIGER

@<TRIPOS>ATOM
      1  C16        7.7690   -0.0300   20.4980 C.3   1143  B9M1143     0.0011
      2  C15        7.5160   -0.8370   19.2420 C.3   1143  B9M1143     0.0140
      3  C14        6.0680   -0.7320   18.7720 C.3   1143  B9M1143     0.0764
      4  C13        5.5380   -2.0070   18.2360 C.1   1143  B9M1143    -0.0864
      5  C12        5.1330   -3.0380   17.7950 C.1   1143  B9M1143    -0.0641
      6  C11        4.9000   -4.1000   17.1670 C.2   1143  B9M1143     0.0447
      7  C10        4.2430   -4.2630   16.0170 C.2   1143  B9M1143    -0.0173
      8  C9         4.2210   -5.6690   15.4290 C.3   1143  B9M1143     0.0267
      9  C8         5.6460   -6.1100   15.0220 C.3   1143  B9M1143     0.0047
     10  C7         6.6990   -4.9750   15.0830 C.3   1143  B9M1143     0.0003
     11  C6         7.7740   -5.0900   16.2010 C.3   1143  B9M1143     0.0000
     12  C5         8.4780   -3.7540   16.5750 C.3   1143  B9M1143     0.0000
     13  C4         9.4180   -3.8040   17.8020 C.3   1143  B9M1143     0.0001
     14  C3        10.0730   -2.4470   18.1490 C.3   1143  B9M1143     0.0027
     15  C2        10.6850   -2.2780   19.5690 C.3   1143  B9M1143     0.0355
     16  C1        11.6690   -1.0490   19.6350 C.3   1143  B9M1143     0.1821
     17  O         12.0290   -0.4880   20.9590 O.3   1143  B9M1143    -0.2204
@<TRIPOS>BOND
     1     9    10    1
     2     9     8    1
     3    10    11    1
     4     8     7    1
     5     7     6    2
     6    11    12    1
     7    12    13    1
     8     6     5    1
     9     5     4    3
    10    13    14    1
    11    14    15    1
    12     4     3    1
    13     3     2    1
    14     2     1    1
    15    15    16    1
    16    16    17    1
