@<TRIPOS>MOLECULE
2wco_GC4_A_1.pdb
 11 11 0 0 0
SMALL
GASTEIGER

@<TRIPOS>ATOM
      1  C1        27.0400   19.0190   29.7860 C.3   1769  GC41769     0.1781
      2  C2        26.3080   17.6700   29.7820 C.3   1769  GC41769     0.2116
      3  C3        25.3110   17.6680   28.6150 C.3   1769  GC41769     0.1877
      4  C4        24.5400   18.9720   28.4220 C.3   1769  GC41769     0.0769
      5  C5        25.2860   20.2590   28.7960 C.3   1769  GC41769     0.2204
      6  O5        26.0890   20.1010   29.9500 O.3   1769  GC41769    -0.3422
      7  C6        24.4450   21.5020   28.8640 C.2   1769  GC41769     0.3914
      8  O6A       23.6340   21.7480   27.9610 O.co2 1769  GC41769    -0.2430
      9  O6B       24.6310   22.3440   29.7790 O.co2 1769  GC41769    -0.2430
     10  O2        27.2150   16.5710   29.7170 O.3   1769  GC41769    -0.2177
     11  O3        24.3470   16.6270   28.8130 O.3   1769  GC41769    -0.2202
@<TRIPOS>BOND
     1     8     7   ar
     2     4     3    1
     3     4     5    1
     4     3    11    1
     5     3     2    1
     6     5     7    1
     7     5     6    1
     8     7     9   ar
     9    10     2    1
    10     2     1    1
    11     1     6    1
