@<TRIPOS>MOLECULE
2wcu_FUC_A_1.pdb
 11 11 0 0 0
SMALL
GASTEIGER

@<TRIPOS>ATOM
      1  C1       -41.0510   18.0770    7.9210 C.3   1150  FUC1150     0.3023
      2  C2       -41.3910   16.5870    8.1760 C.3   1150  FUC1150     0.2434
      3  C3       -41.5560   16.3260    9.6850 C.3   1150  FUC1150     0.2198
      4  C4       -42.6470   17.2650   10.2390 C.3   1150  FUC1150     0.2118
      5  C5       -42.2140   18.7300    9.9530 C.3   1150  FUC1150     0.1509
      6  C6       -43.2790   19.6870   10.4930 C.3   1150  FUC1150     0.0350
      7  O1       -39.7640   18.3880    8.4600 O.3   1150  FUC1150    -0.1869
      8  O2       -40.3790   15.7460    7.6320 O.3   1150  FUC1150    -0.2148
      9  O3       -41.9010   14.9470    9.9120 O.3   1150  FUC1150    -0.2174
     10  O4       -43.9030   16.9650    9.6150 O.3   1150  FUC1150    -0.2177
     11  O5       -42.0680   18.9480    8.5080 O.3   1150  FUC1150    -0.3264
@<TRIPOS>BOND
     1     8     2    1
     2     1     2    1
     3     1     7    1
     4     1    11    1
     5     2     3    1
     6    11     5    1
     7    10     4    1
     8     3     9    1
     9     3     4    1
    10     5     4    1
    11     5     6    1
