@<TRIPOS>MOLECULE
2wcv_FUC_A_1.pdb
 11 11 0 0 0
SMALL
GASTEIGER

@<TRIPOS>ATOM
      1  C1        16.2850  -24.6490   22.6780 C.3   1141  FUC1141     0.3023
      2  C2        16.8600  -23.5060   21.8100 C.3   1141  FUC1141     0.2434
      3  C3        17.0660  -22.2560   22.6820 C.3   1141  FUC1141     0.2198
      4  C4        18.0020  -22.6050   23.8510 C.3   1141  FUC1141     0.2118
      5  C5        17.3620  -23.7630   24.6600 C.3   1141  FUC1141     0.1509
      6  C6        18.2840  -24.1330   25.8260 C.3   1141  FUC1141     0.0350
      7  O1        14.9830  -24.2820   23.1500 O.3   1141  FUC1141    -0.1869
      8  O2        15.9840  -23.2180   20.7200 O.3   1141  FUC1141    -0.2148
      9  O3        17.6120  -21.1970   21.8990 O.3   1141  FUC1141    -0.2174
     10  O4        19.2940  -22.9750   23.3580 O.3   1141  FUC1141    -0.2177
     11  O5        17.1690  -24.9400   23.8070 O.3   1141  FUC1141    -0.3264
@<TRIPOS>BOND
     1     8     2    1
     2     2     1    1
     3     2     3    1
     4     9     3    1
     5     1     7    1
     6     1    11    1
     7     3     4    1
     8    10     4    1
     9    11     5    1
    10     4     5    1
    11     5     6    1
