@<TRIPOS>MOLECULE
2wcx_VGC_A_1.pdb
 24 27 0 0 0
SMALL
GASTEIGER

@<TRIPOS>ATOM
      1  C15       30.8760   14.9350    7.3790 C.3   1534  VGC1534     0.0044
      2  C18       31.2790   16.1490    8.1720 C.3   1534  VGC1534     0.0003
      3  C19       32.2210   15.7110    9.3530 C.3   1534  VGC1534     0.0000
      4  C17       31.5720   14.6390   10.2300 C.3   1534  VGC1534     0.0003
      5  C16       31.0080   13.4930    9.3910 C.3   1534  VGC1534     0.0044
      6  C14       30.0150   14.0120    8.3390 C.3   1534  VGC1534     0.0243
      7  C5        29.4940   12.8140    7.5280 C.ar  1534  VGC1534     0.0007
      8  C2        30.2940   12.0990    6.6360 C.ar  1534  VGC1534     0.0428
      9  S1        31.8620   11.9370    5.9650 S.2   1534  VGC1534    -0.0792
     10  C3        31.4210   10.6180    5.0130 C.ar  1534  VGC1534     0.1107
     11  C6        32.3840    9.8970    4.1100 C.2   1534  VGC1534     0.3937
     12  O1        31.9800    8.9130    3.4810 O.co2 1534  VGC1534    -0.2400
     13  O2        33.5430   10.2810    4.0740 O.co2 1534  VGC1534    -0.2400
     14  C4        30.1570   10.2710    5.2030 C.ar  1534  VGC1534     0.0308
     15  C1        29.4990   11.0910    6.1070 C.ar  1534  VGC1534     0.0664
     16  N1        28.3060   11.2770    6.6700 N.ar  1534  VGC1534    -0.3250
     17  C20       27.0970   10.5000    6.4880 C.3   1534  VGC1534     0.1304
     18  C7        28.2320   12.2780    7.5110 C.ar  1534  VGC1534     0.0564
     19  C8        27.1190   12.6500    8.2400 C.ar  1534  VGC1534     0.0155
     20  C9        25.8700   12.8490    7.6540 C.ar  1534  VGC1534     0.0014
     21  C10       24.7450   13.2140    8.4470 C.ar  1534  VGC1534     0.0000
     22  C11       24.8410   13.4580    9.8560 C.ar  1534  VGC1534     0.0000
     23  C12       26.1240   13.2620   10.4180 C.ar  1534  VGC1534     0.0000
     24  C13       27.2360   12.8390    9.6240 C.ar  1534  VGC1534     0.0014
@<TRIPOS>BOND
     1    12    11   ar
     2    13    11   ar
     3    11    10    1
     4    10    14   ar
     5    10     9   ar
     6    14    15   ar
     7     9     8   ar
     8    15     8   ar
     9    15    16   ar
    10    17    16    1
    11     8     7   ar
    12    16    18   ar
    13     1     2    1
    14     1     6    1
    15    18     7   ar
    16    18    19    1
    17     7     6    1
    18    20    19   ar
    19    20    21   ar
    20     2     3    1
    21    19    24   ar
    22     6     5    1
    23    21    22   ar
    24     3     4    1
    25     5     4    1
    26    24    23   ar
    27    22    23   ar
