@<TRIPOS>MOLECULE
2wd1_ZZY_A_1.pdb
 24 26 0 0 0
SMALL
GASTEIGER

@<TRIPOS>ATOM
      1  O11      109.2120   22.4340  138.4440 O.2   2347  ZZY2347    -0.2666
      2  C10      108.0960   22.0440  138.5350 C.2   2347  ZZY2347     0.2857
      3  N12      107.7190   20.8440  138.0740 N.am  2347  ZZY2347    -0.0837
      4  C5       106.9970   22.7670  139.1420 C.ar  2347  ZZY2347     0.0773
      5  C3       105.7740   22.1660  139.1630 C.ar  2347  ZZY2347     0.0267
      6  C1       104.6940   22.8280  139.7140 C.ar  2347  ZZY2347     0.1003
      7  C6       107.1250   24.0230  139.6800 C.ar  2347  ZZY2347     0.1035
      8  N4       106.0450   24.6580  140.2190 N.ar  2347  ZZY2347    -0.2421
      9  C2       104.8560   24.0690  140.2350 C.ar  2347  ZZY2347     0.1003
     10  C8       103.6920   24.4950  140.7250 C.ar  2347  ZZY2347     0.0411
     11  C7       102.8660   23.4660  140.4380 C.ar  2347  ZZY2347     0.1015
     12  N9       103.4600   22.4490  139.8410 N.ar  2347  ZZY2347    -0.2062
     13  S13      102.7300   21.0450  139.3980 S.O2  2347  ZZY2347     0.0876
     14  O16      101.5550   21.1610  138.9570 O.2   2347  ZZY2347    -0.1475
     15  O15      103.4040   20.4500  138.4420 O.2   2347  ZZY2347    -0.1475
     16  C14      102.6220   19.8910  140.7150 C.ar  2347  ZZY2347     0.1500
     17  C21      101.6420   19.8220  141.7710 C.ar  2347  ZZY2347     0.1618
     18  N22      100.5270   20.7380  142.0060 N.pl3 2347  ZZY2347     0.0590
     19  O23      100.6730   21.9680  141.8580 O.2   2347  ZZY2347    -0.1261
     20  O24       99.4380   20.4100  142.3330 O.2   2347  ZZY2347    -0.1261
     21  C20      103.6150   18.9320  140.7270 C.ar  2347  ZZY2347     0.0221
     22  C18      103.6750   17.9770  141.7120 C.ar  2347  ZZY2347     0.0015
     23  C17      102.7430   17.9460  142.7130 C.ar  2347  ZZY2347     0.0018
     24  C19      101.6920   18.7860  142.6980 C.ar  2347  ZZY2347     0.0255
@<TRIPOS>BOND
     1     3     2   am
     2    15    13    2
     3     1     2    2
     4     2     4    1
     5    14    13    2
     6     4     5   ar
     7     4     7   ar
     8     5     6   ar
     9    13    12    1
    10    13    16    1
    11     7     8   ar
    12     6    12   ar
    13     6     9   ar
    14    12    11   ar
    15     8     9   ar
    16     9    10   ar
    17    11    10   ar
    18    16    21   ar
    19    16    17   ar
    20    21    22   ar
    21    22    23   ar
    22    17    18    1
    23    17    24   ar
    24    19    18    2
    25    18    20    2
    26    24    23   ar
