@<TRIPOS>MOLECULE
2wd2_MS5_A_1.pdb
 26 28 0 0 0
SMALL
GASTEIGER

@<TRIPOS>ATOM
      1  OAE       -2.3070    9.3930  -19.3640 O.3   1263  MS51263    -0.0428
      2  SAZ       -0.9670    9.9100  -19.4120 S.3   1263  MS51263     0.1233
      3  OAD       -0.7460   10.7160  -20.5660 O.3   1263  MS51263    -0.0428
      4  NAC       -0.5550   10.6630  -18.0650 N.3   1263  MS51263     0.0501
      5  OAR        0.0740    8.6800  -19.6150 O.3   1263  MS51263    -0.3437
      6  CAX       -0.0530    7.4370  -19.0550 C.ar  1263  MS51263     0.2061
      7  CAJ       -0.5940    6.4000  -19.8140 C.ar  1263  MS51263     0.0385
      8  CAW        0.4050    7.2080  -17.7730 C.ar  1263  MS51263     0.1749
      9  OAQ        0.9530    8.2310  -17.0600 O.3   1263  MS51263    -0.4683
     10  CAB        0.6150    8.4450  -15.6890 C.3   1263  MS51263     0.2526
     11  CAK        0.3130    5.9340  -17.2120 C.ar  1263  MS51263     0.0369
     12  CAV       -0.2400    4.9040  -17.9570 C.ar  1263  MS51263    -0.0068
     13  CAO       -0.3270    3.5330  -17.3290 C.3   1263  MS51263     0.0992
     14  CAU       -0.6980    5.1270  -19.2520 C.ar  1263  MS51263    -0.0201
     15  CAL       -1.3050    4.0190  -20.0850 C.3   1263  MS51263     0.0435
     16  CAM       -1.3930    2.6800  -19.3430 C.3   1263  MS51263     0.0773
     17  NAY       -0.2920    2.4930  -18.3690 N.3   1263  MS51263    -0.2649
     18  CAN       -0.2920    1.1940  -17.6580 C.3   1263  MS51263     0.0995
     19  CAS       -1.3740    0.2050  -18.0430 C.ar  1263  MS51263    -0.0031
     20  CAI       -1.2430   -0.5460  -19.2120 C.ar  1263  MS51263     0.0340
     21  CAG       -2.4830    0.0250  -17.2100 C.ar  1263  MS51263    -0.0027
     22  CAF       -3.4750   -0.8940  -17.5630 C.ar  1263  MS51263     0.0028
     23  CAH       -3.3470   -1.6370  -18.7340 C.ar  1263  MS51263     0.0369
     24  CAT       -2.2310   -1.4660  -19.5650 C.ar  1263  MS51263     0.1385
     25  OAP       -2.1200   -2.2100  -20.7190 O.3   1263  MS51263    -0.4714
     26  CAA       -0.9850   -2.1020  -21.5810 C.3   1263  MS51263     0.2525
@<TRIPOS>BOND
     1    26    25    1
     2    25    24    1
     3     3     2    1
     4    15    16    1
     5    15    14    1
     6     7    14   ar
     7     7     6   ar
     8     5     2    1
     9     5     6    1
    10    24    20   ar
    11    24    23   ar
    12     2     1    1
    13     2     4    1
    14    16    17    1
    15    14    12   ar
    16    20    19   ar
    17     6     8   ar
    18    23    22   ar
    19    17    18    1
    20    17    13    1
    21    19    18    1
    22    19    21   ar
    23    12    13    1
    24    12    11   ar
    25     8    11   ar
    26     8     9    1
    27    22    21   ar
    28     9    10    1
