@<TRIPOS>MOLECULE
2wd3_MS4_A_1.pdb
 26 28 0 0 0
SMALL
GASTEIGER

@<TRIPOS>ATOM
      1  S2       -15.3570   11.5170  -17.0620 S.3   1261  MS41261     0.1232
      2  O1       -14.0280   11.6180  -16.5390 O.3   1261  MS41261    -0.0428
      3  O2       -15.6130   11.0990  -18.4290 O.3   1261  MS41261    -0.0428
      4  O3       -16.3900   12.3520  -16.6420 O.3   1261  MS41261    -0.3460
      5  N1       -15.8020   10.1600  -16.3340 N.3   1261  MS41261     0.0501
      6  N3       -16.5230   17.3560   -5.5350 N.ar  1261  MS41261    -0.2007
      7  N4       -17.3280   15.7710   -6.7710 N.ar  1261  MS41261    -0.1448
      8  N5       -16.1870   16.0450   -7.1710 N.ar  1261  MS41261    -0.2255
      9  N6       -18.3060   17.5710  -14.2610 N.1   1261  MS41261    -0.1908
     10  C1       -17.5900   16.5750   -5.7360 C.ar  1261  MS41261     0.2210
     11  C2       -15.6310   17.0140   -6.4520 C.ar  1261  MS41261     0.1975
     12  C3       -16.1220   15.8410   -9.6530 C.ar  1261  MS41261     0.0022
     13  C4       -16.7900   17.0660   -9.7480 C.ar  1261  MS41261    -0.0016
     14  C5       -17.3330   17.4740  -10.9590 C.ar  1261  MS41261     0.0100
     15  C6       -17.2220   16.6660  -12.0880 C.ar  1261  MS41261     0.0684
     16  C7       -16.5290   15.4360  -12.0080 C.ar  1261  MS41261     0.0094
     17  C8       -15.9880   15.0220  -10.7850 C.ar  1261  MS41261    -0.0017
     18  C9       -17.8220   17.1550  -13.3060 C.1   1261  MS41261     0.1004
     19 CL        -14.9300   15.1510  -16.8460 Cl    1261  MS41261    -0.0790
     20  C12      -15.8080   15.1650  -14.3070 C.ar  1261  MS41261     0.0146
     21  C13      -15.7470   14.4300  -15.4860 C.ar  1261  MS41261     0.0944
     22  C14      -16.3300   13.1520  -15.5240 C.ar  1261  MS41261     0.1833
     23  C15      -16.9750   12.6760  -14.3950 C.ar  1261  MS41261     0.0407
     24  C16      -17.0240   13.4030  -13.2110 C.ar  1261  MS41261     0.0033
     25  CAO      -15.5060   15.3970   -8.3090 C.3   1261  MS41261     0.1556
     26  CAV      -16.4430   14.6610  -13.1660 C.ar  1261  MS41261     0.0017
@<TRIPOS>BOND
     1     3     1    1
     2     1     4    1
     3     1     2    1
     4     1     5    1
     5    19    21    1
     6     4    22    1
     7    22    21   ar
     8    22    23   ar
     9    21    20   ar
    10    23    24   ar
    11    20    26   ar
    12     9    18    3
    13    18    15    1
    14    24    26   ar
    15    26    16    1
    16    15    16   ar
    17    15    14   ar
    18    16    17   ar
    19    14    13   ar
    20    17    12   ar
    21    13    12   ar
    22    12    25    1
    23    25     8    1
    24     8     7   ar
    25     8    11   ar
    26     7    10   ar
    27    11     6   ar
    28    10     6   ar
