@<TRIPOS>MOLECULE
2wd4_TBV_A_1.pdb
 47 50 0 0 0
SMALL
GASTEIGER

@<TRIPOS>ATOM
      1  CHA       13.5410   57.6440   20.3480 C.3   1253  TBV1253     0.1170
      2  CHB       12.7380   55.0770   16.2710 C.3   1253  TBV1253     0.1181
      3  CHD       16.9970   54.4320   21.5500 C.3   1253  TBV1253     0.1175
      4  NA        13.4280   56.1300   18.4170 N.2   1253  TBV1253    -0.4104
      5  C1A       13.0790   57.2830   19.0210 C.2   1253  TBV1253     0.1114
      6  C2A       12.0020   58.0360   18.3630 C.2   1253  TBV1253     0.0024
      7  C3A       11.7540   57.2740   17.1420 C.2   1253  TBV1253     0.0021
      8  C4A       12.7060   56.1510   17.2730 C.2   1253  TBV1253     0.1114
      9  CAA       11.3640   59.3190   18.8030 C.3   1253  TBV1253     0.0402
     10  CBA       12.2430   60.5100   18.4600 C.3   1253  TBV1253     0.1188
     11  CGA       11.5140   61.7110   18.9990 C.2   1253  TBV1253     0.3652
     12  O1A       12.0140   62.3280   19.9610 O.co2 1253  TBV1253    -0.2456
     13  O2A       10.4170   62.0350   18.4840 O.co2 1253  TBV1253    -0.2456
     14  CMA       10.7900   57.5690   16.0170 C.3   1253  TBV1253     0.0331
     15  NB        14.0720   53.4820   17.5670 N.2   1253  TBV1253    -0.3372
     16  C1B       13.3580   53.7640   16.4630 C.2   1253  TBV1253     0.1257
     17  C2B       13.3050   52.6970   15.4440 C.2   1253  TBV1253     0.0168
     18  C3B       14.0860   51.6370   16.0920 C.2   1253  TBV1253     0.0929
     19  C4B       14.4800   52.2110   17.3910 C.1   1253  TBV1253     0.2041
     20  CMB       12.6140   52.7130   14.1140 C.3   1253  TBV1253     0.0342
     21  CAB       14.3920   50.2880   15.5670 C.2   1253  TBV1253     0.0124
     22  CBB       14.3210   49.2580   16.3910 C.2   1253  TBV1253     0.0008
     23  NC        16.7130   53.8080   19.1520 N.2   1253  TBV1253    -0.3720
     24  C1C       17.3210   52.8620   18.3670 C.2   1253  TBV1253     0.2727
     25  C2C       18.3340   51.9960   19.0380 C.2   1253  TBV1253     0.0463
     26  C3C       18.3010   52.5590   20.3970 C.2   1253  TBV1253     0.0275
     27  C4C       17.3040   53.6350   20.3630 C.2   1253  TBV1253     0.1193
     28  CMC       19.1680   50.8700   18.4770 C.3   1253  TBV1253     0.0372
     29  CAC       19.0830   52.1990   21.6070 C.2   1253  TBV1253     0.0021
     30  CBC       19.5250   50.9870   21.8580 C.2   1253  TBV1253     0.0001
     31  ND        15.2240   55.8780   20.6200 N.2   1253  TBV1253    -0.4104
     32  C1D       16.0360   55.5300   21.6430 C.2   1253  TBV1253     0.1114
     33  C2D       15.9020   56.3360   22.8640 C.2   1253  TBV1253     0.0021
     34  C3D       14.8670   57.2970   22.5140 C.2   1253  TBV1253     0.0024
     35  C4D       14.5220   56.9130   21.1330 C.2   1253  TBV1253     0.1114
     36  CMD       16.6420   56.2050   24.1600 C.3   1253  TBV1253     0.0331
     37  OC        17.0360   52.6860   17.0260 O.2   1253  TBV1253    -0.4592
     38  CAD       14.2700   58.3860   23.3540 C.3   1253  TBV1253     0.0402
     39  CBD       14.8830   59.7290   22.9960 C.3   1253  TBV1253     0.1188
     40  C46       17.0610   54.2080   15.1580 C.3   1253  TBV1253     0.0437
     41  CGD       14.3730   60.8200   23.9160 C.2   1253  TBV1253     0.3652
     42  O2D       14.5660   61.9940   23.5470 O.co2 1253  TBV1253    -0.2456
     43  O1D       13.8060   60.5250   24.9920 O.co2 1253  TBV1253    -0.2456
     44  C47       19.0960   53.9620   16.5280 C.3   1253  TBV1253     0.0437
     45  C44       17.8800   53.2230   15.9850 C.3   1253  TBV1253     0.1360
     46  OB        15.2000   51.5610   18.2390 O.2   1253  TBV1253    -0.2093
     47  C45       18.4070   52.0850   15.1190 C.3   1253  TBV1253     0.0437
@<TRIPOS>BOND
     1    20    17    1
     2    47    45    1
     3    40    45    1
     4    17    18    2
     5    17    16    1
     6    21    18    1
     7    21    22    2
     8    45    44    1
     9    45    37    1
    10    14     7    1
    11    18    19    1
    12     2    16    1
    13     2     8    1
    14    16    15    2
    15    37    24    1
    16     7     8    1
    17     7     6    2
    18     8     4    2
    19    19    15    2
    20    19    46    2
    21     6     9    1
    22     6     5    1
    23    24    25    1
    24    24    23    2
    25     4     5    2
    26    10     9    1
    27    10    11    1
    28    28    25    1
    29    13    11   ar
    30    11    12   ar
    31     5     1    1
    32    25    26    2
    33    23    27    2
    34     1    35    1
    35    27    26    1
    36    27     3    1
    37    26    29    1
    38    31    35    2
    39    31    32    2
    40    35    34    1
    41     3    32    1
    42    29    30    2
    43    32    33    1
    44    34    33    2
    45    34    38    1
    46    33    36    1
    47    39    38    1
    48    39    41    1
    49    42    41   ar
    50    41    43   ar
