@<TRIPOS>MOLECULE
2wd7_NAP_A_1.pdb
 48 52 0 0 0
SMALL
GASTEIGER

@<TRIPOS>ATOM
      1  PA        13.7020   -9.7490   11.9340 P.3   269  NAP269      0.2189
      2  O1A       14.2180  -10.7340   10.9260 O.2   269  NAP269     -0.5170
      3  O2A       13.2140  -10.3630   13.1880 O.3   269  NAP269     -0.4371
      4  O5B       14.8560   -8.6610   12.1970 O.3   269  NAP269     -0.3112
      5  C5B       15.2390   -7.8290   11.1130 C.3   269  NAP269      0.1813
      6  C4B       16.6710   -7.4040   11.3680 C.3   269  NAP269      0.1820
      7  O4B       16.7110   -6.6700   12.5650 O.3   269  NAP269     -0.3136
      8  C3B       17.6550   -8.5310   11.6800 C.3   269  NAP269      0.2157
      9  O3B       18.0820   -9.2000   10.5130 O.3   269  NAP269     -0.2175
     10  C2B       18.7660   -7.7890   12.4350 C.3   269  NAP269      0.2314
     11  O2B       19.9380   -7.5040   11.6620 O.3   269  NAP269     -0.2630
     12  C1B       18.0640   -6.4730   12.8790 C.3   269  NAP269      0.3158
     13  N9A       18.4050   -6.3030   14.3050 N.pl3 269  NAP269     -0.1439
     14  C8A       18.0500   -7.0980   15.3670 C.3   269  NAP269      0.3377
     15  N7A       18.6840   -6.6110   16.4630 N.2   269  NAP269     -0.2095
     16  C5A       19.4510   -5.5480   16.0950 C.2   269  NAP269      0.2526
     17  C6A       20.2940   -4.6740   16.7900 C.2   269  NAP269      0.4393
     18  N6A       20.5160   -4.7730   18.0980 N.pl3 269  NAP269      0.2180
     19  N1A       20.9480   -3.6770   16.1030 N.2   269  NAP269      0.0021
     20  C2A       20.7490   -3.5060   14.7430 C.3   269  NAP269      0.5254
     21  N3A       19.9220   -4.3500   14.0510 N.2   269  NAP269     -0.0055
     22  C4A       19.2830   -5.3540   14.7310 C.2   269  NAP269      0.3518
     23  O3        12.5270   -8.9940   11.1600 O.3   269  NAP269     -0.2703
     24  PN        11.3420   -9.4780   10.1920 P.3   269  NAP269      0.2189
     25  O1N       11.9020   -9.4190    8.8370 O.2   269  NAP269     -0.5170
     26  O2N       10.7370  -10.6940   10.7980 O.3   269  NAP269     -0.4371
     27  O5D       10.3150   -8.2310   10.3210 O.3   269  NAP269     -0.3112
     28  C5D       10.5490   -6.9580    9.7620 C.3   269  NAP269      0.1813
     29  C4D        9.8010   -5.8610   10.5760 C.3   269  NAP269      0.1799
     30  O4D        8.3970   -6.1230   10.5880 O.3   269  NAP269     -0.3327
     31  C3D       10.2610   -5.7860   12.0250 C.3   269  NAP269      0.2158
     32  O3D       10.2220   -4.4450   12.4710 O.3   269  NAP269     -0.2175
     33  C2D        9.1750   -6.5780   12.7350 C.3   269  NAP269      0.2309
     34  O2D        8.9990   -6.2160   14.0890 O.3   269  NAP269     -0.2158
     35  C1D        7.9220   -6.2770   11.9180 C.3   269  NAP269      0.2263
     36  N1N        6.9860   -7.3950   12.0410 N.pl3 269  NAP269     -0.2787
     37  C2N        7.3190   -8.5990   11.4340 C.3   269  NAP269      0.1244
     38  C3N        6.4540   -9.6710   11.5620 C.2   269  NAP269      0.0544
     39  C7N        6.8380  -10.9430   10.8990 C.2   269  NAP269      0.2818
     40  O7N        5.7960  -11.8710   10.8500 O.2   269  NAP269     -0.2670
     41  N7N        8.0940  -11.0970   10.4190 N.am  269  NAP269     -0.0839
     42  C4N        5.2510   -9.5710   12.2670 C.2   269  NAP269      0.0033
     43  C5N        4.9240   -8.3450   12.8710 C.2   269  NAP269      0.0157
     44  C6N        5.8090   -7.2640   12.7470 C.2   269  NAP269      0.0633
     45  P2B       21.1950   -8.5340   11.4160 P.3   269  NAP269      0.5328
     46  O1X       22.0790   -7.8930   10.3770 O.2   269  NAP269     -0.2224
     47  O2X       20.5920   -9.8440   11.0080 O.3   269  NAP269     -0.1145
     48  O3X       21.9000   -8.6890   12.7170 O.3   269  NAP269     -0.1145
@<TRIPOS>BOND
     1    25    24    2
     2    28    27    1
     3    28    29    1
     4    24    27    1
     5    24    26    1
     6    24    23    1
     7    46    45    2
     8    41    39   am
     9     9     8    1
    10    29    30    1
    11    29    31    1
    12    30    35    1
    13    40    39    2
    14    39    38    1
    15     2     1    2
    16    47    45    1
    17     5     6    1
    18     5     4    1
    19    23     1    1
    20     6     8    1
    21     6     7    1
    22    45    11    1
    23    45    48    1
    24    37    38    1
    25    37    36    1
    26    38    42    2
    27    11    10    1
    28     8    10    1
    29    35    36    1
    30    35    33    1
    31     1     4    1
    32     1     3    1
    33    31    32    1
    34    31    33    1
    35    36    44    1
    36    42    43    1
    37    10    12    1
    38     7    12    1
    39    33    34    1
    40    44    43    2
    41    12    13    1
    42    21    22    2
    43    21    20    1
    44    13    22    1
    45    13    14    1
    46    22    16    1
    47    20    19    1
    48    14    15    1
    49    16    15    2
    50    16    17    1
    51    19    17    2
    52    17    18    1
