@<TRIPOS>MOLECULE
2wd7_VGD_A_1.pdb
 11 12 0 0 0
SMALL
GASTEIGER

@<TRIPOS>ATOM
      1 CLA         6.1950  -13.4710   13.6130 Cl    1269  VGD1269    -0.0822
      2  CAH        6.9170  -11.9450   14.2070 C.ar  1269  VGD1269     0.0604
      3  CAC        6.2080  -11.0070   14.9780 C.ar  1269  VGD1269     0.0142
      4  CAD        6.8570   -9.8340   15.3870 C.ar  1269  VGD1269     0.0366
      5  CAK        8.1940   -9.6190   15.0220 C.ar  1269  VGD1269     0.1755
      6  CAJ        8.8890  -10.5810   14.2520 C.ar  1269  VGD1269     0.1763
      7  CAE        8.2440  -11.7350   13.8490 C.ar  1269  VGD1269     0.0471
      8  NAG        9.0670   -8.6120   15.2830 N.2   1269  VGD1269    -0.3232
      9  CAI       10.2180   -8.9940   14.6750 C.1   1269  VGD1269     0.2416
     10  NAF       10.1680  -10.1810   14.0440 N.2   1269  VGD1269    -0.3231
     11  NAA       11.3540   -8.2510   14.6940 N.pl3 1269  VGD1269    -0.0232
@<TRIPOS>BOND
     1     1     2    1
     2     7     2   ar
     3     7     6   ar
     4    10     6    2
     5    10     9    2
     6     2     3   ar
     7     6     5   ar
     8     9    11    1
     9     9     8    2
    10     3     4   ar
    11     5     8    2
    12     5     4   ar
