@<TRIPOS>MOLECULE
2wd8_VGF_A_1.pdb
 25 28 0 0 0
SMALL
GASTEIGER

@<TRIPOS>ATOM
      1  CAN        1.2910  -13.8640   14.8630 C.ar  1270  VGF1270     0.0096
      2  CAS        0.0610  -14.4390   15.1760 C.ar  1270  VGF1270     0.0679
      3 CLAC       -0.6180  -15.6920   14.1650 Cl    1270  VGF1270    -0.0814
      4  CAR       -0.6340  -14.0040   16.3160 C.ar  1270  VGF1270     0.0682
      5 CLAB       -2.1680  -14.7200   16.7030 Cl    1270  VGF1270    -0.0814
      6  CAK       -0.1050  -13.0000   17.1230 C.ar  1270  VGF1270     0.0120
      7  CAJ        1.1280  -12.4180   16.7840 C.ar  1270  VGF1270    -0.0017
      8  CAQ        1.8330  -12.8460   15.6460 C.ar  1270  VGF1270    -0.0011
      9  CAO        3.1990  -12.2190   15.2700 C.3   1270  VGF1270     0.1259
     10  NAY        3.5370  -11.2410   16.3130 N.pl3 1270  VGF1270    -0.2418
     11  CAX        4.1600  -11.5010   17.4770 C.2   1270  VGF1270     0.0808
     12  CAU        3.2520   -9.9350   16.2580 C.cat 1270  VGF1270     0.2818
     13  NAA        2.6320   -9.3290   15.2450 N.pl3 1270  VGF1270    -0.0777
     14  NAP        3.6690   -9.3330   17.3680 N.2   1270  VGF1270    -0.3732
     15  CAW        4.2190  -10.2740   18.1500 C.2   1270  VGF1270     0.1300
     16  CAM        4.8260  -10.2180   19.4150 C.3   1270  VGF1270     0.0863
     17  CAG        5.3350  -11.3710   20.0120 C.2   1270  VGF1270    -0.0186
     18  CAL        5.2590  -12.5920   19.3370 C.2   1270  VGF1270    -0.0028
     19  CAV        4.6730  -12.6640   18.0780 C.2   1270  VGF1270     0.0156
     20  CAT        4.5890  -13.9060   17.4170 C.ar  1270  VGF1270     0.0013
     21  CAH        3.5920  -14.8260   17.7560 C.ar  1270  VGF1270     0.0000
     22  CAE        3.5160  -16.0580   17.0860 C.ar  1270  VGF1270     0.0000
     23  CAD        4.4300  -16.3700   16.0850 C.ar  1270  VGF1270     0.0000
     24  CAF        5.4280  -15.4530   15.7340 C.ar  1270  VGF1270     0.0000
     25  CAI        5.5070  -14.2300   16.4020 C.ar  1270  VGF1270     0.0000
@<TRIPOS>BOND
     1     3     2    1
     2     1     2   ar
     3     1     8   ar
     4     2     4   ar
     5    13    12    1
     6     9     8    1
     7     9    10    1
     8     8     7   ar
     9    24    23   ar
    10    24    25   ar
    11    23    22   ar
    12    12    10    1
    13    12    14    2
    14    10    11    1
    15     4     5    1
    16     4     6   ar
    17    25    20   ar
    18     7     6   ar
    19    22    21   ar
    20    14    15    2
    21    20    21   ar
    22    20    19    1
    23    11    19    2
    24    11    15    1
    25    19    18    1
    26    15    16    1
    27    18    17    2
    28    16    17    1
