@<TRIPOS>MOLECULE
2wd8_NAP_A_1.pdb
 48 52 0 0 0
SMALL
GASTEIGER

@<TRIPOS>ATOM
      1  PA        13.7860   -9.5350   11.9980 P.3   269  NAP269      0.2189
      2  O1A       14.3440  -10.5970   11.1200 O.2   269  NAP269     -0.5170
      3  O2A       13.4570  -10.0080   13.3660 O.3   269  NAP269     -0.4371
      4  O5B       14.8350   -8.3160   12.1530 O.3   269  NAP269     -0.3112
      5  C5B       15.3530   -7.6170   11.0520 C.3   269  NAP269      0.1813
      6  C4B       16.7780   -7.1820   11.3800 C.3   269  NAP269      0.1820
      7  O4B       16.8260   -6.4660   12.5970 O.3   269  NAP269     -0.3136
      8  C3B       17.7310   -8.3520   11.6530 C.3   269  NAP269      0.2157
      9  O3B       18.1600   -9.0160   10.4790 O.3   269  NAP269     -0.2175
     10  C2B       18.8580   -7.6490   12.3960 C.3   269  NAP269      0.2314
     11  O2B       19.9780   -7.3770   11.5620 O.3   269  NAP269     -0.2630
     12  C1B       18.1950   -6.3510   12.8820 C.3   269  NAP269      0.3158
     13  N9A       18.5580   -6.2160   14.3030 N.pl3 269  NAP269     -0.1439
     14  C8A       18.2600   -7.0250   15.3860 C.3   269  NAP269      0.3377
     15  N7A       18.9010   -6.5130   16.4800 N.2   269  NAP269     -0.2095
     16  C5A       19.6000   -5.4040   16.1010 C.2   269  NAP269      0.2526
     17  C6A       20.4260   -4.4940   16.7770 C.2   269  NAP269      0.4393
     18  N6A       20.6640   -4.5810   18.0810 N.pl3 269  NAP269      0.2180
     19  N1A       21.0010   -3.4670   16.0560 N.2   269  NAP269      0.0021
     20  C2A       20.7730   -3.3060   14.6930 C.3   269  NAP269      0.5254
     21  N3A       19.9560   -4.1930   14.0300 N.2   269  NAP269     -0.0055
     22  C4A       19.3910   -5.2190   14.7280 C.2   269  NAP269      0.3518
     23  O3        12.5690   -8.8070   11.2430 O.3   269  NAP269     -0.2703
     24  PN        11.4790   -9.2450   10.1490 P.3   269  NAP269      0.2189
     25  O1N       12.1020   -9.1630    8.7970 O.2   269  NAP269     -0.5170
     26  O2N       10.7980  -10.4650   10.6180 O.3   269  NAP269     -0.4371
     27  O5D       10.4120   -8.0340   10.2800 O.3   269  NAP269     -0.3112
     28  C5D       10.6990   -6.7330    9.7830 C.3   269  NAP269      0.1813
     29  C4D        9.9740   -5.6680   10.6030 C.3   269  NAP269      0.1799
     30  O4D        8.5750   -5.9400   10.6900 O.3   269  NAP269     -0.3327
     31  C3D       10.5270   -5.6140   12.0240 C.3   269  NAP269      0.2158
     32  O3D       10.7160   -4.2660   12.4340 O.3   269  NAP269     -0.2175
     33  C2D        9.4500   -6.3400   12.8100 C.3   269  NAP269      0.2309
     34  O2D        9.4340   -6.0310   14.1900 O.3   269  NAP269     -0.2158
     35  C1D        8.1640   -6.0140   12.0480 C.3   269  NAP269      0.2263
     36  N1N        7.1750   -7.1050   12.2100 N.pl3 269  NAP269     -0.2787
     37  C2N        7.4020   -8.3180   11.5750 C.3   269  NAP269      0.1244
     38  C3N        6.5100   -9.3680   11.7030 C.2   269  NAP269      0.0544
     39  C7N        6.8810  -10.7250   11.1770 C.2   269  NAP269      0.2818
     40  O7N        5.9370  -11.7640   11.3180 O.2   269  NAP269     -0.2670
     41  N7N        8.0720  -10.9230   10.6000 N.am  269  NAP269     -0.0839
     42  C4N        5.3610   -9.1970   12.4900 C.2   269  NAP269      0.0033
     43  C5N        5.1330   -7.9680   13.1200 C.2   269  NAP269      0.0157
     44  C6N        6.0450   -6.9140   12.9810 C.2   269  NAP269      0.0633
     45  P2B       21.2380   -8.3730   11.3490 P.3   269  NAP269      0.5328
     46  O1X       22.2120   -7.6000   10.4590 O.2   269  NAP269     -0.2224
     47  O2X       20.7440   -9.6540   10.7110 O.3   269  NAP269     -0.1145
     48  O3X       21.8830   -8.7160   12.6640 O.3   269  NAP269     -0.1145
@<TRIPOS>BOND
     1    25    24    2
     2    28    27    1
     3    28    29    1
     4    24    27    1
     5    24    26    1
     6    24    23    1
     7    46    45    2
     8     9     8    1
     9    41    39   am
    10    29    30    1
    11    29    31    1
    12    30    35    1
    13    47    45    1
    14     5     6    1
    15     5     4    1
    16     2     1    2
    17    39    40    2
    18    39    38    1
    19    23     1    1
    20    45    11    1
    21    45    48    1
    22     6     8    1
    23     6     7    1
    24    11    10    1
    25    37    38    1
    26    37    36    1
    27     8    10    1
    28    38    42    2
    29     1     4    1
    30     1     3    1
    31    31    32    1
    32    31    33    1
    33    35    36    1
    34    35    33    1
    35    36    44    1
    36    10    12    1
    37    42    43    1
    38     7    12    1
    39    33    34    1
    40    12    13    1
    41    44    43    2
    42    21    20    1
    43    21    22    2
    44    13    22    1
    45    13    14    1
    46    20    19    1
    47    22    16    1
    48    14    15    1
    49    19    17    2
    50    16    15    2
    51    16    17    1
    52    17    18    1
