@<TRIPOS>MOLECULE
2wd9_IBP_A_1.pdb
 15 15 0 0 0
SMALL
GASTEIGER

@<TRIPOS>ATOM
      1  C1        14.8740   17.9320   29.3570 C.2   1570  IBP1570     0.3683
      2  C2        14.0910   18.4940   22.8340 C.3   1570  IBP1570     0.0263
      3  C3        15.3370   18.1070   22.0280 C.3   1570  IBP1570     0.0044
      4  C4        16.5890   18.8820   22.4210 C.3   1570  IBP1570     0.0003
      5  C5        15.0310   18.3180   20.5400 C.3   1570  IBP1570     0.0003
      6  C6        15.0390   19.1660   28.5000 C.3   1570  IBP1570     0.1256
      7  C7        16.4470   19.7030   28.6750 C.3   1570  IBP1570     0.0166
      8  C8        14.7990   18.9260   27.0490 C.ar  1570  IBP1570    -0.0118
      9  C9        14.5060   20.0240   26.2660 C.ar  1570  IBP1570    -0.0041
     10  C10       14.2730   19.8990   24.9120 C.ar  1570  IBP1570    -0.0046
     11  C11       14.3460   18.6480   24.3200 C.ar  1570  IBP1570    -0.0222
     12  C12       14.6310   17.5390   25.1020 C.ar  1570  IBP1570    -0.0046
     13  C13       14.8540   17.6810   26.4590 C.ar  1570  IBP1570    -0.0041
     14  O1        15.9130   17.3650   29.7870 O.co2 1570  IBP1570    -0.2453
     15  O2        13.6980   17.5210   29.5880 O.co2 1570  IBP1570    -0.2453
@<TRIPOS>BOND
     1     5     3    1
     2     3     4    1
     3     3     2    1
     4     2    11    1
     5    11    10   ar
     6    11    12   ar
     7    10     9   ar
     8    12    13   ar
     9     9     8   ar
    10    13     8   ar
    11     8     6    1
    12     6     7    1
    13     6     1    1
    14     1    15   ar
    15     1    14   ar
