@<TRIPOS>MOLECULE
2wda_L42_A_1.pdb
 30 31 0 0 0
SMALL
GASTEIGER

@<TRIPOS>ATOM
      1  OBM       33.0340   20.5360   29.8310 O.3   1784  L421784    -0.1879
      2  CBE       31.7110   20.8510   30.2170 C.3   1784  L421784     0.2916
      3  CBF       30.7830   19.6080   30.2610 C.3   1784  L421784     0.1839
      4  NBN       30.5280   18.9500   28.9880 N.am  1784  L421784    -0.1993
      5  CBK       30.5930   17.6140   28.8540 C.2   1784  L421784     0.2420
      6  CBL       30.1070   17.0970   27.5060 C.3   1784  L421784     0.0964
      7  OBS       31.0380   16.8250   29.7030 O.2   1784  L421784    -0.2733
      8  OBQ       31.6630   21.6060   31.5270 O.3   1784  L421784    -0.3243
      9  CBI       30.2820   21.9790   31.8530 C.3   1784  L421784     0.1825
     10  CBJ       29.8730   22.8560   33.1190 C.3   1784  L421784     0.2142
     11  OBR       31.0780   22.9960   33.6200 O.3   1784  L421784    -0.2176
     12  CBH       29.4030   20.7320   32.0390 C.3   1784  L421784     0.2017
     13  OBP       29.9510   19.8990   33.1190 O.3   1784  L421784    -0.2385
     14  SBW       29.0030   19.6200   34.2480 S.3   1784  L421784    -0.0001
     15  OBV       29.7080   18.6770   35.0710 O.2   1784  L421784    -0.3452
     16  OBU       27.6430   19.1100   33.7700 O.2   1784  L421784    -0.3452
     17  OBT       28.7530   20.8250   35.0730 O.3   1784  L421784    -0.2682
     18  CBG       29.3530   20.0740   30.6970 C.3   1784  L421784     0.1757
     19  OBO       28.3540   19.1190   30.8510 O.3   1784  L421784    -0.3165
     20  CBX       27.4140   19.1770   29.8260 C.3   1784  L421784     0.3223
     21  OCH       26.5330   20.2390   30.1900 O.2   1784  L421784    -0.4439
     22  CCD       25.4800   20.3890   29.3480 C.2   1784  L421784     0.2189
     23  CCE       24.8810   21.7890   29.3070 C.2   1784  L421784     0.4209
     24  OCG       25.3400   22.5820   30.1750 O.co2 1784  L421784    -0.2371
     25  OCF       23.9430   22.0340   28.5070 O.co2 1784  L421784    -0.2371
     26  CCC       24.9820   19.3340   28.5660 C.2   1784  L421784     0.0528
     27  CCA       25.6390   17.9390   28.5940 C.3   1784  L421784     0.2138
     28  OCB       24.6430   16.9670   28.8390 O.3   1784  L421784    -0.2152
     29  CBY       26.5830   17.8650   29.7690 C.3   1784  L421784     0.2558
     30  OBZ       27.3730   16.7030   29.6410 O.3   1784  L421784    -0.2132
@<TRIPOS>BOND
     1     6     5    1
     2    25    23   ar
     3    26    27    1
     4    26    22    2
     5    27    28    1
     6    27    29    1
     7     5     4   am
     8     5     7    2
     9     4     3    1
    10    23    22    1
    11    23    24   ar
    12    22    21    1
    13    30    29    1
    14    29    20    1
    15    20    21    1
    16    20    19    1
    17     1     2    1
    18     2     3    1
    19     2     8    1
    20     3    18    1
    21    18    19    1
    22    18    12    1
    23     8     9    1
    24     9    12    1
    25     9    10    1
    26    12    13    1
    27    13    14    1
    28    10    11    1
    29    16    14    2
    30    14    15    2
    31    14    17    1
