@<TRIPOS>MOLECULE
2wdb_NAG_A_1.pdb
 14 14 0 0 0
SMALL
GASTEIGER

@<TRIPOS>ATOM
      1  C1        38.5390  -16.7980    9.6990 C.3   1946  NAG1946     0.1665
      2  C2        37.0830  -17.2480    9.5260 C.3   1946  NAG1946     0.1576
      3  C3        36.3060  -17.0800   10.8300 C.3   1946  NAG1946     0.2069
      4  C4        37.0330  -17.7510   11.9920 C.3   1946  NAG1946     0.2134
      5  C5        38.4820  -17.2650   12.0280 C.3   1946  NAG1946     0.1809
      6  C6        39.2680  -17.9370   13.1440 C.3   1946  NAG1946     0.2141
      7  C7        36.3260  -16.9950    7.2040 C.2   1946  NAG1946     0.2420
      8  C8        35.7690  -16.0590    6.1750 C.3   1946  NAG1946     0.0964
      9  N2        36.4080  -16.5300    8.4530 N.am  1946  NAG1946    -0.2019
     10  O3        34.9980  -17.5810   10.7050 O.3   1946  NAG1946    -0.2184
     11  O4        36.3830  -17.4510   13.2130 O.3   1946  NAG1946    -0.2176
     12  O5        39.1260  -17.5010   10.7850 O.3   1946  NAG1946    -0.3489
     13  O6        39.3620  -19.3160   12.8850 O.3   1946  NAG1946    -0.2176
     14  O7        36.6800  -18.1260    6.8700 O.2   1946  NAG1946    -0.2733
@<TRIPOS>BOND
     1     8     7    1
     2    14     7    2
     3     7     9   am
     4     9     2    1
     5     2     1    1
     6     2     3    1
     7     1    12    1
     8    10     3    1
     9    12     5    1
    10     3     4    1
    11     4     5    1
    12     4    11    1
    13     5     6    1
    14    13     6    1
