@<TRIPOS>MOLECULE
2wdo_COA_A_1.pdb
 48 50 0 0 0
SMALL
GASTEIGER

@<TRIPOS>ATOM
      1  N1A       -0.2370   15.0990   30.1440 N.2   1126  COA1126     0.0021
      2  C2A       -0.5580   13.8180   30.5450 C.3   1126  COA1126     0.5254
      3  N3A       -0.3490   12.7550   29.6920 N.2   1126  COA1126    -0.0055
      4  C4A        0.1760   12.9820   28.4610 C.2   1126  COA1126     0.3518
      5  C5A        0.5030   14.2650   28.0430 C.2   1126  COA1126     0.2526
      6  C6A        0.2930   15.3380   28.8910 C.2   1126  COA1126     0.4393
      7  N6A        0.1610   16.5470   28.3540 N.pl3 1126  COA1126     0.2180
      8  N7A        1.0020   14.1850   26.7870 N.2   1126  COA1126    -0.2095
      9  C8A        0.9880   12.8880   26.4030 C.3   1126  COA1126     0.3377
     10  N9A        0.4760   12.1320   27.4310 N.pl3 1126  COA1126    -0.1439
     11  C1B        0.0790   10.7100   27.4140 C.3   1126  COA1126     0.3185
     12  C2B       -0.5480   10.3160   26.0870 C.3   1126  COA1126     0.2543
     13  O2B       -1.7520    9.6100   26.3120 O.3   1126  COA1126    -0.2131
     14  C3B        0.4930    9.4150   25.4550 C.3   1126  COA1126     0.1928
     15  O3B       -0.0460    8.3600   24.6910 O.3   1126  COA1126    -0.2673
     16  P3B       -0.7200    8.6320   23.2510 P.3   1126  COA1126     0.5327
     17  O7A        0.1340    9.5610   22.4170 O.2   1126  COA1126    -0.2224
     18  O8A       -0.8890    7.3210   22.5350 O.3   1126  COA1126    -0.1145
     19  O9A       -2.0680    9.2660   23.4860 O.3   1126  COA1126    -0.1145
     20  C4B        1.2330    8.8730   26.6560 C.3   1126  COA1126     0.1795
     21  O4B        1.2260    9.9080   27.6090 O.3   1126  COA1126    -0.3136
     22  C5B        2.6610    8.5040   26.3210 C.3   1126  COA1126     0.1812
     23  O5B        3.1270    7.6780   27.3620 O.3   1126  COA1126    -0.3112
     24  P1A        4.6100    7.0860   27.2960 P.3   1126  COA1126     0.2189
     25  O1A        4.5980    5.9530   26.3000 O.2   1126  COA1126    -0.5170
     26  O2A        5.0810    6.5840   28.6290 O.3   1126  COA1126    -0.4371
     27  O3A        5.4970    8.3140   26.7250 O.3   1126  COA1126    -0.2703
     28  P2A        6.6070    9.1090   27.5770 P.3   1126  COA1126     0.2188
     29  O4A        7.3500    8.1500   28.4500 O.3   1126  COA1126    -0.4371
     30  O5A        7.4870    9.8740   26.6220 O.2   1126  COA1126    -0.5170
     31  O6A        5.7770   10.1000   28.5260 O.3   1126  COA1126    -0.3138
     32  CBP        5.3200   12.4880   28.4780 C.3   1126  COA1126     0.0645
     33  CCP        4.9730   11.1000   27.9520 C.3   1126  COA1126     0.1519
     34  CDP        4.3510   13.4680   27.8280 C.3   1126  COA1126     0.0056
     35  CEP        5.1330   12.5330   29.9920 C.3   1126  COA1126     0.0056
     36  CAP        6.7690   12.8300   28.1260 C.3   1126  COA1126     0.2312
     37  OAP        6.8650   12.9310   26.7140 O.3   1126  COA1126    -0.2131
     38  C9P        7.1980   14.1190   28.7850 C.2   1126  COA1126     0.2719
     39  O9P        6.7050   15.3510   28.3140 O.2   1126  COA1126    -0.2706
     40  N8P        8.0370   14.0340   29.8220 N.am  1126  COA1126    -0.2028
     41  C7P        8.3980   15.2270   30.5820 C.3   1126  COA1126     0.1248
     42  C6P        8.5670   14.9470   32.0670 C.3   1126  COA1126     0.1102
     43  C5P        8.8970   16.1870   32.8640 C.2   1126  COA1126     0.2432
     44  O5P        8.2940   17.2610   32.6780 O.2   1126  COA1126    -0.2733
     45  N4P        9.8670   16.0260   33.7680 N.am  1126  COA1126    -0.2044
     46  C3P       10.2520   17.0200   34.7490 C.3   1126  COA1126     0.1276
     47  C2P        9.2540   17.1200   35.8950 C.3   1126  COA1126     0.0920
     48  S1P        9.2750   15.6630   36.9620 S.3   1126  COA1126    -0.0802
@<TRIPOS>BOND
     1    17    16    2
     2    18    16    1
     3    16    19    1
     4    16    15    1
     5    15    14    1
     6    14    12    1
     7    14    20    1
     8    12    13    1
     9    12    11    1
    10    25    24    2
    11    22    20    1
    12    22    23    1
    13     9     8    1
    14     9    10    1
    15    30    28    2
    16    20    21    1
    17    37    36    1
    18    27    24    1
    19    27    28    1
    20     8     5    2
    21    24    23    1
    22    24    26    1
    23    11    10    1
    24    11    21    1
    25    10     4    1
    26    28    29    1
    27    28    31    1
    28    34    32    1
    29    33    32    1
    30    33    31    1
    31     5     4    1
    32     5     6    1
    33    36    32    1
    34    36    38    1
    35    39    38    2
    36     7     6    1
    37     4     3    2
    38    32    35    1
    39    38    40   am
    40     6     1    2
    41     3     2    1
    42    40    41    1
    43     1     2    1
    44    41    42    1
    45    42    43    1
    46    44    43    2
    47    43    45   am
    48    45    46    1
    49    46    47    1
    50    47    48    1
