@<TRIPOS>MOLECULE
2wdq_CBE_C_1.pdb
 16 17 0 0 0
SMALL
GASTEIGER

@<TRIPOS>ATOM
      1  C1        46.3610  -10.9920  -36.5690 C.3   1130  CBE1130     0.0725
      2  C2        47.4710  -10.6680  -35.5820 C.2   1130  CBE1130     0.1265
      3  C3        47.9020   -9.3420  -35.3720 C.2   1130  CBE1130     0.1105
      4  S4        49.1360   -8.9360  -34.2610 S.3   1130  CBE1130    -0.1026
      5  C5        49.4340  -10.5440  -33.4330 C.3   1130  CBE1130     0.1096
      6  C6        49.4050  -11.6560  -34.4580 C.3   1130  CBE1130     0.2169
      7  O7        48.0350  -11.7350  -34.9420 O.2   1130  CBE1130    -0.4781
      8  C8        47.1670   -8.1580  -35.9310 C.2   1130  CBE1130     0.2773
      9  O9        46.9410   -8.0780  -37.1410 O.2   1130  CBE1130    -0.2674
     10  N10       47.0940   -7.1500  -35.0710 N.am  1130  CBE1130    -0.1750
     11  C11       46.5980   -5.9400  -35.4280 C.ar  1130  CBE1130     0.0737
     12  C12       46.0260   -5.0910  -34.4730 C.ar  1130  CBE1130     0.0166
     13  C13       45.5200   -3.8330  -34.8370 C.ar  1130  CBE1130     0.0013
     14  C14       45.5700   -3.4070  -36.1450 C.ar  1130  CBE1130     0.0001
     15  C15       46.1460   -4.2420  -37.1080 C.ar  1130  CBE1130     0.0013
     16  C16       46.6520   -5.4920  -36.7410 C.ar  1130  CBE1130     0.0166
@<TRIPOS>BOND
     1     9     8    2
     2    15    16   ar
     3    15    14   ar
     4    16    11   ar
     5     1     2    1
     6    14    13   ar
     7     8     3    1
     8     8    10   am
     9     2     3    2
    10     2     7    1
    11    11    10    1
    12    11    12   ar
    13     3     4    1
    14     7     6    1
    15    13    12   ar
    16     6     5    1
    17     4     5    1
