@<TRIPOS>MOLECULE
2wdq_HEM_C_1.pdb
 43 50 0 0 0
SMALL
GASTEIGER

@<TRIPOS>ATOM
      1 FE         59.5320  -15.9440  -32.6680 Fe    1129  HEM1129     0.0000
      2  CHA       56.3420  -15.9940  -33.4530 C.2   1129  HEM1129     0.0000
      3  CHB       60.2980  -14.9030  -35.9060 C.2   1129  HEM1129     0.0000
      4  CHC       62.9360  -16.1640  -32.0320 C.2   1129  HEM1129     0.0000
      5  CHD       58.8720  -16.5560  -29.3700 C.2   1129  HEM1129     0.0000
      6  NA        58.5750  -15.5780  -34.3440 N.ar  1129  HEM1129     0.0000
      7  C1A       57.1940  -15.5780  -34.4250 C.ar  1129  HEM1129     0.0000
      8  C2A       56.7530  -15.0800  -35.7170 C.ar  1129  HEM1129     0.0000
      9  C3A       57.8490  -14.7700  -36.4080 C.ar  1129  HEM1129     0.0000
     10  C4A       58.9910  -15.0860  -35.5600 C.ar  1129  HEM1129     0.0000
     11  CMA       57.9020  -14.2100  -37.8480 C.3   1129  HEM1129     0.0000
     12  CAA       55.2740  -14.9390  -36.1880 C.3   1129  HEM1129     0.0000
     13  CBA       54.6430  -13.7080  -35.5460 C.3   1129  HEM1129     0.0000
     14  CGA       53.1320  -13.7300  -35.6130 C.2   1129  HEM1129     0.0000
     15  O1A       52.5230  -12.8370  -34.9540 O.co2 1129  HEM1129     0.0000
     16  O2A       52.5350  -14.6160  -36.2920 O.co2 1129  HEM1129     0.0000
     17  NB        61.2370  -15.5700  -33.7410 N.2   1129  HEM1129     0.0000
     18  C1B       61.3320  -15.1830  -35.0570 C.2   1129  HEM1129     0.0000
     19  C2B       62.7240  -15.1590  -35.4500 C.2   1129  HEM1129     0.0000
     20  C3B       63.4460  -15.5150  -34.4030 C.2   1129  HEM1129     0.0000
     21  C4B       62.5510  -15.7710  -33.3030 C.2   1129  HEM1129     0.0000
     22  CMB       63.2840  -14.8130  -36.8380 C.3   1129  HEM1129     0.0000
     23  CAB       64.9790  -15.6000  -34.4510 C.2   1129  HEM1129     0.0000
     24  CBB       65.6790  -15.5500  -33.3190 C.2   1129  HEM1129     0.0000
     25  NC        60.6650  -16.2930  -31.0620 N.ar  1129  HEM1129     0.0000
     26  C1C       62.0590  -16.3290  -30.9820 C.ar  1129  HEM1129     0.0000
     27  C2C       62.4450  -16.5070  -29.5990 C.ar  1129  HEM1129     0.0000
     28  C3C       61.3320  -16.5980  -28.8940 C.ar  1129  HEM1129     0.0000
     29  C4C       60.1970  -16.4800  -29.7700 C.ar  1129  HEM1129     0.0000
     30  CMC       63.8900  -16.5970  -29.0260 C.3   1129  HEM1129     0.0000
     31  CAC       61.2650  -16.8280  -27.3890 C.2   1129  HEM1129     0.0000
     32  CBC       60.0820  -17.0920  -26.8290 C.2   1129  HEM1129     0.0000
     33  ND        57.8820  -16.1840  -31.5620 N.2   1129  HEM1129     0.0000
     34  C1D       57.8070  -16.5990  -30.2370 C.2   1129  HEM1129     0.0000
     35  C2D       56.4660  -17.0670  -29.9370 C.2   1129  HEM1129     0.0000
     36  C3D       55.7070  -16.8680  -31.2440 C.2   1129  HEM1129     0.0000
     37  C4D       56.6570  -16.3110  -32.1720 C.2   1129  HEM1129     0.0000
     38  CMD       55.8740  -17.6280  -28.6210 C.3   1129  HEM1129     0.0000
     39  CAD       54.2250  -17.2110  -31.5300 C.3   1129  HEM1129     0.0000
     40  CBD       53.2510  -16.1040  -31.1360 C.3   1129  HEM1129     0.0000
     41  CGD       51.8760  -16.4460  -31.6980 C.2   1129  HEM1129     0.0000
     42  O1D       50.9310  -15.6500  -31.4710 O.co2 1129  HEM1129     0.0000
     43  O2D       51.6960  -17.5070  -32.3710 O.co2 1129  HEM1129     0.0000
@<TRIPOS>BOND
     1    11     9    1
     2    22    19    1
     3     9     8   ar
     4     9    10   ar
     5    16    14   ar
     6    12     8    1
     7    12    13    1
     8     3    10    2
     9     3    18    1
    10     8     7   ar
    11    14    13    1
    12    14    15   ar
    13    10     6   ar
    14    19    18    1
    15    19    20    2
    16    18    17    2
    17    23    20    1
    18    23    24    2
    19     7     6   ar
    20     7     2    2
    21    20    21    1
    22     6     1    1
    23    17    21    1
    24    17     1    1
    25     2    37    1
    26    21     4    2
    27     1    33    1
    28     1    25    1
    29    43    41   ar
    30    37    33    2
    31    37    36    1
    32     4    26    1
    33    41    42   ar
    34    41    40    1
    35    33    34    1
    36    39    36    1
    37    39    40    1
    38    36    35    2
    39    25    26   ar
    40    25    29   ar
    41    26    27   ar
    42    34    35    1
    43    34     5    2
    44    35    38    1
    45    29     5    1
    46    29    28   ar
    47    27    30    1
    48    27    28   ar
    49    28    31    1
    50    31    32    2
