@<TRIPOS>MOLECULE
2wdr_PCI_C_1.pdb
 12 12 0 0 0
SMALL
GASTEIGER

@<TRIPOS>ATOM
      1  O1        46.2000   -6.2280  -38.8140 O.3   1131  PCI1131    -0.2847
      2  C1        46.1580   -5.8380  -37.5010 C.ar  1131  PCI1131     0.2182
      3  C2        45.5860   -4.6490  -37.1370 C.ar  1131  PCI1131     0.1087
      4 CL1        44.8700   -3.5620  -38.3450 Cl    1131  PCI1131    -0.0780
      5  C3        45.5410   -4.2660  -35.8320 C.ar  1131  PCI1131     0.0827
      6 CL2        44.7850   -2.7300  -35.4070 Cl    1131  PCI1131    -0.0803
      7  C4        46.0550   -5.0230  -34.8280 C.ar  1131  PCI1131     0.0806
      8 CL3        45.9300   -4.4160  -33.1330 Cl    1131  PCI1131    -0.0804
      9  C5        46.6340   -6.2170  -35.1690 C.ar  1131  PCI1131     0.0827
     10 CL4        47.3310   -7.2760  -33.9070 Cl    1131  PCI1131    -0.0803
     11  C6        46.6790   -6.6100  -36.4900 C.ar  1131  PCI1131     0.1087
     12 CL5        47.4450   -8.1670  -36.8770 Cl    1131  PCI1131    -0.0780
@<TRIPOS>BOND
     1     1     2    1
     2     4     3    1
     3     2     3   ar
     4     2    11   ar
     5     3     5   ar
     6    12    11    1
     7    11     9   ar
     8     5     6    1
     9     5     7   ar
    10     9     7   ar
    11     9    10    1
    12     7     8    1
