@<TRIPOS>MOLECULE
2wdr_HEM_C_1.pdb
 43 50 0 0 0
SMALL
GASTEIGER

@<TRIPOS>ATOM
      1 FE         58.8880  -14.5780  -33.5250 Fe    1130  HEM1130     0.0000
      2  CHA       55.4380  -14.4070  -34.1470 C.2   1130  HEM1130     0.0000
      3  CHB       59.3540  -13.3530  -36.7620 C.2   1130  HEM1130     0.0000
      4  CHC       62.3690  -14.6810  -33.1790 C.2   1130  HEM1130     0.0000
      5  CHD       58.4330  -15.4010  -30.4430 C.2   1130  HEM1130     0.0000
      6  NA        57.6340  -13.9740  -35.1420 N.ar  1130  HEM1130     0.0000
      7  C1A       56.2510  -14.0230  -35.1880 C.ar  1130  HEM1130     0.0000
      8  C2A       55.8040  -13.6180  -36.5090 C.ar  1130  HEM1130     0.0000
      9  C3A       56.8890  -13.3270  -37.2300 C.ar  1130  HEM1130     0.0000
     10  C4A       58.0500  -13.5440  -36.3840 C.ar  1130  HEM1130     0.0000
     11  CMA       56.9200  -12.8450  -38.6970 C.3   1130  HEM1130     0.0000
     12  CAA       54.3290  -13.5350  -36.9720 C.3   1130  HEM1130     0.0000
     13  CBA       53.7820  -12.1780  -36.5510 C.3   1130  HEM1130     0.0000
     14  CGA       52.2860  -12.1630  -36.3690 C.2   1130  HEM1130     0.0000
     15  O1A       51.7540  -11.0260  -36.2340 O.co2 1130  HEM1130     0.0000
     16  O2A       51.6460  -13.2570  -36.3420 O.co2 1130  HEM1130     0.0000
     17  NB        60.5450  -14.0640  -34.7230 N.2   1130  HEM1130     0.0000
     18  C1B       60.4830  -13.6530  -36.0430 C.2   1130  HEM1130     0.0000
     19  C2B       61.8300  -13.5840  -36.5730 C.2   1130  HEM1130     0.0000
     20  C3B       62.6620  -13.9410  -35.6110 C.2   1130  HEM1130     0.0000
     21  C4B       61.8910  -14.2620  -34.4150 C.2   1130  HEM1130     0.0000
     22  CMB       62.2530  -13.1720  -37.9990 C.3   1130  HEM1130     0.0000
     23  CAB       64.1790  -13.9860  -35.8120 C.2   1130  HEM1130     0.0000
     24  CBB       64.9270  -14.3360  -34.7690 C.2   1130  HEM1130     0.0000
     25  NC        60.1600  -14.9630  -32.0920 N.ar  1130  HEM1130     0.0000
     26  C1C       61.5600  -14.9720  -32.0770 C.ar  1130  HEM1130     0.0000
     27  C2C       61.9790  -15.3400  -30.7230 C.ar  1130  HEM1130     0.0000
     28  C3C       60.8730  -15.5340  -30.0110 C.ar  1130  HEM1130     0.0000
     29  C4C       59.7260  -15.3020  -30.8440 C.ar  1130  HEM1130     0.0000
     30  CMC       63.4180  -15.4870  -30.1870 C.3   1130  HEM1130     0.0000
     31  CAC       60.7760  -15.9210  -28.5430 C.2   1130  HEM1130     0.0000
     32  CBC       59.8420  -15.2870  -27.8330 C.2   1130  HEM1130     0.0000
     33  ND        57.1760  -14.7540  -32.4490 N.2   1130  HEM1130     0.0000
     34  C1D       57.3090  -15.3540  -31.2180 C.2   1130  HEM1130     0.0000
     35  C2D       56.0500  -15.9350  -30.8390 C.2   1130  HEM1130     0.0000
     36  C3D       55.0950  -15.6430  -31.9820 C.2   1130  HEM1130     0.0000
     37  C4D       55.8780  -14.8980  -32.9390 C.2   1130  HEM1130     0.0000
     38  CMD       55.7310  -16.7020  -29.5400 C.3   1130  HEM1130     0.0000
     39  CAD       53.6330  -16.1090  -32.0020 C.3   1130  HEM1130     0.0000
     40  CBD       52.7120  -15.2840  -32.8900 C.3   1130  HEM1130     0.0000
     41  CGD       51.4870  -16.1400  -33.0790 C.2   1130  HEM1130     0.0000
     42  O1D       51.5380  -17.0660  -33.9400 O.co2 1130  HEM1130     0.0000
     43  O2D       50.4860  -15.9030  -32.3410 O.co2 1130  HEM1130     0.0000
@<TRIPOS>BOND
     1    11     9    1
     2    22    19    1
     3     9     8   ar
     4     9    10   ar
     5    12    13    1
     6    12     8    1
     7     3    10    2
     8     3    18    1
     9    19    18    1
    10    19    20    2
    11    13    14    1
    12     8     7   ar
    13    10     6   ar
    14    14    16   ar
    15    14    15   ar
    16    18    17    2
    17    23    20    1
    18    23    24    2
    19    20    21    1
    20     7     6   ar
    21     7     2    2
    22     6     1    1
    23    17    21    1
    24    17     1    1
    25    21     4    2
    26     2    37    1
    27    42    41   ar
    28     1    33    1
    29     1    25    1
    30     4    26    1
    31    41    40    1
    32    41    43   ar
    33    37    33    2
    34    37    36    1
    35    40    39    1
    36    33    34    1
    37    25    26   ar
    38    25    29   ar
    39    26    27   ar
    40    39    36    1
    41    36    35    2
    42    34    35    1
    43    34     5    2
    44    29     5    1
    45    29    28   ar
    46    35    38    1
    47    27    30    1
    48    27    28   ar
    49    28    31    1
    50    31    32    2
