@<TRIPOS>MOLECULE
2wds_COA_A_1.pdb
 48 50 0 0 0
SMALL
GASTEIGER

@<TRIPOS>ATOM
      1  N1A      -33.3990   17.9670   12.0330 N.2   1124  COA1124     0.0021
      2  C2A      -32.1200   17.6480   12.4290 C.3   1124  COA1124     0.5254
      3  N3A      -31.0530   17.8450   11.5910 N.2   1124  COA1124    -0.0055
      4  C4A      -31.2870   18.3530   10.3510 C.2   1124  COA1124     0.3518
      5  C5A      -32.5710   18.6900    9.9320 C.2   1124  COA1124     0.2526
      6  C6A      -33.6400   18.4910   10.7880 C.2   1124  COA1124     0.4393
      7  N6A      -34.9010   18.6930   10.4070 N.pl3 1124  COA1124     0.2180
      8  N7A      -32.4860   19.1700    8.6660 N.2   1124  COA1124    -0.2095
      9  C8A      -31.1930   19.1450    8.2920 C.3   1124  COA1124     0.3377
     10  N9A      -30.4410   18.6240    9.3240 N.pl3 1124  COA1124    -0.1439
     11  C1B      -29.0030   18.3200    9.3440 C.3   1124  COA1124     0.3185
     12  C2B      -28.5700   17.7080    8.0220 C.3   1124  COA1124     0.2543
     13  O2B      -27.7790   16.5660    8.2910 O.3   1124  COA1124    -0.2131
     14  C3B      -27.7580   18.8300    7.3840 C.3   1124  COA1124     0.1928
     15  O3B      -26.6940   18.4020    6.5650 O.3   1124  COA1124    -0.2673
     16  P3B      -26.9890   17.6290    5.1790 P.3   1124  COA1124     0.5327
     17  O7A      -27.4090   16.2310    5.5230 O.3   1124  COA1124    -0.1145
     18  O8A      -25.6940   17.6440    4.4260 O.2   1124  COA1124    -0.2224
     19  O9A      -28.0860   18.3760    4.4560 O.3   1124  COA1124    -0.1145
     20  C4B      -27.2420   19.5740    8.5920 C.3   1124  COA1124     0.1795
     21  O4B      -28.3080   19.5400    9.5050 O.3   1124  COA1124    -0.3136
     22  C5B      -26.8990   21.0020    8.2420 C.3   1124  COA1124     0.1812
     23  O5B      -26.3120   21.5640    9.3870 O.3   1124  COA1124    -0.3112
     24  P1A      -25.3200   22.7770    9.2040 P.3   1124  COA1124     0.2189
     25  O1A      -24.2260   22.4550    8.2320 O.2   1124  COA1124    -0.5170
     26  O2A      -24.8160   23.1500   10.5590 O.3   1124  COA1124    -0.4371
     27  O3A      -26.3130   23.8660    8.5480 O.3   1124  COA1124    -0.2703
     28  P2A      -27.2510   24.8690    9.3890 P.3   1124  COA1124     0.2188
     29  O4A      -27.3100   26.1490    8.5970 O.2   1124  COA1124    -0.5170
     30  O5A      -26.7050   25.1150   10.7600 O.3   1124  COA1124    -0.4371
     31  O6A      -28.7160   24.2070    9.3040 O.3   1124  COA1124    -0.3138
     32  CBP      -30.6870   23.4190   10.4260 C.3   1124  COA1124     0.0645
     33  CCP      -29.1900   23.2240   10.1890 C.3   1124  COA1124     0.1519
     34  CDP      -30.9380   23.1060   11.8990 C.3   1124  COA1124     0.0056
     35  CEP      -31.4830   22.4220    9.5870 C.3   1124  COA1124     0.0056
     36  CAP      -31.0880   24.8610   10.0740 C.3   1124  COA1124     0.2312
     37  OAP      -31.1510   25.0630    8.6740 O.3   1124  COA1124    -0.2131
     38  C9P      -32.3980   25.2700   10.6690 C.2   1124  COA1124     0.2719
     39  O9P      -33.6000   24.9890    9.9970 O.2   1124  COA1124    -0.2706
     40  N8P      -32.3310   25.9060   11.8320 N.am  1124  COA1124    -0.2028
     41  C7P      -33.4930   26.0440   12.6830 C.3   1124  COA1124     0.1248
     42  C6P      -33.0980   26.7440   13.9690 C.3   1124  COA1124     0.1102
     43  C5P      -34.3060   27.0320   14.8220 C.2   1124  COA1124     0.2432
     44  O5P      -35.4160   26.5260   14.5810 O.2   1124  COA1124    -0.2733
     45  N4P      -34.0770   27.8610   15.8360 N.am  1124  COA1124    -0.2044
     46  C3P      -35.1320   28.3160   16.7180 C.3   1124  COA1124     0.1276
     47  C2P      -35.2090   27.4830   17.9900 C.3   1124  COA1124     0.0920
     48  S1P      -33.6460   27.4380   18.9020 S.3   1124  COA1124    -0.0802
@<TRIPOS>BOND
     1    18    16    2
     2    19    16    1
     3    16    17    1
     4    16    15    1
     5    15    14    1
     6    14    12    1
     7    14    20    1
     8    12    13    1
     9    12    11    1
    10    25    24    2
    11    22    20    1
    12    22    23    1
    13     9     8    1
    14     9    10    1
    15    27    24    1
    16    27    28    1
    17    20    21    1
    18    29    28    2
    19     8     5    2
    20    37    36    1
    21    24    23    1
    22    24    26    1
    23    31    28    1
    24    31    33    1
    25    10    11    1
    26    10     4    1
    27    11    21    1
    28    28    30    1
    29    35    32    1
    30     5     4    1
    31     5     6    1
    32    39    38    2
    33    36    32    1
    34    36    38    1
    35    33    32    1
    36     4     3    2
    37     7     6    1
    38    32    34    1
    39    38    40   am
    40     6     1    2
    41     3     2    1
    42    40    41    1
    43     1     2    1
    44    41    42    1
    45    42    43    1
    46    44    43    2
    47    43    45   am
    48    45    46    1
    49    46    47    1
    50    47    48    1
