@<TRIPOS>MOLECULE
2wdu_GDS_A_1.pdb
 40 39 0 0 0
SMALL
GASTEIGER

@<TRIPOS>ATOM
      1  N1       -13.8770   20.7060   20.5880 N.3   300  GDS300     -0.1208
      2  CA1      -14.9720   19.9460   21.1690 C.3   300  GDS300      0.1948
      3  C1       -16.2780   20.6050   20.8100 C.2   300  GDS300      0.3819
      4  OE1      -16.3350   21.3130   19.7770 O.co2 300  GDS300     -0.2441
      5  OE2      -17.2690   20.4210   21.5510 O.co2 300  GDS300     -0.2441
      6  CB1      -14.8480   19.8310   22.6930 C.3   300  GDS300      0.0402
      7  CG1      -13.4300   20.0060   23.2300 C.3   300  GDS300      0.0889
      8  CD1      -12.7520   18.6670   23.4030 C.2   300  GDS300      0.2418
      9  O1       -12.4360   18.0460   22.3950 O.2   300  GDS300     -0.2733
     10  N2       -12.5500   18.2710   24.6730 N.am  300  GDS300     -0.1968
     11  CA2      -11.8910   17.0340   25.0930 C.3   300  GDS300      0.1843
     12  C2       -12.6370   16.3050   26.1840 C.2   300  GDS300      0.2627
     13  O2       -13.4260   16.9070   26.9090 O.2   300  GDS300     -0.2714
     14  CB2      -10.5360   17.4950   25.6570 C.3   300  GDS300      0.0997
     15  SG2       -9.5610   18.4200   24.4930 S.3   300  GDS300     -0.0797
     16  N3       -12.3710   15.0030   26.3010 N.am  300  GDS300     -0.1917
     17  CA3      -12.8890   13.9970   27.2300 C.3   300  GDS300      0.2285
     18  C3       -14.3970   13.9300   27.2060 C.2   300  GDS300      0.3865
     19  OE3      -15.0110   13.8690   28.2960 O.co2 300  GDS300     -0.2437
     20  OE4      -14.9790   13.9240   26.1030 O.co2 300  GDS300     -0.2437
     21  N4       -11.1680   16.9820   19.9810 N.am  300  GDS300     -0.1917
     22  CA4      -11.5720   17.1910   18.5880 C.3   300  GDS300      0.2285
     23  C4       -13.0300   16.9840   18.3200 C.2   300  GDS300      0.3865
     24  OE5      -13.4540   17.4760   17.2450 O.co2 300  GDS300     -0.2437
     25  OE6      -13.7170   16.3350   19.1630 O.co2 300  GDS300     -0.2437
     26  C5       -10.2560   16.0530   20.2960 C.2   300  GDS300      0.2627
     27  O5        -9.7770   15.2900   19.4640 O.2   300  GDS300     -0.2714
     28  CA5       -9.8230   15.9650   21.7440 C.3   300  GDS300      0.1843
     29  N5        -9.3680   14.6500   22.1260 N.am  300  GDS300     -0.1968
     30  CB5       -8.6510   16.9320   21.9510 C.3   300  GDS300      0.0997
     31  SG5       -8.2180   17.1700   23.6570 S.3   300  GDS300     -0.0797
     32  CA6       -9.0230   10.7730   25.2560 C.3   300  GDS300      0.1948
     33  C6        -7.5230   10.7280   25.0400 C.2   300  GDS300      0.3819
     34  OE7       -7.0490   10.3940   23.9070 O.co2 300  GDS300     -0.2441
     35  OE8       -6.7760   11.0410   25.9920 O.co2 300  GDS300     -0.2441
     36  N6        -9.3890   10.5180   26.6480 N.3   300  GDS300     -0.1208
     37  CB6       -9.3960   12.2260   24.9830 C.3   300  GDS300      0.0402
     38  CG6       -9.1780   12.6640   23.5290 C.3   300  GDS300      0.0889
     39  CD6       -9.7580   14.0360   23.2560 C.2   300  GDS300      0.2418
     40  O6       -10.5830   14.5590   24.0120 O.2   300  GDS300     -0.2733
@<TRIPOS>BOND
     1    24    23   ar
     2    23    22    1
     3    23    25   ar
     4    22    21    1
     5    27    26    2
     6     4     3   ar
     7    21    26   am
     8    26    28    1
     9     1     2    1
    10     3     2    1
    11     3     5   ar
    12     2     6    1
    13    28    30    1
    14    28    29    1
    15    30    31    1
    16    29    39   am
    17     9     8    2
    18     6     7    1
    19     7     8    1
    20    39    38    1
    21    39    40    2
    22     8    10   am
    23    38    37    1
    24    31    15    1
    25    34    33   ar
    26    15    14    1
    27    10    11    1
    28    37    32    1
    29    33    32    1
    30    33    35   ar
    31    11    14    1
    32    11    12    1
    33    32    36    1
    34    20    18   ar
    35    12    16   am
    36    12    13    2
    37    16    17    1
    38    18    17    1
    39    18    19   ar
