@<TRIPOS>MOLECULE
2wdu_GSH_A_1.pdb
 20 19 0 0 0
SMALL
GASTEIGER

@<TRIPOS>ATOM
      1  N1        -9.3890   10.5180   26.6480 N.3   301  GSH301     -0.1208
      2  CA1       -9.0230   10.7730   25.2560 C.3   301  GSH301      0.1948
      3  C1        -7.5230   10.7280   25.0400 C.2   301  GSH301      0.3819
      4  O11       -7.0490   10.3940   23.9070 O.co2 301  GSH301     -0.2441
      5  O12       -6.7760   11.0410   25.9920 O.co2 301  GSH301     -0.2441
      6  CB1       -9.3960   12.2260   24.9830 C.3   301  GSH301      0.0402
      7  CG1       -9.1780   12.6640   23.5290 C.3   301  GSH301      0.0889
      8  CD1       -9.7580   14.0360   23.2560 C.2   301  GSH301      0.2418
      9  OE1      -10.5830   14.5590   24.0120 O.2   301  GSH301     -0.2733
     10  N2        -9.3680   14.6500   22.1260 N.am  301  GSH301     -0.1968
     11  CA2       -9.8230   15.9650   21.7440 C.3   301  GSH301      0.1843
     12  C2       -10.2560   16.0530   20.2960 C.2   301  GSH301      0.2627
     13  O2        -9.7770   15.2900   19.4640 O.2   301  GSH301     -0.2714
     14  CB2       -8.4760   16.6730   21.7980 C.3   301  GSH301      0.0997
     15  SG2       -8.6600   18.4200   21.7930 S.3   301  GSH301     -0.0797
     16  N3       -11.1680   16.9820   19.9810 N.am  301  GSH301     -0.1917
     17  CA3      -11.5720   17.1910   18.5880 C.3   301  GSH301      0.2285
     18  C3       -13.0300   16.9840   18.3200 C.2   301  GSH301      0.3865
     19  O31      -13.4540   17.4760   17.2450 O.co2 301  GSH301     -0.2437
     20  O32      -13.7170   16.3350   19.1630 O.co2 301  GSH301     -0.2437
@<TRIPOS>BOND
     1    19    18   ar
     2    18    17    1
     3    18    20   ar
     4    17    16    1
     5    13    12    2
     6    16    12   am
     7    12    11    1
     8    11    14    1
     9    11    10    1
    10    15    14    1
    11    10     8   am
    12     8     7    1
    13     8     9    2
    14     7     6    1
    15     4     3   ar
    16     6     2    1
    17     3     2    1
    18     3     5   ar
    19     2     1    1
