@<TRIPOS>MOLECULE
2wdv_HEM_C_1.pdb
 43 50 0 0 0
SMALL
GASTEIGER

@<TRIPOS>ATOM
      1 FE         58.9450  -13.7340  -33.3700 Fe    1129  HEM1129     0.0000
      2  CHA       55.6350  -13.7490  -34.2480 C.2   1129  HEM1129     0.0000
      3  CHB       59.6790  -12.5960  -36.6320 C.2   1129  HEM1129     0.0000
      4  CHC       62.3180  -13.8100  -32.7550 C.2   1129  HEM1129     0.0000
      5  CHD       58.2480  -14.4710  -30.2450 C.2   1129  HEM1129     0.0000
      6  NA        57.8920  -13.3120  -35.1010 N.ar  1129  HEM1129     0.0000
      7  C1A       56.5090  -13.2860  -35.1890 C.ar  1129  HEM1129     0.0000
      8  C2A       56.1110  -12.6980  -36.4550 C.ar  1129  HEM1129     0.0000
      9  C3A       57.2250  -12.3800  -37.1210 C.ar  1129  HEM1129     0.0000
     10  C4A       58.3600  -12.7580  -36.2890 C.ar  1129  HEM1129     0.0000
     11  CMA       57.3140  -11.7180  -38.5190 C.3   1129  HEM1129     0.0000
     12  CAA       54.6470  -12.4800  -36.9180 C.3   1129  HEM1129     0.0000
     13  CBA       53.9220  -11.5760  -35.9130 C.3   1129  HEM1129     0.0000
     14  CGA       52.4200  -11.6570  -36.0530 C.2   1129  HEM1129     0.0000
     15  O1A       51.7550  -10.5970  -35.8880 O.co2 1129  HEM1129     0.0000
     16  O2A       51.8900  -12.7720  -36.3160 O.co2 1129  HEM1129     0.0000
     17  NB        60.6280  -13.2260  -34.4660 N.2   1129  HEM1129     0.0000
     18  C1B       60.7230  -12.8990  -35.8090 C.2   1129  HEM1129     0.0000
     19  C2B       62.1160  -12.9260  -36.2150 C.2   1129  HEM1129     0.0000
     20  C3B       62.8290  -13.2520  -35.1560 C.2   1129  HEM1129     0.0000
     21  C4B       61.9280  -13.4510  -34.0300 C.2   1129  HEM1129     0.0000
     22  CMB       62.7400  -12.6350  -37.5970 C.3   1129  HEM1129     0.0000
     23  CAB       64.3640  -13.3830  -35.1840 C.2   1129  HEM1129     0.0000
     24  CBB       65.0530  -12.9980  -34.1030 C.2   1129  HEM1129     0.0000
     25  NC        60.0670  -14.0620  -31.8180 N.ar  1129  HEM1129     0.0000
     26  C1C       61.4540  -14.0850  -31.7210 C.ar  1129  HEM1129     0.0000
     27  C2C       61.8210  -14.4470  -30.3600 C.ar  1129  HEM1129     0.0000
     28  C3C       60.6850  -14.6280  -29.6820 C.ar  1129  HEM1129     0.0000
     29  C4C       59.5710  -14.3920  -30.5800 C.ar  1129  HEM1129     0.0000
     30  CMC       63.2530  -14.5970  -29.7960 C.3   1129  HEM1129     0.0000
     31  CAC       60.5670  -15.0150  -28.1990 C.2   1129  HEM1129     0.0000
     32  CBC       59.3630  -15.2550  -27.6730 C.2   1129  HEM1129     0.0000
     33  ND        57.2220  -13.9700  -32.4060 N.2   1129  HEM1129     0.0000
     34  C1D       57.1980  -14.4630  -31.1210 C.2   1129  HEM1129     0.0000
     35  C2D       55.8880  -14.9840  -30.8220 C.2   1129  HEM1129     0.0000
     36  C3D       55.0630  -14.7750  -32.0850 C.2   1129  HEM1129     0.0000
     37  C4D       55.9750  -14.1370  -32.9910 C.2   1129  HEM1129     0.0000
     38  CMD       55.4490  -15.6280  -29.4920 C.3   1129  HEM1129     0.0000
     39  CAD       53.5940  -15.1570  -32.3560 C.3   1129  HEM1129     0.0000
     40  CBD       52.6400  -14.3800  -31.4530 C.3   1129  HEM1129     0.0000
     41  CGD       51.3680  -14.1120  -32.2370 C.2   1129  HEM1129     0.0000
     42  O1D       50.6500  -13.1150  -31.9350 O.co2 1129  HEM1129     0.0000
     43  O2D       51.0930  -14.9000  -33.1870 O.co2 1129  HEM1129     0.0000
@<TRIPOS>BOND
     1    11     9    1
     2    22    19    1
     3     9     8   ar
     4     9    10   ar
     5    12     8    1
     6    12    13    1
     7     3    10    2
     8     3    18    1
     9     8     7   ar
    10    16    14   ar
    11    10     6   ar
    12    19    18    1
    13    19    20    2
    14    14    13    1
    15    14    15   ar
    16    18    17    2
    17     7     6   ar
    18     7     2    2
    19    23    20    1
    20    23    24    2
    21    20    21    1
    22     6     1    1
    23    17    21    1
    24    17     1    1
    25     2    37    1
    26    21     4    2
    27     1    33    1
    28     1    25    1
    29    43    41   ar
    30    37    33    2
    31    37    36    1
    32     4    26    1
    33    33    34    1
    34    39    36    1
    35    39    40    1
    36    41    42   ar
    37    41    40    1
    38    36    35    2
    39    25    26   ar
    40    25    29   ar
    41    26    27   ar
    42    34    35    1
    43    34     5    2
    44    35    38    1
    45    29     5    1
    46    29    28   ar
    47    27    30    1
    48    27    28   ar
    49    28    31    1
    50    31    32    2
