@<TRIPOS>MOLECULE
2wdx_GHP_E_1.pdb
 11 11 0 0 0
SMALL
GASTEIGER

@<TRIPOS>ATOM
      1  N         17.4070   25.2750   29.2600 N.3   701  GHP701     -0.1196
      2  CA        16.8500   25.4470   30.6210 C.3   701  GHP701      0.1783
      3  C         17.7040   24.7410   31.6720 C.2   701  GHP701      0.2306
      4  O         18.7070   24.0630   31.3810 O.2   701  GHP701     -0.2863
      5  C1        16.8920   26.8880   31.0820 C.ar  701  GHP701      0.0027
      6  C2        15.7420   27.6060   31.4540 C.ar  701  GHP701      0.0008
      7  C3        15.9070   28.9480   31.8750 C.ar  701  GHP701      0.0418
      8  C4        17.2090   29.5140   31.9590 C.ar  701  GHP701      0.1957
      9  O4        17.4500   30.7700   32.3850 O.3   701  GHP701     -0.2866
     10  C5        18.3270   28.7740   31.6360 C.ar  701  GHP701      0.0418
     11  C6        18.1630   27.4650   31.1910 C.ar  701  GHP701      0.0008
@<TRIPOS>BOND
     1     1     2    1
     2     2     5    1
     3     2     3    1
     4     5    11   ar
     5     5     6   ar
     6    11    10   ar
     7     4     3    2
     8     6     7   ar
     9    10     8   ar
    10     7     8   ar
    11     8     9    1
