@<TRIPOS>MOLECULE
2wdx_OMY_E_1.pdb
 14 14 0 0 0
SMALL
GASTEIGER

@<TRIPOS>ATOM
      1  N         12.5950   28.9180   44.5600 N.3   706  OMY706     -0.1214
      2  CA        11.1010   28.9570   44.5030 C.3   706  OMY706      0.1905
      3  OCZ       14.1420   23.4740   43.7340 O.3   706  OMY706     -0.2857
      4  CE2       13.5520   25.2570   45.2130 C.ar  706  OMY706      0.0427
      5  CE1       11.9990   24.7570   43.4140 C.ar  706  OMY706      0.0962
      6  CZ        13.2280   24.4780   44.0990 C.ar  706  OMY706      0.2061
      7  CG        11.4700   26.5880   44.9720 C.ar  706  OMY706      0.0106
      8  CD2       12.6840   26.2710   45.6280 C.ar  706  OMY706      0.0016
      9  CD1       11.1400   25.8080   43.8420 C.ar  706  OMY706      0.0128
     10  CB        10.5920   27.8080   45.4970 C.3   706  OMY706      0.1992
     11 CL         11.5320   23.8230   42.0070 Cl    706  OMY706     -0.0789
     12  O         11.6430   31.1860   45.3380 O.2   706  OMY706     -0.2866
     13  C         10.7960   30.5210   44.7310 C.2   706  OMY706      0.2290
     14  ODE       10.9960   27.9390   46.9710 O.3   706  OMY706     -0.2162
@<TRIPOS>BOND
     1    11     5    1
     2     5     9   ar
     3     5     6   ar
     4     3     6    1
     5     9     7   ar
     6     6     4   ar
     7     2     1    1
     8     2    13    1
     9     2    10    1
    10    13    12    2
    11     7    10    1
    12     7     8   ar
    13     4     8   ar
    14    10    14    1
