@<TRIPOS>MOLECULE
2wdx_T55_E_1.pdb
 11 10 0 0 0
SMALL
GASTEIGER

@<TRIPOS>ATOM
      1  CAD       14.0040   17.0150   46.0420 C.3   711  T55711      0.0000
      2  CAE       13.6130   17.8770   47.2490 C.3   711  T55711      0.0000
      3  CAG       14.3470   17.4970   48.5660 C.3   711  T55711      0.0000
      4  CAH       15.7940   18.1190   48.6760 C.3   711  T55711      0.0000
      5  CAI       15.8360   19.6510   48.8820 C.3   711  T55711      0.0000
      6  CAJ       14.8980   20.3180   47.8120 C.3   711  T55711      0.0005
      7  CAK       15.3310   21.7610   47.4800 C.3   711  T55711      0.0082
      8  CAL       14.8600   22.1320   46.0610 C.3   711  T55711      0.0722
      9  CAF       12.1030   17.9950   47.3980 C.3   711  T55711      0.0000
     10  C         14.6350   20.9850   45.0060 C.2   711  T55711      0.2074
     11  O         13.4820   20.7390   44.6010 O.2   711  T55711     -0.2883
@<TRIPOS>BOND
     1    11    10    2
     2    10     8    1
     3     1     2    1
     4     8     7    1
     5     2     9    1
     6     2     3    1
     7     7     6    1
     8     6     5    1
     9     3     4    1
    10     4     5    1
