@<TRIPOS>MOLECULE
2wdx_3MY_E_1.pdb
 13 13 0 0 0
SMALL
GASTEIGER

@<TRIPOS>ATOM
      1  OBD       15.5820   21.3010   39.5440 O.3   702  3MY702     -0.2857
      2  CZ        16.0300   21.6410   38.2710 C.ar  702  3MY702      0.2061
      3  CE2       17.4180   21.6960   37.9590 C.ar  702  3MY702      0.0962
      4  CD2       17.8330   22.0780   36.6890 C.ar  702  3MY702      0.0104
      5 CL         18.7430   21.3610   39.0500 Cl    702  3MY702     -0.0789
      6  CE1       15.0950   21.9840   37.2650 C.ar  702  3MY702      0.0426
      7  CD1       15.5290   22.3820   35.9880 C.ar  702  3MY702     -0.0009
      8  CG        16.9170   22.4570   35.7180 C.ar  702  3MY702     -0.0192
      9  CB        17.5380   22.8920   34.3620 C.3   702  3MY702      0.0534
     10  CA        17.9170   24.4080   34.0820 C.3   702  3MY702      0.1605
     11  C         17.7890   25.4010   35.2270 C.2   702  3MY702      0.2264
     12  O         18.7190   25.3830   36.0930 O.2   702  3MY702     -0.2867
     13  N         17.2480   24.9580   32.9070 N.3   702  3MY702     -0.1241
@<TRIPOS>BOND
     1    13    10    1
     2    10     9    1
     3    10    11    1
     4     9     8    1
     5    11    12    2
     6     8     7   ar
     7     8     4   ar
     8     7     6   ar
     9     4     3   ar
    10     6     2   ar
    11     3     2   ar
    12     3     5    1
    13     2     1    1
