@<TRIPOS>MOLECULE
2wdx_BMA_E_1.pdb
 11 11 0 0 0
SMALL
GASTEIGER

@<TRIPOS>ATOM
      1  C1         9.3400   32.0760   37.1900 C.3   708  BMA708      0.1777
      2  C2         8.7940   33.5350   37.1940 C.3   708  BMA708      0.2141
      3  C3         8.8690   34.1800   35.7890 C.3   708  BMA708      0.2173
      4  C4        10.3440   34.2130   35.3020 C.3   708  BMA708      0.2142
      5  C5        10.8170   32.7470   35.1850 C.3   708  BMA708      0.1810
      6  C6        12.2050   32.6010   34.5240 C.3   708  BMA708      0.2141
      7  O2         9.5780   34.3400   38.1180 O.3   708  BMA708     -0.2176
      8  O3         8.2570   35.5010   35.7940 O.3   708  BMA708     -0.2175
      9  O4        10.5140   34.9020   34.0300 O.3   708  BMA708     -0.2176
     10  O5        10.6350   31.9050   36.4210 O.3   708  BMA708     -0.3481
     11  O6        13.1690   33.4730   35.1440 O.3   708  BMA708     -0.2176
@<TRIPOS>BOND
     1     9     4    1
     2     6    11    1
     3     6     5    1
     4     5     4    1
     5     5    10    1
     6     4     3    1
     7     3     8    1
     8     3     2    1
     9    10     1    1
    10     1     2    1
    11     2     7    1
