@<TRIPOS>MOLECULE
2wdx_N1L_E_1.pdb
 12 12 0 0 0
SMALL
GASTEIGER

@<TRIPOS>ATOM
      1  C1        15.7360   20.1270   42.1870 C.3   710  N1L710      0.1641
      2  C2        15.7410   19.2960   43.5080 C.3   710  N1L710      0.1542
      3  C3        17.0210   18.3970   43.4720 C.3   710  N1L710      0.2047
      4  C4        17.1130   17.5310   42.1740 C.3   710  N1L710      0.2184
      5  C5        17.0060   18.4400   40.9130 C.3   710  N1L710      0.2402
      6  C6        17.0640   17.7540   39.5420 C.3   710  N1L710      0.4548
      7  O3        17.1690   17.5900   44.6390 O.3   710  N1L710     -0.2187
      8  O4        18.3020   16.6730   42.1230 O.3   710  N1L710     -0.2175
      9  O5        15.8520   19.3980   40.9090 O.3   710  N1L710     -0.3446
     10  O6A       15.7820   17.7970   38.8320 O.2   710  N1L710     -0.2641
     11  O6B       17.6620   16.4370   39.6080 O.2   710  N1L710     -0.2641
     12  N2        15.7470   20.3470   44.5620 N.3   710  N1L710     -0.1275
@<TRIPOS>BOND
     1    10     6    1
     2     6    11    1
     3     6     5    1
     4     9     5    1
     5     9     1    1
     6     5     4    1
     7     8     4    1
     8     4     3    1
     9     1     2    1
    10     3     2    1
    11     3     7    1
    12     2    12    1
