@<TRIPOS>MOLECULE
2wdx_3FG_E_1.pdb
 12 12 0 0 0
SMALL
GASTEIGER

@<TRIPOS>ATOM
      1  N         16.6790   26.2320   35.2170 N.3   703  3FG703     -0.1196
      2  OD1       14.8120   29.6630   32.2650 O.3   703  3FG703     -0.2865
      3  CD1       14.9980   29.6720   33.6410 C.ar  703  3FG703      0.1987
      4  CG1       15.5580   28.5550   34.2840 C.ar  703  3FG703      0.0398
      5  CZ        14.6860   30.7900   34.4200 C.ar  703  3FG703      0.0840
      6  CD2       14.9060   30.7710   35.8080 C.ar  703  3FG703      0.1987
      7  OD2       14.5720   31.8600   36.5660 O.3   703  3FG703     -0.2865
      8  CG2       15.4640   29.6420   36.4280 C.ar  703  3FG703      0.0398
      9  CB        15.8000   28.5270   35.6560 C.ar  703  3FG703      0.0089
     10  CA        16.4220   27.2620   36.2880 C.3   703  3FG703      0.1785
     11  C         15.4990   26.7410   37.4440 C.2   703  3FG703      0.2306
     12  O         14.3900   26.2380   37.1930 O.2   703  3FG703     -0.2863
@<TRIPOS>BOND
     1     2     3    1
     2     3     4   ar
     3     3     5   ar
     4     4     9   ar
     5     5     6   ar
     6     1    10    1
     7     9    10    1
     8     9     8   ar
     9     6     8   ar
    10     6     7    1
    11    10    11    1
    12    12    11    2
