@<TRIPOS>MOLECULE
2wdy_COA_A_1.pdb
 48 50 0 0 0
SMALL
GASTEIGER

@<TRIPOS>ATOM
      1  N1A       -0.5400   15.1990   30.3300 N.2   1128  COA1128     0.0021
      2  C2A       -0.8110   13.9010   30.7230 C.3   1128  COA1128     0.5254
      3  N3A       -0.4710   12.8390   29.9100 N.2   1128  COA1128    -0.0055
      4  C4A        0.1310   13.0800   28.7140 C.2   1128  COA1128     0.3518
      5  C5A        0.4120   14.3830   28.3010 C.2   1128  COA1128     0.2526
      6  C6A        0.0700   15.4610   29.1170 C.2   1128  COA1128     0.4393
      7  N6A        0.0670   16.7170   28.6580 N.pl3 1128  COA1128     0.2180
      8  N7A        0.9980   14.2970   27.0810 N.2   1128  COA1128    -0.2095
      9  C8A        1.0900   12.9930   26.7380 C.3   1128  COA1128     0.3377
     10  N9A        0.5440   12.2200   27.7390 N.pl3 1128  COA1128    -0.1439
     11  C1B        0.0780   10.8190   27.6650 C.3   1128  COA1128     0.3185
     12  C2B       -0.5390   10.4940   26.3160 C.3   1128  COA1128     0.2543
     13  O2B       -1.7480    9.7840   26.5220 O.3   1128  COA1128    -0.2131
     14  C3B        0.5270    9.6180   25.6770 C.3   1128  COA1128     0.1928
     15  O3B        0.0060    8.6300   24.8220 O.3   1128  COA1128    -0.2673
     16  P3B       -0.7020    9.0060   23.4230 P.3   1128  COA1128     0.5327
     17  O7A       -0.0110   10.1820   22.7780 O.3   1128  COA1128    -0.1145
     18  O8A       -0.6540    7.7900   22.5360 O.2   1128  COA1128    -0.2224
     19  O9A       -2.1340    9.3610   23.7530 O.3   1128  COA1128    -0.1145
     20  C4B        1.2420    8.9780   26.8500 C.3   1128  COA1128     0.1795
     21  O4B        1.1640    9.9390   27.8780 O.3   1128  COA1128    -0.3136
     22  C5B        2.6940    8.6310   26.5490 C.3   1128  COA1128     0.1812
     23  O5B        3.2760    8.1270   27.7310 O.3   1128  COA1128    -0.3112
     24  P1A        4.5150    7.1160   27.7000 P.3   1128  COA1128     0.2189
     25  O1A        4.3360    6.0570   26.6380 O.2   1128  COA1128    -0.5170
     26  O2A        4.6790    6.5100   29.0670 O.3   1128  COA1128    -0.4371
     27  O3A        5.7730    8.0300   27.3110 O.3   1128  COA1128    -0.2703
     28  P2A        6.6920    8.8470   28.3530 P.3   1128  COA1128     0.2188
     29  O4A        7.1870    7.9790   29.4770 O.3   1128  COA1128    -0.4371
     30  O5A        7.8130    9.5070   27.5830 O.2   1128  COA1128    -0.5170
     31  O6A        5.7180    9.9650   28.9720 O.3   1128  COA1128    -0.3138
     32  CBP        5.4230   12.3740   28.5550 C.3   1128  COA1128     0.0645
     33  CCP        5.1050   10.9350   28.1440 C.3   1128  COA1128     0.1519
     34  CDP        4.6070   13.2920   27.6490 C.3   1128  COA1128     0.0056
     35  CEP        4.9710   12.5960   29.9940 C.3   1128  COA1128     0.0056
     36  CAP        6.9320   12.6360   28.4170 C.3   1128  COA1128     0.2312
     37  OAP        7.4220   12.2610   27.1420 O.3   1128  COA1128    -0.2131
     38  C9P        7.3600   14.0380   28.7630 C.2   1128  COA1128     0.2719
     39  O9P        7.8910   14.3150   30.0360 O.2   1128  COA1128    -0.2706
     40  N8P        7.2300   14.9790   27.8260 N.am  1128  COA1128    -0.2028
     41  C7P        8.3530   15.7750   27.3620 C.3   1128  COA1128     0.1248
     42  C6P        9.4460   14.9400   26.7010 C.3   1128  COA1128     0.1102
     43  C5P       10.8000   15.4110   27.1790 C.2   1128  COA1128     0.2432
     44  O5P       11.3570   16.3690   26.6200 O.2   1128  COA1128    -0.2733
     45  N4P       11.3470   14.7480   28.1990 N.am  1128  COA1128    -0.2044
     46  C3P       11.2540   15.1980   29.5770 C.3   1128  COA1128     0.1276
     47  C2P       12.1760   16.3720   29.8840 C.3   1128  COA1128     0.0920
     48  S1P       11.3410   17.9580   29.6480 S.3   1128  COA1128    -0.0802
@<TRIPOS>BOND
     1    18    16    2
     2    17    16    1
     3    16    19    1
     4    16    15    1
     5    15    14    1
     6    14    12    1
     7    14    20    1
     8    12    13    1
     9    12    11    1
    10    22    20    1
    11    22    23    1
    12    44    43    2
    13    25    24    2
    14    42    43    1
    15    42    41    1
    16     9     8    1
    17     9    10    1
    18    20    21    1
    19     8     5    2
    20    37    36    1
    21    43    45   am
    22    27    24    1
    23    27    28    1
    24    41    40    1
    25    30    28    2
    26    34    32    1
    27    11    10    1
    28    11    21    1
    29    24    23    1
    30    24    26    1
    31    10     4    1
    32    40    38   am
    33    33    32    1
    34    33    31    1
    35    45    46    1
    36     5     4    1
    37     5     6    1
    38    28    31    1
    39    28    29    1
    40    36    32    1
    41    36    38    1
    42    32    35    1
    43     7     6    1
    44     4     3    2
    45    38    39    2
    46     6     1    2
    47    46    47    1
    48    48    47    1
    49     3     2    1
    50     1     2    1
