@<TRIPOS>MOLECULE
2wdz_NAD_A_1.pdb
 44 48 0 0 0
SMALL
GASTEIGER

@<TRIPOS>ATOM
      1  PA        18.0470   13.5590   20.4010 P.3   257  NAD257      0.2189
      2  O1A       18.9260   14.6940   19.9610 O.2   257  NAD257     -0.5170
      3  O2A       18.5390   12.4260   21.2210 O.3   257  NAD257     -0.4371
      4  O5B       16.7820   14.2320   21.1290 O.3   257  NAD257     -0.3112
      5  C5B       15.8700   13.3620   21.8080 C.3   257  NAD257      0.1813
      6  C4B       15.1210   14.1700   22.8460 C.3   257  NAD257      0.1821
      7  O4B       14.0830   13.3340   23.3590 O.3   257  NAD257     -0.3135
      8  C3B       16.1230   14.4620   23.9830 C.3   257  NAD257      0.2184
      9  O3B       15.9660   15.8460   24.3170 O.3   257  NAD257     -0.2174
     10  C2B       15.6950   13.5130   25.1230 C.3   257  NAD257      0.2570
     11  O2B       15.8940   14.1160   26.3910 O.3   257  NAD257     -0.2130
     12  C1B       14.1760   13.3500   24.8040 C.3   257  NAD257      0.3186
     13  N9A       13.5920   12.0980   25.4320 N.pl3 257  NAD257     -0.1439
     14  C8A       14.1190   10.8520   25.3990 C.3   257  NAD257      0.3377
     15  N7A       13.3410    9.9950   26.0830 N.2   257  NAD257     -0.2095
     16  C5A       12.3190   10.7220   26.5540 C.2   257  NAD257      0.2526
     17  C6A       11.1910   10.4120   27.3360 C.2   257  NAD257      0.4393
     18  N6A       10.9730    9.1500   27.7510 N.pl3 257  NAD257      0.2180
     19  N1A       10.3260   11.4140   27.6380 N.2   257  NAD257      0.0021
     20  C2A       10.4830   12.6540   27.2160 C.3   257  NAD257      0.5254
     21  N3A       11.5460   13.0110   26.4900 N.2   257  NAD257     -0.0055
     22  C4A       12.4810   12.0550   26.1450 C.2   257  NAD257      0.3518
     23  O3        17.3140   12.8280   19.0440 O.3   257  NAD257     -0.2703
     24  PN        16.8840   13.4800   17.5610 P.3   257  NAD257      0.2189
     25  O1N       16.5610   14.8450   18.0680 O.3   257  NAD257     -0.4371
     26  O2N       18.1950   13.0210   17.0210 O.2   257  NAD257     -0.5170
     27  O5D       15.6950   12.3770   17.4180 O.3   257  NAD257     -0.3112
     28  C5D       14.3390   12.6890   17.6120 C.3   257  NAD257      0.1813
     29  C4D       13.4850   11.7090   16.8240 C.3   257  NAD257      0.1799
     30  O4D       13.9420   11.6630   15.4170 O.3   257  NAD257     -0.3327
     31  C3D       13.6830   10.3220   17.4280 C.3   257  NAD257      0.2158
     32  O3D       12.4630    9.6200   17.3720 O.3   257  NAD257     -0.2175
     33  C2D       14.6690    9.6580   16.4700 C.3   257  NAD257      0.2309
     34  O2D       14.5610    8.2310   16.5660 O.3   257  NAD257     -0.2158
     35  C1D       14.2390   10.2700   15.1040 C.3   257  NAD257      0.2263
     36  N1N       15.2960   10.1620   14.0580 N.pl3 257  NAD257     -0.2787
     37  C2N       16.6670   10.6760   14.2420 C.3   257  NAD257      0.1244
     38  C3N       17.6050   10.5070   13.2000 C.2   257  NAD257      0.0544
     39  C7N       19.0050   11.0330   13.4280 C.2   257  NAD257      0.2818
     40  O7N       19.1690   12.0000   14.3680 O.2   257  NAD257     -0.2670
     41  N7N       20.0140   10.4830   12.7370 N.am  257  NAD257     -0.0839
     42  C4N       17.2430    9.8430   12.0220 C.2   257  NAD257      0.0033
     43  C5N       15.9420    9.3570   11.8860 C.2   257  NAD257      0.0157
     44  C6N       14.9720    9.5380   12.8700 C.2   257  NAD257      0.0633
@<TRIPOS>BOND
     1    43    42    1
     2    43    44    2
     3    42    38    2
     4    41    39   am
     5    44    36    1
     6    38    39    1
     7    38    37    1
     8    39    40    2
     9    36    37    1
    10    36    35    1
    11    35    30    1
    12    35    33    1
    13    30    29    1
    14    33    34    1
    15    33    31    1
    16    29    31    1
    17    29    28    1
    18    26    24    2
    19    32    31    1
    20    27    24    1
    21    27    28    1
    22    24    25    1
    23    24    23    1
    24    23     1    1
    25     2     1    2
    26     1     4    1
    27     1     3    1
    28     4     5    1
    29     5     6    1
    30     6     7    1
    31     6     8    1
    32     7    12    1
    33     8     9    1
    34     8    10    1
    35    12    10    1
    36    12    13    1
    37    10    11    1
    38    14    13    1
    39    14    15    1
    40    13    22    1
    41    15    16    2
    42    22    21    2
    43    22    16    1
    44    21    20    1
    45    16    17    1
    46    20    19    1
    47    17    19    2
    48    17    18    1
