@<TRIPOS>MOLECULE
2we0_UMP_A_1.pdb
 20 21 0 0 0
SMALL
GASTEIGER

@<TRIPOS>ATOM
      1  N1        26.8710   -6.3880   -2.1860 N.am  1257  UMP1257    -0.1790
      2  C2        25.9090   -6.8150   -3.0710 C.1   1257  UMP1257     0.2844
      3  N3        24.5540   -6.4750   -2.8780 N.2   1257  UMP1257    -0.2452
      4  C4        24.1420   -5.7120   -1.7480 C.1   1257  UMP1257     0.2182
      5  C5        25.1330   -5.2640   -0.8540 C.2   1257  UMP1257     0.1242
      6  C6        26.5020   -5.6030   -1.0870 C.2   1257  UMP1257     0.0928
      7  O2        26.3340   -7.4880   -4.0420 O.2   1257  UMP1257    -0.1918
      8  O4        22.9400   -5.3860   -1.5790 O.2   1257  UMP1257    -0.2085
      9  C1'       28.2940   -6.7660   -2.5140 C.3   1257  UMP1257     0.2090
     10  C2'       29.1740   -5.5460   -2.8620 C.3   1257  UMP1257     0.0874
     11  C3'       29.8920   -5.2610   -1.5520 C.3   1257  UMP1257     0.1857
     12  C4'       30.0340   -6.6160   -0.8840 C.3   1257  UMP1257     0.1774
     13  O3'       31.1050   -4.5810   -1.7640 O.3   1257  UMP1257    -0.2203
     14  O4'       28.9150   -7.3830   -1.4210 O.3   1257  UMP1257    -0.3339
     15  C5'       30.0490   -6.5410    0.6790 C.3   1257  UMP1257     0.1858
     16  O5'       29.0310   -5.6700    1.2320 O.3   1257  UMP1257    -0.2675
     17  P         28.7110   -5.5260    2.8140 P.3   1257  UMP1257     0.5327
     18  OP1       27.3810   -4.7930    3.0120 O.2   1257  UMP1257    -0.2224
     19  OP2       28.8420   -6.8860    3.4200 O.3   1257  UMP1257    -0.1145
     20  OP3       29.9070   -4.8840    3.3230 O.3   1257  UMP1257    -0.1145
@<TRIPOS>BOND
     1     7     2    2
     2     2     3    2
     3     2     1   am
     4     3     4    2
     5    10     9    1
     6    10    11    1
     7     9     1    1
     8     9    14    1
     9     1     6    1
    10    13    11    1
    11     4     8    2
    12     4     5    1
    13    11    12    1
    14    14    12    1
    15     6     5    2
    16    12    15    1
    17    15    16    1
    18    16    17    1
    19    17    18    2
    20    17    20    1
    21    17    19    1
