@<TRIPOS>MOLECULE
2we1_UMP_A_1.pdb
 20 21 0 0 0
SMALL
GASTEIGER

@<TRIPOS>ATOM
      1  N1         1.1510    6.3480   -2.1790 N.am  1257  UMP1257    -0.1790
      2  C2         2.1510    6.8220   -2.9880 C.1   1257  UMP1257     0.2844
      3  N3         3.4550    6.4620   -2.7250 N.2   1257  UMP1257    -0.2452
      4  C4         3.8310    5.6520   -1.6610 C.1   1257  UMP1257     0.2182
      5  C5         2.8300    5.1860   -0.7920 C.2   1257  UMP1257     0.1242
      6  C6         1.5000    5.5550   -1.0810 C.2   1257  UMP1257     0.0928
      7  O2         1.9220    7.5460   -3.9670 O.2   1257  UMP1257    -0.1918
      8  O4         5.0320    5.3830   -1.5100 O.2   1257  UMP1257    -0.2085
      9  C1'       -0.2700    6.6800   -2.4310 C.3   1257  UMP1257     0.2090
     10  C2'       -1.0790    5.3970   -2.6950 C.3   1257  UMP1257     0.0874
     11  C3'       -1.8060    5.1090   -1.3920 C.3   1257  UMP1257     0.1857
     12  C4'       -1.9060    6.5010   -0.7700 C.3   1257  UMP1257     0.1774
     13  O3'       -3.0610    4.4710   -1.6130 O.3   1257  UMP1257    -0.2203
     14  O4'       -0.8380    7.2780   -1.2850 O.3   1257  UMP1257    -0.3339
     15  C5'       -1.8510    6.5350    0.7490 C.3   1257  UMP1257     0.1858
     16  O5'       -0.6920    5.8620    1.2110 O.3   1257  UMP1257    -0.2675
     17  P         -0.4200    5.6630    2.7900 P.3   1257  UMP1257     0.5327
     18  OP1       -0.6730    6.9480    3.4790 O.3   1257  UMP1257    -0.1145
     19  OP2        1.0330    5.2030    2.8660 O.2   1257  UMP1257    -0.2224
     20  OP3       -1.4540    4.6810    3.2590 O.3   1257  UMP1257    -0.1145
@<TRIPOS>BOND
     1     7     2    2
     2     2     3    2
     3     2     1   am
     4     3     4    2
     5    10     9    1
     6    10    11    1
     7     9     1    1
     8     9    14    1
     9     1     6    1
    10     4     8    2
    11     4     5    1
    12    13    11    1
    13    11    12    1
    14    14    12    1
    15     6     5    2
    16    12    15    1
    17    15    16    1
    18    16    17    1
    19    17    19    2
    20    17    20    1
    21    17    18    1
