@<TRIPOS>MOLECULE
2we2_UMP_A_1.pdb
 20 21 0 0 0
SMALL
GASTEIGER

@<TRIPOS>ATOM
      1  N1        26.6580   -6.3470   -2.2660 N.am  1258  UMP1258    -0.1790
      2  C2        25.6560   -6.8190   -3.0920 C.1   1258  UMP1258     0.2844
      3  N3        24.3470   -6.5050   -2.8080 N.2   1258  UMP1258    -0.2452
      4  C4        24.0010   -5.7130   -1.7280 C.1   1258  UMP1258     0.2182
      5  C5        25.0100   -5.2420   -0.8890 C.2   1258  UMP1258     0.1242
      6  C6        26.3210   -5.5680   -1.1820 C.2   1258  UMP1258     0.0928
      7  O2        25.8960   -7.5350   -4.0770 O.2   1258  UMP1258    -0.1918
      8  O4        22.8150   -5.4590   -1.5160 O.2   1258  UMP1258    -0.2085
      9  C1'       28.0730   -6.6780   -2.5430 C.3   1258  UMP1258     0.2090
     10  C2'       28.8980   -5.4280   -2.8400 C.3   1258  UMP1258     0.0874
     11  C3'       29.5940   -5.1490   -1.5350 C.3   1258  UMP1258     0.1857
     12  C4'       29.7300   -6.5340   -0.9090 C.3   1258  UMP1258     0.1774
     13  O3'       30.8480   -4.5360   -1.7480 O.3   1258  UMP1258    -0.2203
     14  O4'       28.6160   -7.2840   -1.3740 O.3   1258  UMP1258    -0.3339
     15  C5'       29.7540   -6.5040    0.6050 C.3   1258  UMP1258     0.1858
     16  O5'       28.5510   -5.9390    1.0940 O.3   1258  UMP1258    -0.2675
     17  P         28.3450   -5.7370    2.6720 P.3   1258  UMP1258     0.5327
     18  OP1       29.3180   -4.6740    3.1470 O.3   1258  UMP1258    -0.1145
     19  OP2       28.5640   -7.0700    3.3280 O.3   1258  UMP1258    -0.1145
     20  OP3       26.9490   -5.2760    2.7980 O.2   1258  UMP1258    -0.2224
@<TRIPOS>BOND
     1     7     2    2
     2     2     3    2
     3     2     1   am
     4    10     9    1
     5    10    11    1
     6     3     4    2
     7     9     1    1
     8     9    14    1
     9     1     6    1
    10    13    11    1
    11     4     8    2
    12     4     5    1
    13    11    12    1
    14    14    12    1
    15     6     5    2
    16    12    15    1
    17    15    16    1
    18    16    17    1
    19    17    20    2
    20    17    18    1
    21    17    19    1
