@<TRIPOS>MOLECULE
2we3_DUT_A_1.pdb
 28 29 0 0 0
SMALL
GASTEIGER

@<TRIPOS>ATOM
      1  N1        26.0370   16.9220    4.4070 N.am  1257  DUT1257    -0.1790
      2  C2        25.2210   17.1540    3.2730 C.1   1257  DUT1257     0.2844
      3  N3        25.7370   17.0960    2.0120 N.2   1257  DUT1257    -0.2452
      4  C4        27.0360   16.7770    1.8290 C.1   1257  DUT1257     0.2182
      5  C5        27.8720   16.5580    2.9280 C.2   1257  DUT1257     0.1242
      6  C6        27.3330   16.6370    4.1980 C.2   1257  DUT1257     0.0928
      7  O2        24.0290   17.4260    3.4090 O.2   1257  DUT1257    -0.1918
      8  O4        27.5600   16.7420    0.5890 O.2   1257  DUT1257    -0.2085
      9  C1'       25.5140   16.9950    5.7970 C.3   1257  DUT1257     0.2090
     10  C2'       25.6350   15.6700    6.5560 C.3   1257  DUT1257     0.0874
     11  C3'       26.8000   15.8790    7.5280 C.3   1257  DUT1257     0.1857
     12  C4'       26.7820   17.3900    7.7660 C.3   1257  DUT1257     0.1773
     13  O4'       26.2470   17.9720    6.5700 O.3   1257  DUT1257    -0.3339
     14  O3'       26.6440   15.1020    8.7370 O.3   1257  DUT1257    -0.2203
     15  C5'       28.1600   18.0070    8.0590 C.3   1257  DUT1257     0.1812
     16  O5'       28.9830   17.7640    6.9160 O.3   1257  DUT1257    -0.3112
     17  PA        30.5570   17.9530    7.0140 P.3   1257  DUT1257     0.2189
     18  O1A       31.1600   17.6740    5.6660 O.2   1257  DUT1257    -0.5170
     19  O2A       30.9860   17.2130    8.2280 O.3   1257  DUT1257    -0.4371
     20  O3A       30.5610   19.5620    7.3290 O.3   1257  DUT1257    -0.2700
     21  PB        31.7000   20.4010    8.1790 P.3   1257  DUT1257     0.2277
     22  O1B       32.1940   21.5020    7.3180 O.2   1257  DUT1257    -0.5168
     23  O2B       32.7010   19.4460    8.7320 O.3   1257  DUT1257    -0.4368
     24  O3B       30.7670   21.0110    9.3380 O.3   1257  DUT1257    -0.2258
     25  PG        30.5960   20.3410   10.7980 P.3   1257  DUT1257     0.5373
     26  O1G       31.7480   20.9270   11.5690 O.3   1257  DUT1257    -0.1143
     27  O2G       30.6300   18.8160   10.6540 O.2   1257  DUT1257    -0.2221
     28  O3G       29.2500   20.7470   11.3050 O.3   1257  DUT1257    -0.1143
@<TRIPOS>BOND
     1     8     4    2
     2     4     3    2
     3     4     5    1
     4     3     2    2
     5     5     6    2
     6     2     7    2
     7     2     1   am
     8     6     1    1
     9     1     9    1
    10    18    17    2
    11     9    10    1
    12     9    13    1
    13    10    11    1
    14    13    12    1
    15    16    17    1
    16    16    15    1
    17    17    20    1
    18    17    19    1
    19    22    21    2
    20    20    21    1
    21    11    12    1
    22    11    14    1
    23    12    15    1
    24    21    23    1
    25    21    24    1
    26    24    25    1
    27    27    25    2
    28    25    28    1
    29    25    26    1
