@<TRIPOS>MOLECULE
2we5_ADP_A_1.pdb
 27 29 0 0 0
SMALL
GASTEIGER

@<TRIPOS>ATOM
      1  PB        70.5080   39.5140   10.9190 P.3   1311  ADP1311     0.5373
      2  O1B       69.6870   38.4240   10.2960 O.3   1311  ADP1311    -0.1143
      3  O2B       70.5110   40.7560   10.1130 O.2   1311  ADP1311    -0.2221
      4  O3B       70.0370   39.7760   12.3110 O.3   1311  ADP1311    -0.1143
      5  PA        72.7760   37.6400   10.7980 P.3   1311  ADP1311     0.2231
      6  O1A       73.8200   37.6530   11.8200 O.3   1311  ADP1311    -0.4370
      7  O2A       71.8370   36.5290   10.7770 O.2   1311  ADP1311    -0.5169
      8  O3A       72.0230   39.0490   10.8850 O.3   1311  ADP1311    -0.2261
      9  O5'       73.3640   37.6990    9.3260 O.3   1311  ADP1311    -0.3111
     10  C5'       74.3230   38.7340    9.0360 C.3   1311  ADP1311     0.1813
     11  C4'       75.7740   38.3040    9.2730 C.3   1311  ADP1311     0.1821
     12  O4'       76.1850   37.2550    8.3630 O.3   1311  ADP1311    -0.3135
     13  C3'       76.7430   39.3910    9.0000 C.3   1311  ADP1311     0.2184
     14  O3'       76.6110   40.5470    9.7880 O.3   1311  ADP1311    -0.2174
     15  C2'       78.0580   38.5780    9.0720 C.3   1311  ADP1311     0.2570
     16  O2'       78.5830   38.5980   10.4510 O.3   1311  ADP1311    -0.2130
     17  C1'       77.6240   37.2120    8.6250 C.3   1311  ADP1311     0.3186
     18  N9        78.1710   36.7280    7.3320 N.pl3 1311  ADP1311    -0.1439
     19  C8        78.3480   35.3770    7.0190 C.3   1311  ADP1311     0.3377
     20  N7        78.8350   35.1530    5.8190 N.2   1311  ADP1311    -0.2095
     21  C5        78.9890   36.3760    5.2930 C.2   1311  ADP1311     0.2526
     22  C6        79.4690   36.7850    4.0440 C.2   1311  ADP1311     0.4393
     23  N6        79.9100   36.0360    2.9670 N.pl3 1311  ADP1311     0.2180
     24  N1        79.5250   38.1500    3.7600 N.2   1311  ADP1311     0.0021
     25  C2        79.1120   39.0760    4.7360 C.3   1311  ADP1311     0.5254
     26  N3        78.6350   38.7620    5.9700 N.2   1311  ADP1311    -0.0055
     27  C4        78.5970   37.3790    6.2050 C.2   1311  ADP1311     0.3518
@<TRIPOS>BOND
     1    23    22    1
     2    24    22    2
     3    24    25    1
     4    22    21    1
     5    25    26    1
     6    21    20    2
     7    21    27    1
     8    20    19    1
     9    26    27    2
    10    27    18    1
    11    19    18    1
    12    18    17    1
    13    12    17    1
    14    12    11    1
    15    17    15    1
    16    13    15    1
    17    13    11    1
    18    13    14    1
    19    10    11    1
    20    10     9    1
    21    15    16    1
    22     9     5    1
    23     3     1    2
    24     2     1    1
    25     7     5    2
    26     5     8    1
    27     5     6    1
    28     8     1    1
    29     1     4    1
