@<TRIPOS>MOLECULE
2wea_MAN_A_1.pdb
 11 11 0 0 0
SMALL
GASTEIGER

@<TRIPOS>ATOM
      1  C1        29.8950   27.5150   -0.6280 C.3   324  MAN324      0.1777
      2  C2        30.0230   27.0540   -2.0540 C.3   324  MAN324      0.2141
      3  C3        31.4540   27.3430   -2.4910 C.3   324  MAN324      0.2173
      4  C4        31.7460   28.8340   -2.3500 C.3   324  MAN324      0.2142
      5  C5        31.6390   29.1720   -0.8730 C.3   324  MAN324      0.1810
      6  C6        32.0240   30.6070   -0.5100 C.3   324  MAN324      0.2141
      7  O2        28.9350   27.5750   -2.8620 O.3   324  MAN324     -0.2176
      8  O3        31.7440   26.8780   -3.8060 O.3   324  MAN324     -0.2175
      9  O4        33.0420   29.1620   -2.8070 O.3   324  MAN324     -0.2176
     10  O5        30.2900   28.8870   -0.4460 O.3   324  MAN324     -0.3481
     11  O6        31.0060   31.6120   -0.7250 O.3   324  MAN324     -0.2176
@<TRIPOS>BOND
     1     8     3    1
     2     7     2    1
     3     9     4    1
     4     3     4    1
     5     3     2    1
     6     4     5    1
     7     2     1    1
     8     5     6    1
     9     5    10    1
    10    11     6    1
    11     1    10    1
