@<TRIPOS>MOLECULE
2wea_PP6_A_1.pdb
 39 42 0 0 0
SMALL
GASTEIGER

@<TRIPOS>ATOM
      1  OI        18.3240    8.1940   19.2700 O.2   326  PP6326     -0.2267
      2  C1        20.6460    5.3500   19.3010 C.ar  326  PP6326     -0.0057
      3  C2        20.4000    4.0190   19.5400 C.ar  326  PP6326     -0.0032
      4  C3        21.3790    3.1650   20.0840 C.ar  326  PP6326     -0.0003
      5  C4        22.5950    3.6380   20.5120 C.ar  326  PP6326     -0.0000
      6  C5        22.8690    5.0540   20.3820 C.ar  326  PP6326     -0.0003
      7  C6        21.9270    5.8920   19.7190 C.ar  326  PP6326     -0.0032
      8  C7        22.2400    7.2810   19.5530 C.ar  326  PP6326     -0.0045
      9  C8        23.4200    7.8350   20.0410 C.ar  326  PP6326     -0.0196
     10  C9        24.3610    6.9950   20.6940 C.ar  326  PP6326     -0.0042
     11  C10       24.0980    5.6450   20.8270 C.ar  326  PP6326     -0.0003
     12  C11       19.5030    6.2380   18.8080 C.3   326  PP6326      0.1479
     13  C12       19.0670    7.3220   19.7830 C.1   326  PP6326      0.1315
     14  C13       23.6400    9.3370   19.9820 C.3   326  PP6326      0.0641
     15  C14       22.9820   10.0360   21.2190 C.3   326  PP6326      0.2239
     16  NV        19.5730    7.3950   21.0100 N.2   326  PP6326     -0.1910
     17  CAV       19.4800    8.5420   21.9310 C.3   326  PP6326      0.2189
     18  CV        21.0040    8.8630   22.0560 C.1   326  PP6326      0.1496
     19  OV        21.6090    8.2350   22.9450 O.2   326  PP6326     -0.2251
     20  CBV       18.7350    8.2860   23.2190 C.3   326  PP6326      0.0393
     21  CV1       18.7460    9.6160   23.9800 C.3   326  PP6326      0.0032
     22  CV2       17.3240    7.8260   22.7770 C.3   326  PP6326      0.0032
     23  NL        21.5280    9.7910   21.2620 N.2   326  PP6326     -0.1938
     24  P         23.3010   11.8140   21.1240 P.3   326  PP6326      0.3927
     25  O         24.7480   12.0480   20.9510 O.3   326  PP6326     -0.1381
     26  OH        22.5020   12.4680   20.0940 O.2   326  PP6326     -0.2534
     27  CA        23.5590   13.4510   23.1560 C.3   326  PP6326      0.2262
     28  CB        22.4750   14.4860   23.5190 C.3   326  PP6326      0.0680
     29  CG        21.4740   13.9950   24.5040 C.ar  326  PP6326     -0.0192
     30  CD1       20.4650   13.1320   24.1330 C.ar  326  PP6326     -0.0042
     31  CD2       21.5310   14.4310   25.8010 C.ar  326  PP6326     -0.0042
     32  CE1       19.5650   12.6670   25.0680 C.ar  326  PP6326     -0.0003
     33  CE2       20.6380   13.9810   26.7540 C.ar  326  PP6326     -0.0003
     34  CZ        19.5870   13.1550   26.3720 C.ar  326  PP6326     -0.0000
     35  C         24.1510   12.8390   24.4310 C.2   326  PP6326      0.3454
     36  CS        25.5120   13.4710   26.2230 C.3   326  PP6326      0.2557
     37  OP        22.9760   12.2920   22.5840 O.3   326  PP6326     -0.2821
     38  OS        24.7450   13.8440   25.0500 O.3   326  PP6326     -0.4427
     39  OE        24.4250   11.6840   24.6420 O.2   326  PP6326     -0.2474
@<TRIPOS>BOND
     1    12     2    1
     2    12    13    1
     3     1    13    2
     4     2     3   ar
     5     2     7   ar
     6     3     4   ar
     7     8     7   ar
     8     8     9   ar
     9     7     6   ar
    10    13    16    2
    11    14     9    1
    12    14    15    1
    13     9    10   ar
    14     4     5   ar
    15    26    24    2
    16     6     5   ar
    17     6    11   ar
    18    10    11   ar
    19    25    24    1
    20    16    17    1
    21    24    15    1
    22    24    37    1
    23    15    23    1
    24    23    18    2
    25    17    18    1
    26    17    20    1
    27    18    19    2
    28    37    27    1
    29    22    20    1
    30    27    28    1
    31    27    35    1
    32    20    21    1
    33    28    29    1
    34    30    29   ar
    35    30    32   ar
    36    35    39    2
    37    35    38    1
    38    29    31   ar
    39    38    36    1
    40    32    34   ar
    41    31    33   ar
    42    34    33   ar
