@<TRIPOS>MOLECULE
2web_PP4_A_1.pdb
 38 40 0 0 0
SMALL
GASTEIGER

@<TRIPOS>ATOM
      1  OI        18.2010    7.8270   19.5050 O.2   326  PP4326     -0.2633
      2  C1        23.9110    5.6370   16.7200 C.ar  326  PP4326     -0.0000
      3  C2        23.9160    4.2660   16.5030 C.ar  326  PP4326     -0.0000
      4  C3        23.9520    3.3420   17.5730 C.ar  326  PP4326     -0.0000
      5  C4        24.0190    3.7490   18.8890 C.ar  326  PP4326     -0.0000
      6  C5        24.0780    5.1750   19.1690 C.ar  326  PP4326     -0.0000
      7  C6        24.0170    6.1060   18.0910 C.ar  326  PP4326     -0.0003
      8  C7        23.9750    7.4950   18.3910 C.ar  326  PP4326     -0.0042
      9  C8        24.0780    7.9680   19.6840 C.ar  326  PP4326     -0.0198
     10  C9        24.1390    7.0520   20.7600 C.ar  326  PP4326     -0.0042
     11  C10       24.1430    5.6960   20.4930 C.ar  326  PP4326     -0.0003
     12  C12       19.1540    7.1550   19.9500 C.2   326  PP4326      0.3205
     13  C13       24.1310    9.4520   19.9380 C.3   326  PP4326      0.0606
     14  C14       23.3180    9.9480   21.1430 C.3   326  PP4326      0.2049
     15  NV        20.0120    7.0900   20.9680 N.am  326  PP4326     -0.1901
     16  CAV       19.9990    8.1170   22.0240 C.3   326  PP4326      0.1731
     17  CV        21.4120    8.7170   22.0390 C.2   326  PP4326      0.2617
     18  OV        21.9940    8.3710   23.0640 O.2   326  PP4326     -0.2715
     19  CBV       19.2910    7.9150   23.3820 C.3   326  PP4326      0.0290
     20  CV1       18.7630    9.2450   23.8980 C.3   326  PP4326      0.0023
     21  CV2       17.8670    7.5800   22.8920 C.3   326  PP4326      0.0023
     22  NL        21.9330    9.4890   21.0870 N.am  326  PP4326     -0.1928
     23  P         23.3940   11.7670   21.2360 P.3   326  PP4326      0.3895
     24  O         24.7780   12.1980   21.1850 O.3   326  PP4326     -0.1383
     25  OH        22.5240   12.3700   20.2390 O.2   326  PP4326     -0.2537
     26  CA        23.5560   13.0060   23.4940 C.3   326  PP4326      0.2262
     27  CB        22.4910   13.9300   24.0690 C.3   326  PP4326      0.0680
     28  CG        21.5050   13.2300   24.9470 C.ar  326  PP4326     -0.0192
     29  CD1       20.4950   12.4600   24.3980 C.ar  326  PP4326     -0.0042
     30  CD2       21.6130   13.3050   26.3250 C.ar  326  PP4326     -0.0042
     31  CE1       19.5750   11.8200   25.2120 C.ar  326  PP4326     -0.0003
     32  CE2       20.7040   12.6680   27.1500 C.ar  326  PP4326     -0.0003
     33  CZ        19.6810   11.9290   26.5950 C.ar  326  PP4326     -0.0000
     34  C         24.3280   12.3200   24.6100 C.2   326  PP4326      0.3454
     35  CS        25.8280   12.6910   26.4180 C.3   326  PP4326      0.2557
     36  OP        22.9560   12.0280   22.6990 O.3   326  PP4326     -0.2823
     37  OS        24.7230   13.1570   25.5660 O.3   326  PP4326     -0.4427
     38  OE        24.5800   11.1490   24.6340 O.2   326  PP4326     -0.2474
@<TRIPOS>BOND
     1     3     2   ar
     2     3     4   ar
     3     2     7   ar
     4     4     5   ar
     5     7     8   ar
     6     7     6   ar
     7     8     9   ar
     8     5     6   ar
     9     6    11   ar
    10     1    12    2
    11     9    13    1
    12     9    10   ar
    13    13    14    1
    14    12    15   am
    15    25    23    2
    16    11    10   ar
    17    15    16    1
    18    22    14    1
    19    22    17   am
    20    14    23    1
    21    24    23    1
    22    23    36    1
    23    16    17    1
    24    16    19    1
    25    17    18    2
    26    36    26    1
    27    21    19    1
    28    19    20    1
    29    26    27    1
    30    26    34    1
    31    27    28    1
    32    29    28   ar
    33    29    31   ar
    34    34    38    2
    35    34    37    1
    36    28    30   ar
    37    31    33   ar
    38    37    35    1
    39    30    32   ar
    40    33    32   ar
