@<TRIPOS>MOLECULE
2wec_PP5_A_1.pdb
 38 40 0 0 0
SMALL
GASTEIGER

@<TRIPOS>ATOM
      1  OI        17.3100    4.0380   19.5450 O.2   326  PP5326     -0.2730
      2  C1        14.4910    4.2810   19.1430 C.ar  326  PP5326     -0.0130
      3  C2        13.6660    3.1820   18.9680 C.ar  326  PP5326     -0.0038
      4  C3        12.6620    2.8580   19.9120 C.ar  326  PP5326     -0.0003
      5  C4        12.4470    3.6170   21.0620 C.ar  326  PP5326     -0.0000
      6  C5        13.2870    4.7830   21.2830 C.ar  326  PP5326     -0.0003
      7  C6        14.2990    5.1100   20.3310 C.ar  326  PP5326     -0.0035
      8  C7        15.1100    6.2540   20.5700 C.ar  326  PP5326     -0.0003
      9  C8        14.9470    7.0550   21.6940 C.ar  326  PP5326     -0.0000
     10  C9        13.9450    6.7400   22.6320 C.ar  326  PP5326     -0.0000
     11  C10       13.1420    5.6320   22.4200 C.ar  326  PP5326     -0.0000
     12  C11       15.5510    4.5630   18.0780 C.3   326  PP5326      0.1131
     13  C12       16.9450    4.7810   18.6330 C.2   326  PP5326      0.2462
     14  C14       20.1920    8.8230   21.0700 C.3   326  PP5326      0.2322
     15  NV        18.0100    5.5590   18.4580 N.am  326  PP5326     -0.1975
     16  CAV       19.3460    5.8100   19.0050 C.3   326  PP5326      0.1727
     17  CV        19.2600    7.2470   19.5720 C.2   326  PP5326      0.2618
     18  OV        18.3940    8.0880   19.2090 O.2   326  PP5326     -0.2715
     19  CBV       20.4930    5.9580   17.9970 C.3   326  PP5326      0.0290
     20  CV1       20.4440    4.5830   17.3320 C.3   326  PP5326      0.0023
     21  CV2       20.2190    6.8970   16.8240 C.3   326  PP5326      0.0023
     22  NL        20.2080    7.4740   20.4850 N.am  326  PP5326     -0.1907
     23  P         21.6660    9.1360   22.0970 P.3   326  PP5326      0.3915
     24  O         22.5810   10.0710   21.4550 O.2   326  PP5326     -0.2536
     25  OH        22.2520    7.8940   22.5710 O.3   326  PP5326     -0.1382
     26  CA        20.7550   11.1110   23.4310 C.3   326  PP5326      0.2262
     27  CB        19.3880   11.3950   24.0660 C.3   326  PP5326      0.0680
     28  CG        19.2920   11.0050   25.5130 C.ar  326  PP5326     -0.0192
     29  CD1       20.0320   11.6790   26.4900 C.ar  326  PP5326     -0.0042
     30  CD2       18.4530    9.9690   25.9060 C.ar  326  PP5326     -0.0042
     31  CE1       19.9430   11.3160   27.8270 C.ar  326  PP5326     -0.0003
     32  CE2       18.3540    9.6040   27.2480 C.ar  326  PP5326     -0.0003
     33  CZ        19.1000   10.2770   28.2080 C.ar  326  PP5326     -0.0000
     34  C         21.8670   11.8460   24.1640 C.2   326  PP5326      0.3454
     35  CS        22.5700   14.1300   24.3970 C.3   326  PP5326      0.2557
     36  OP        21.0200    9.7180   23.3980 O.3   326  PP5326     -0.2822
     37  OS        21.5390   13.1650   24.0740 O.3   326  PP5326     -0.4427
     38  OE        22.9460   11.3900   24.4870 O.2   326  PP5326     -0.2474
@<TRIPOS>BOND
     1    21    19    1
     2    20    19    1
     3    19    16    1
     4    12    13    1
     5    12     2    1
     6    15    13   am
     7    15    16    1
     8    13     1    2
     9     3     2   ar
    10     3     4   ar
    11    16    17    1
    12     2     7   ar
    13    18    17    2
    14    17    22   am
    15     4     5   ar
    16     7     8   ar
    17     7     6   ar
    18    22    14    1
    19     8     9   ar
    20     5     6   ar
    21    14    23    1
    22     6    11   ar
    23    24    23    2
    24     9    10   ar
    25    23    25    1
    26    23    36    1
    27    11    10   ar
    28    36    26    1
    29    26    27    1
    30    26    34    1
    31    27    28    1
    32    37    34    1
    33    37    35    1
    34    34    38    2
    35    28    30   ar
    36    28    29   ar
    37    30    32   ar
    38    29    31   ar
    39    32    33   ar
    40    31    33   ar
