@<TRIPOS>MOLECULE
2wed_MAN_A_1.pdb
 11 11 0 0 0
SMALL
GASTEIGER

@<TRIPOS>ATOM
      1  C1        25.3810   15.4780   -1.8450 C.3   325  MAN325      0.1777
      2  C2        25.5810   16.9280   -2.2670 C.3   325  MAN325      0.2141
      3  C3        24.2570   17.5390   -2.6320 C.3   325  MAN325      0.2173
      4  C4        23.6330   16.7430   -3.7430 C.3   325  MAN325      0.2142
      5  C5        23.4760   15.2960   -3.2910 C.3   325  MAN325      0.1810
      6  C6        22.9640   14.3790   -4.3870 C.3   325  MAN325      0.2141
      7  O2        26.3780   16.9790   -3.4530 O.3   325  MAN325     -0.2176
      8  O3        24.4190   18.8770   -3.1060 O.3   325  MAN325     -0.2175
      9  O4        22.3470   17.3080   -3.9050 O.3   325  MAN325     -0.2176
     10  O5        24.7500   14.7570   -2.8970 O.3   325  MAN325     -0.3481
     11  O6        23.5120   13.0230   -4.2250 O.3   325  MAN325     -0.2176
@<TRIPOS>BOND
     1     6    11    1
     2     6     5    1
     3     9     4    1
     4     4     5    1
     5     4     3    1
     6     7     2    1
     7     5    10    1
     8     8     3    1
     9    10     1    1
    10     3     2    1
    11     2     1    1
