@<TRIPOS>MOLECULE
2wed_PP6_A_1.pdb
 39 42 0 0 0
SMALL
GASTEIGER

@<TRIPOS>ATOM
      1  OI        18.5650    8.1550   19.6630 O.2   327  PP6327     -0.2267
      2  C1        21.0440    5.4740   19.1630 C.ar  327  PP6327     -0.0057
      3  C2        20.9400    4.1000   19.1490 C.ar  327  PP6327     -0.0032
      4  C3        22.0210    3.2630   19.5050 C.ar  327  PP6327     -0.0003
      5  C4        23.2730    3.7700   19.7700 C.ar  327  PP6327     -0.0000
      6  C5        23.4410    5.2060   19.7780 C.ar  327  PP6327     -0.0003
      7  C6        22.3390    6.0530   19.4530 C.ar  327  PP6327     -0.0032
      8  C7        22.5080    7.4600   19.5460 C.ar  327  PP6327     -0.0045
      9  C8        23.7190    8.0170   19.8970 C.ar  327  PP6327     -0.0196
     10  C9        24.8110    7.1710   20.2000 C.ar  327  PP6327     -0.0042
     11  C10       24.6540    5.8130   20.1690 C.ar  327  PP6327     -0.0003
     12  C11       19.7960    6.3150   18.8990 C.3   327  PP6327      0.1479
     13  C12       19.4470    7.3080   19.9930 C.1   327  PP6327      0.1315
     14  C13       23.8750    9.5100   19.9760 C.3   327  PP6327      0.0641
     15  C14       23.3400    9.9860   21.3350 C.3   327  PP6327      0.2239
     16  NV        20.0150    7.3340   21.1980 N.2   327  PP6327     -0.1910
     17  CAV       19.8700    8.3390   22.2500 C.3   327  PP6327      0.2189
     18  CV        21.3750    8.6870   22.2230 C.1   327  PP6327      0.1496
     19  OV        22.1800    8.0780   22.9480 O.2   327  PP6327     -0.2251
     20  CBV       19.3300    7.8770   23.6220 C.3   327  PP6327      0.0393
     21  CV1       19.1780    9.3220   24.0990 C.3   327  PP6327      0.0032
     22  CV2       17.9430    7.5370   23.0640 C.3   327  PP6327      0.0032
     23  NL        21.9270    9.6650   21.4940 N.2   327  PP6327     -0.1938
     24  P         23.5160   11.7720   21.4550 P.3   327  PP6327      0.3927
     25  O         24.9290   12.1260   21.2950 O.3   327  PP6327     -0.1381
     26  OH        22.6130   12.4420   20.5230 O.2   327  PP6327     -0.2534
     27  CA        24.0460   12.9730   23.7760 C.3   327  PP6327      0.2262
     28  CB        23.2470   13.7890   24.8260 C.3   327  PP6327      0.0680
     29  CG        21.9770   13.1330   25.3100 C.ar  327  PP6327     -0.0192
     30  CD1       20.9870   12.7520   24.4270 C.ar  327  PP6327     -0.0042
     31  CD2       21.7410   12.9820   26.6640 C.ar  327  PP6327     -0.0042
     32  CE1       19.8700   12.1100   24.8680 C.ar  327  PP6327     -0.0003
     33  CE2       20.5790   12.3820   27.1150 C.ar  327  PP6327     -0.0003
     34  CZ        19.6380   11.9610   26.2110 C.ar  327  PP6327     -0.0000
     35  C         24.8720   11.8900   24.4610 C.2   327  PP6327      0.3454
     36  CS        27.0350   11.7710   25.4690 C.3   327  PP6327      0.2557
     37  OP        23.2510   12.1700   22.9600 O.3   327  PP6327     -0.2821
     38  OS        25.7430   12.4970   25.2600 O.3   327  PP6327     -0.4427
     39  OE        24.6230   10.7240   24.5650 O.2   327  PP6327     -0.2474
@<TRIPOS>BOND
     1    12     2    1
     2    12    13    1
     3     3     2   ar
     4     3     4   ar
     5     2     7   ar
     6     7     8   ar
     7     7     6   ar
     8     4     5   ar
     9     8     9   ar
    10     1    13    2
    11     5     6   ar
    12     6    11   ar
    13     9    14    1
    14     9    10   ar
    15    14    15    1
    16    13    16    2
    17    11    10   ar
    18    26    24    2
    19    16    17    1
    20    25    24    1
    21    15    24    1
    22    15    23    1
    23    24    37    1
    24    23    18    2
    25    18    17    1
    26    18    19    2
    27    17    20    1
    28    37    27    1
    29    22    20    1
    30    20    21    1
    31    27    35    1
    32    27    28    1
    33    30    32   ar
    34    30    29   ar
    35    35    39    2
    36    35    38    1
    37    28    29    1
    38    32    34   ar
    39    38    36    1
    40    29    31   ar
    41    34    33   ar
    42    31    33   ar
