@<TRIPOS>MOLECULE
2wef_AMP_A_1.pdb
 23 25 0 0 0
SMALL
GASTEIGER

@<TRIPOS>ATOM
      1  P          3.8970   10.8140   10.4170 P.3   601  AMP601      0.5327
      2  O1P        4.4120   10.6910    9.0000 O.2   601  AMP601     -0.2224
      3  O2P        2.6690   10.0090   10.5950 O.3   601  AMP601     -0.1145
      4  O3P        4.8880   10.6620   11.5200 O.3   601  AMP601     -0.1145
      5  O5'        3.3240   12.2870   10.5250 O.3   601  AMP601     -0.2675
      6  C5'        4.1730   13.4540   10.4660 C.3   601  AMP601      0.1860
      7  C4'        3.8730   14.4030   11.6190 C.3   601  AMP601      0.1823
      8  O4'        2.5330   14.8390   11.5800 O.3   601  AMP601     -0.3135
      9  C3'        3.9510   13.7750   13.0510 C.3   601  AMP601      0.2184
     10  O3'        3.9700   14.8260   14.0850 O.3   601  AMP601     -0.2174
     11  C2'        2.6200   13.2180   13.3120 C.3   601  AMP601      0.2570
     12  O2'        2.3930   13.0110   14.6950 O.3   601  AMP601     -0.2130
     13  C1'        1.8040   14.3500   12.6950 C.3   601  AMP601      0.3186
     14  N9         0.5800   13.7190   12.2540 N.pl3 601  AMP601     -0.1439
     15  C8         0.3190   13.2510   11.0180 C.3   601  AMP601      0.3377
     16  N7        -0.9230   12.7710   10.9510 N.2   601  AMP601     -0.2095
     17  C5        -1.4400   12.8840   12.2020 C.2   601  AMP601      0.2526
     18  C6        -2.7080   12.5440   12.8520 C.2   601  AMP601      0.4393
     19  N6        -3.6890   11.9420   12.1710 N.pl3 601  AMP601      0.2180
     20  N1        -2.8380   12.8490   14.1660 N.2   601  AMP601      0.0021
     21  C2        -1.8700   13.4500   14.8720 C.3   601  AMP601      0.5254
     22  N3        -0.6890   13.7990   14.3450 N.2   601  AMP601     -0.0055
     23  C4        -0.4560   13.5410   13.0330 C.2   601  AMP601      0.3518
@<TRIPOS>BOND
     1     2     1    2
     2     1     5    1
     3     1     3    1
     4     1     4    1
     5     6     5    1
     6     6     7    1
     7    16    15    1
     8    16    17    2
     9    15    14    1
    10     8     7    1
    11     8    13    1
    12     7     9    1
    13    19    18    1
    14    17    18    1
    15    17    23    1
    16    14    13    1
    17    14    23    1
    18    13    11    1
    19    18    20    2
    20    23    22    2
    21     9    11    1
    22     9    10    1
    23    11    12    1
    24    20    21    1
    25    22    21    1
