@<TRIPOS>MOLECULE
2weg_FBV_A_1.pdb
 11 11 0 0 0
SMALL
GASTEIGER

@<TRIPOS>ATOM
      1  C1        17.1360    6.0810   14.2900 C.ar  1263  FBV1263     0.0024
      2  C2        15.7580    6.0500   14.4810 C.ar  1263  FBV1263     0.0015
      3  C3        15.1360    5.0390   15.2330 C.ar  1263  FBV1263     0.0223
      4  C4        15.9330    3.9930   15.7820 C.ar  1263  FBV1263     0.1523
      5  C5        17.3440    4.1100   15.5410 C.ar  1263  FBV1263     0.1587
      6  C6        17.9340    5.1140   14.8250 C.ar  1263  FBV1263     0.0310
      7  S         15.2380    2.6850   16.7310 S.O2  1263  FBV1263     0.0957
      8  N2        15.7140    1.3040   16.0720 N.3   1263  FBV1263     0.0393
      9  O1        15.8190    2.8490   18.0770 O.2   1263  FBV1263    -0.1502
     10  O2        13.8330    2.8260   16.5560 O.2   1263  FBV1263    -0.1502
     11  F         18.1030    3.1530   16.1200 F     1263  FBV1263    -0.2028
@<TRIPOS>BOND
     1     1     2   ar
     2     1     6   ar
     3     2     3   ar
     4     6     5   ar
     5     3     4   ar
     6     5     4   ar
     7     5    11    1
     8     4     7    1
     9     8     7    1
    10    10     7    2
    11     7     9    2
