@<TRIPOS>MOLECULE
2weh_FB1_A_1.pdb
 11 11 0 0 0
SMALL
GASTEIGER

@<TRIPOS>ATOM
      1  C4        16.4040    6.1350   14.2890 C.ar  1263  FB11263     0.0009
      2 CL1        14.2720    5.5730   17.4890 Cl    1263  FB11263    -0.0809
      3  C3        16.8440    4.8510   14.0150 C.ar  1263  FB11263     0.0014
      4  C2        16.4800    3.7760   14.8180 C.ar  1263  FB11263     0.0209
      5  C1        15.6590    3.9230   15.9510 C.ar  1263  FB11263     0.1355
      6  C6        15.2350    5.2270   16.1830 C.ar  1263  FB11263     0.0763
      7  C5        15.5750    6.3030   15.3620 C.ar  1263  FB11263     0.0127
      8  S         15.1850    2.6030   16.8580 S.O2  1263  FB11263     0.0943
      9  N         15.6700    1.2230   16.1740 N.3   1263  FB11263     0.0392
     10  O1        15.6260    2.7440   18.1820 O.2   1263  FB11263    -0.1503
     11  O2        13.7540    2.5670   16.8350 O.2   1263  FB11263    -0.1503
@<TRIPOS>BOND
     1     3     1   ar
     2     3     4   ar
     3     1     7   ar
     4     4     5   ar
     5     7     6   ar
     6     5     6   ar
     7     5     8    1
     8     9     8    1
     9     6     2    1
    10    11     8    2
    11     8    10    2
