@<TRIPOS>MOLECULE
2wei_VGG_A_1.pdb
 22 24 0 0 0
SMALL
GASTEIGER

@<TRIPOS>ATOM
      1  C20       20.1730  -16.2770  -10.7080 C.3   600  VGG600      0.0491
      2  C19       19.9250  -17.2040   -9.5440 C.3   600  VGG600      0.1509
      3  C21       18.5170  -16.9590   -9.0050 C.3   600  VGG600      0.0491
      4  C22       20.9850  -16.9620   -8.4570 C.3   600  VGG600      0.0491
      5  N7        19.9440  -18.6620   -9.9230 N.pl3 600  VGG600     -0.0880
      6  N8        20.6290  -19.5190   -9.3130 N.2   600  VGG600     -0.0955
      7  C3        19.2200  -19.2070  -10.9090 C.2   600  VGG600      0.3400
      8  N2        18.3490  -18.7150  -11.8430 N.2   600  VGG600     -0.0088
      9  C1        17.7950  -19.5470  -12.7050 C.3   600  VGG600      0.5248
     10  N6        18.0240  -20.8500  -12.7190 N.2   600  VGG600     -0.0027
     11  C5        18.8890  -21.3940  -11.8250 C.2   600  VGG600      0.4078
     12  N10       19.0900  -22.7070  -11.8580 N.pl3 600  VGG600      0.2118
     13  C4        19.5080  -20.5710  -10.9160 C.3   600  VGG600      0.2601
     14  C9        20.4170  -20.7340   -9.8550 C.2   600  VGG600      0.1047
     15  C11       21.0920  -21.9890   -9.2910 C.3   600  VGG600      0.0724
     16  C12       22.1760  -22.6030  -10.1230 C.ar  600  VGG600     -0.0167
     17  C13       22.9900  -23.5580   -9.5050 C.ar  600  VGG600     -0.0082
     18  C17       22.3930  -22.2890  -11.4710 C.ar  600  VGG600     -0.0039
     19  C16       23.4250  -22.9060  -12.1730 C.ar  600  VGG600     -0.0006
     20  C15       24.2310  -23.8550  -11.5270 C.ar  600  VGG600     -0.0043
     21  C14       23.9970  -24.1760  -10.1930 C.ar  600  VGG600     -0.0222
     22  C18       24.8940  -25.2290   -9.4710 C.3   600  VGG600      0.0310
@<TRIPOS>BOND
     1    10     9    1
     2    10    11    2
     3     9     8    1
     4    19    20   ar
     5    19    18   ar
     6    12    11    1
     7     8     7    2
     8    11    13    1
     9    20    21   ar
    10    18    16   ar
    11    13     7    1
    12    13    14    1
    13     7     5    1
    14     1     2    1
    15    21    17   ar
    16    21    22    1
    17    16    17   ar
    18    16    15    1
    19     5     2    1
    20     5     6    1
    21    14     6    2
    22    14    15    1
    23     2     3    1
    24     2     4    1
