@<TRIPOS>MOLECULE
2wej_FB2_A_1.pdb
 10 10 0 0 0
SMALL
GASTEIGER

@<TRIPOS>ATOM
      1  C01       16.9660    6.1980   14.5640 C.ar  1263  FB21263     0.0001
      2  C02       15.6260    6.1370   14.9650 C.ar  1263  FB21263     0.0014
      3  C03       15.1200    5.0450   15.7050 C.ar  1263  FB21263     0.0200
      4  C04       15.9460    3.9510   16.0720 C.ar  1263  FB21263     0.1250
      5  C05       17.2910    4.0420   15.6500 C.ar  1263  FB21263     0.0200
      6  C06       17.8090    5.1360   14.9090 C.ar  1263  FB21263     0.0014
      7  S07       15.3720    2.6770   16.9350 S.O2  1263  FB21263     0.0935
      8  O09       13.9220    2.7460   16.8880 O.2   1263  FB21263    -0.1503
      9  O08       15.9570    2.8350   18.2300 O.2   1263  FB21263    -0.1503
     10  NP0       15.8610    1.2980   16.3110 N.3   1263  FB21263     0.0392
@<TRIPOS>BOND
     1     1     6   ar
     2     1     2   ar
     3     6     5   ar
     4     2     3   ar
     5     5     4   ar
     6     3     4   ar
     7     4     7    1
     8    10     7    1
     9     8     7    2
    10     7     9    2
