@<TRIPOS>MOLECULE
2wek_NAP_A_1.pdb
 48 52 0 0 0
SMALL
GASTEIGER

@<TRIPOS>ATOM
      1  PA       -17.9780   -9.8100   -0.1690 P.3   1372  NAP1372     0.2189
      2  O1A      -16.6120   -9.8290   -0.7650 O.2   1372  NAP1372    -0.5170
      3  O2A      -18.3060  -10.5640    1.0470 O.3   1372  NAP1372    -0.4371
      4  O5B      -19.0510  -10.1830   -1.3400 O.3   1372  NAP1372    -0.3112
      5  C5B      -20.4290  -10.4420   -0.9780 C.3   1372  NAP1372     0.1813
      6  C4B      -20.6750  -11.9500   -0.8050 C.3   1372  NAP1372     0.1820
      7  O4B      -21.9060  -12.1460   -0.0840 O.3   1372  NAP1372    -0.3136
      8  C3B      -20.8180  -12.7650   -2.1130 C.3   1372  NAP1372     0.2157
      9  O3B      -19.5250  -13.2730   -2.5040 O.3   1372  NAP1372    -0.2175
     10  C2B      -21.6870  -13.9040   -1.6280 C.3   1372  NAP1372     0.2314
     11  O2B      -20.8970  -14.8530   -0.9340 O.3   1372  NAP1372    -0.2630
     12  C1B      -22.6550  -13.2340   -0.6600 C.3   1372  NAP1372     0.3158
     13  N9A      -23.8570  -12.5870   -1.3540 N.pl3 1372  NAP1372    -0.1439
     14  C8A      -23.7920  -11.7730   -2.4030 C.3   1372  NAP1372     0.3377
     15  N7A      -25.0190  -11.3670   -2.7530 N.2   1372  NAP1372    -0.2095
     16  C5A      -25.8680  -11.9660   -1.9530 C.2   1372  NAP1372     0.2526
     17  C6A      -27.2530  -11.9460   -1.8670 C.2   1372  NAP1372     0.4393
     18  N6A      -27.9820  -11.2260   -2.6840 N.pl3 1372  NAP1372     0.2180
     19  N1A      -27.8270  -12.6470   -0.9120 N.2   1372  NAP1372     0.0021
     20  C2A      -27.0940  -13.3890   -0.0780 C.3   1372  NAP1372     0.5254
     21  N3A      -25.7730  -13.4370   -0.1110 N.2   1372  NAP1372    -0.0055
     22  C4A      -25.1300  -12.7180   -1.0450 C.2   1372  NAP1372     0.3518
     23  O3       -18.4100   -8.2780    0.0290 O.3   1372  NAP1372    -0.2703
     24  PN       -17.9020   -7.1640    1.1160 P.3   1372  NAP1372     0.2189
     25  O1N      -17.8390   -5.8220    0.4530 O.2   1372  NAP1372    -0.5170
     26  O2N      -16.7880   -7.7550    1.8920 O.3   1372  NAP1372    -0.4371
     27  O5D      -19.1450   -6.9570    2.1330 O.3   1372  NAP1372    -0.3112
     28  C5D      -19.6180   -8.0980    2.9040 C.3   1372  NAP1372     0.1813
     29  C4D      -20.4830   -7.6750    4.0900 C.3   1372  NAP1372     0.1799
     30  O4D      -19.6310   -6.8840    4.9560 O.3   1372  NAP1372    -0.3327
     31  C3D      -21.6140   -6.7270    3.5860 C.3   1372  NAP1372     0.2158
     32  O3D      -22.8380   -6.9400    4.3210 O.3   1372  NAP1372    -0.2175
     33  C2D      -21.0440   -5.3760    3.8900 C.3   1372  NAP1372     0.2309
     34  O2D      -22.0890   -4.3900    4.0050 O.3   1372  NAP1372    -0.2158
     35  C1D      -20.3510   -5.6780    5.2250 C.3   1372  NAP1372     0.2263
     36  N1N      -19.4770   -4.5510    5.6480 N.pl3 1372  NAP1372    -0.2787
     37  C2N      -19.7980   -3.8180    6.7880 C.3   1372  NAP1372     0.1244
     38  C3N      -19.0120   -2.7520    7.2290 C.2   1372  NAP1372     0.0544
     39  C7N      -19.4100   -2.0020    8.4420 C.2   1372  NAP1372     0.2818
     40  O7N      -18.7410   -0.8840    8.7680 O.2   1372  NAP1372    -0.2670
     41  N7N      -20.4530   -2.4700    9.1280 N.am  1372  NAP1372    -0.0839
     42  C4N      -17.8730   -2.3700    6.5160 C.2   1372  NAP1372     0.0033
     43  C5N      -17.5540   -3.1010    5.3760 C.2   1372  NAP1372     0.0157
     44  C6N      -18.3440   -4.1760    4.9360 C.2   1372  NAP1372     0.0633
     45  P2B      -21.4540  -16.3840   -0.6040 P.3   1372  NAP1372     0.5328
     46  O1X      -22.9860  -16.3420   -0.9690 O.3   1372  NAP1372    -0.1145
     47  O2X      -20.7130  -17.4650   -1.5560 O.2   1372  NAP1372    -0.2224
     48  O3X      -21.2480  -16.6160    0.8410 O.3   1372  NAP1372    -0.1145
@<TRIPOS>BOND
     1    15    14    1
     2    15    16    2
     3    18    17    1
     4     9     8    1
     5    14    13    1
     6     8    10    1
     7     8     6    1
     8    16    17    1
     9    16    22    1
    10    17    19    2
    11    10    11    1
    12    10    12    1
    13    47    45    2
    14    13    22    1
    15    13    12    1
    16     4     5    1
    17     4     1    1
    18    22    21    2
    19     5     6    1
    20    46    45    1
    21    11    45    1
    22    19    20    1
    23     6     7    1
    24     2     1    2
    25    12     7    1
    26    45    48    1
    27     1    23    1
    28     1     3    1
    29    21    20    1
    30    23    24    1
    31    25    24    2
    32    24    26    1
    33    24    27    1
    34    27    28    1
    35    28    29    1
    36    31    33    1
    37    31    29    1
    38    31    32    1
    39    33    34    1
    40    33    35    1
    41    29    30    1
    42    44    43    2
    43    44    36    1
    44    30    35    1
    45    35    36    1
    46    43    42    1
    47    36    37    1
    48    42    38    2
    49    37    38    1
    50    38    39    1
    51    39    40    2
    52    39    41   am
