@<TRIPOS>MOLECULE
2wek_DIF_A_1.pdb
 19 20 0 0 0
SMALL
GASTEIGER

@<TRIPOS>ATOM
      1  C1       -16.3560    3.1630    5.6680 C.ar  1373  DIF1373     0.0128
      2  C2       -17.5970    2.5820    5.8720 C.ar  1373  DIF1373     0.0737
      3 CL2       -18.5670    3.1210    7.2010 Cl    1373  DIF1373    -0.0809
      4  C3       -18.0770    1.5770    5.0310 C.ar  1373  DIF1373     0.0915
      5  C4       -17.2560    1.1770    3.9710 C.ar  1373  DIF1373     0.0737
      6 CL4       -17.6920   -0.0600    2.8710 Cl    1373  DIF1373    -0.0809
      7  C5       -16.0060    1.7670    3.7510 C.ar  1373  DIF1373     0.0128
      8  C6       -15.5460    2.7520    4.6040 C.ar  1373  DIF1373     0.0018
      9  N1       -19.3080    1.0430    5.2590 N.pl3 1373  DIF1373    -0.2111
     10  C7       -21.7230    1.1040    5.1800 C.ar  1373  DIF1373     0.0043
     11  C8       -20.4800    1.6660    4.8490 C.ar  1373  DIF1373     0.0671
     12  C9       -20.4900    2.8690    4.1130 C.ar  1373  DIF1373     0.0162
     13  C10      -21.6780    3.4940    3.6860 C.ar  1373  DIF1373     0.0013
     14  C11      -22.9070    2.9210    4.0290 C.ar  1373  DIF1373    -0.0002
     15  C12      -22.9120    1.7290    4.7690 C.ar  1373  DIF1373    -0.0024
     16  C13      -21.8670   -0.1770    5.9730 C.3   1373  DIF1373     0.1416
     17  C14      -21.4190   -1.4130    5.1770 C.2   1373  DIF1373     0.3693
     18  O1       -20.3250   -1.3600    4.5640 O.co2 1373  DIF1373    -0.2453
     19  O2       -22.1680   -2.3920    5.2420 O.co2 1373  DIF1373    -0.2453
@<TRIPOS>BOND
     1     6     5    1
     2    13    14   ar
     3    13    12   ar
     4     7     5   ar
     5     7     8   ar
     6     5     4   ar
     7    14    15   ar
     8    12    11   ar
     9    18    17   ar
    10     8     1   ar
    11    15    10   ar
    12    11    10   ar
    13    11     9    1
    14     4     9    1
    15     4     2   ar
    16    17    19   ar
    17    17    16    1
    18    10    16    1
    19     1     2   ar
    20     2     3    1
