@<TRIPOS>MOLECULE
2wel_K88_A_1.pdb
 26 29 0 0 0
SMALL
GASTEIGER

@<TRIPOS>ATOM
      1  CAC       19.1190  -12.6130   -4.1650 C.3   600  K88600      0.1150
      2  NAA       18.7620  -11.6500   -3.1160 N.3   600  K88600     -0.1526
      3  CAD       19.7140  -10.5150   -3.1500 C.3   600  K88600      0.1150
      4  SAB       18.7420  -12.3790   -1.5630 S.O2  600  K88600      0.0634
      5  OAE       17.6860  -13.4130   -1.4400 O.2   600  K88600     -0.1528
      6  OAF       18.6450  -11.3140   -0.5370 O.2   600  K88600     -0.1528
      7  CAG       20.2800  -13.3010   -1.3690 C.ar  600  K88600      0.1224
      8  CAH       21.4530  -12.6200   -1.0770 C.ar  600  K88600      0.0229
      9  CAI       22.6370  -13.3410   -0.9530 C.ar  600  K88600      0.0402
     10  CAL       20.2950  -14.6940   -1.5350 C.ar  600  K88600      0.0226
     11  CAK       21.4870  -15.4210   -1.4140 C.ar  600  K88600      0.0344
     12  CAJ       22.6620  -14.7440   -1.1170 C.ar  600  K88600      0.1448
     13  NAO       23.9130  -15.1800   -0.9200 N.2   600  K88600     -0.3331
     14  CAN       24.6960  -14.1290   -0.6260 C.1   600  K88600      0.2010
     15  OAZ       25.9010  -14.2260   -0.4140 O.2   600  K88600     -0.2096
     16  CAM       23.9280  -12.9460   -0.6490 C.2   600  K88600      0.0820
     17  CAP       24.2700  -11.6120   -0.4340 C.3   600  K88600      0.0981
     18  CAQ       25.5780  -11.1310   -0.3480 C.2   600  K88600      0.1135
     19  CAR       25.8340   -9.7990   -0.3570 C.2   600  K88600      0.0258
     20  CAS       27.1760   -9.6420   -0.2370 C.2   600  K88600      0.0054
     21  CAV       27.9900   -8.3400   -0.1740 C.3   600  K88600      0.0287
     22  CAW       29.4950   -8.5940    0.0920 C.3   600  K88600      0.0052
     23  CAX       29.9270   -9.9720    0.6500 C.3   600  K88600      0.0078
     24  CAY       29.2280  -11.2030    0.0290 C.3   600  K88600      0.0586
     25  CAT       27.7350  -10.9080   -0.1360 C.2   600  K88600      0.1046
     26  NAU       26.7380  -11.8030   -0.2210 N.2   600  K88600     -0.4105
@<TRIPOS>BOND
     1     1     2    1
     2     3     2    1
     3     2     4    1
     4     4     5    2
     5     4     7    1
     6     4     6    2
     7    10    11   ar
     8    10     7   ar
     9    11    12   ar
    10     7     8   ar
    11    12     9   ar
    12    12    13    2
    13     8     9   ar
    14     9    16    2
    15    13    14    2
    16    16    14    1
    17    16    17    1
    18    14    15    2
    19    17    18    1
    20    19    18    1
    21    19    20    2
    22    18    26    2
    23    20    21    1
    24    20    25    1
    25    26    25    2
    26    21    22    1
    27    25    24    1
    28    24    23    1
    29    22    23    1
