@<TRIPOS>MOLECULE
2weo_FBW_A_1.pdb
 11 11 0 0 0
SMALL
GASTEIGER

@<TRIPOS>ATOM
      1  C1         4.0980   -6.1420   14.4400 C.ar  1263  FBW1263     0.0297
      2  C2         5.4490   -6.1390   14.7740 C.ar  1263  FBW1263     0.1415
      3  C3         6.0130   -5.0620   15.4780 C.ar  1263  FBW1263     0.0496
      4  C4         5.2440   -3.9490   15.8650 C.ar  1263  FBW1263     0.1273
      5  C5         3.8750   -3.9820   15.5050 C.ar  1263  FBW1263     0.0202
      6  C6         3.3170   -5.0570   14.7970 C.ar  1263  FBW1263     0.0037
      7  S          5.9150   -2.6880   16.7200 S.O2  1263  FBW1263     0.0936
      8  N2         5.3850   -1.3090   16.0960 N.3   1263  FBW1263     0.0392
      9  O1         5.3890   -2.8420   18.0400 O.2   1263  FBW1263    -0.1503
     10  O2         7.3490   -2.8070   16.5850 O.2   1263  FBW1263    -0.1503
     11  F          6.2380   -7.1950   14.4320 F     1263  FBW1263    -0.2041
@<TRIPOS>BOND
     1    11     2    1
     2     1     2   ar
     3     1     6   ar
     4     2     3   ar
     5     6     5   ar
     6     3     4   ar
     7     5     4   ar
     8     4     7    1
     9     8     7    1
    10    10     7    2
    11     7     9    2
