@<TRIPOS>MOLECULE
2wep_ADP_A_1.pdb
 27 29 0 0 0
SMALL
GASTEIGER

@<TRIPOS>ATOM
      1  PB       -26.6710   32.2700   -4.4440 P.3   1215  ADP1215     0.5373
      2  O1B      -27.0110   33.5300   -5.2230 O.2   1215  ADP1215    -0.2221
      3  O2B      -27.7490   31.1830   -4.4690 O.3   1215  ADP1215    -0.1143
      4  O3B      -25.2660   31.7180   -4.6920 O.3   1215  ADP1215    -0.1143
      5  PA       -25.4600   32.7520   -1.8070 P.3   1215  ADP1215     0.2231
      6  O1A      -25.9910   33.2830   -0.4910 O.3   1215  ADP1215    -0.4370
      7  O2A      -24.9090   31.3500   -1.8340 O.2   1215  ADP1215    -0.5169
      8  O3A      -26.6670   32.8210   -2.9090 O.3   1215  ADP1215    -0.2261
      9  O5'      -24.3640   33.8370   -2.3710 O.3   1215  ADP1215    -0.3111
     10  C5'      -24.7230   35.2320   -2.4540 C.3   1215  ADP1215     0.1813
     11  C4'      -24.0550   35.9480   -3.6230 C.3   1215  ADP1215     0.1821
     12  O4'      -22.6980   36.1500   -3.2430 O.3   1215  ADP1215    -0.3135
     13  C3'      -23.9500   35.2060   -4.9640 C.3   1215  ADP1215     0.2184
     14  O3'      -25.0400   35.4030   -5.8770 O.3   1215  ADP1215    -0.2174
     15  C2'      -22.6730   35.7580   -5.5860 C.3   1215  ADP1215     0.2570
     16  O2'      -22.8960   36.9610   -6.3560 O.3   1215  ADP1215    -0.2130
     17  C1'      -21.8180   36.0970   -4.3760 C.3   1215  ADP1215     0.3186
     18  N9       -20.7550   35.0660   -4.2130 N.pl3 1215  ADP1215    -0.1439
     19  C8       -20.6880   34.1160   -3.2350 C.3   1215  ADP1215     0.3377
     20  N7       -19.5690   33.3480   -3.3710 N.2   1215  ADP1215    -0.2095
     21  C5       -18.8960   33.7970   -4.4600 C.2   1215  ADP1215     0.2526
     22  C6       -17.6110   33.4410   -5.1690 C.2   1215  ADP1215     0.4393
     23  N6       -16.8370   32.3830   -4.7500 N.pl3 1215  ADP1215     0.2180
     24  N1       -17.2790   34.2110   -6.2620 N.2   1215  ADP1215     0.0021
     25  C2       -18.0410   35.2450   -6.7210 C.3   1215  ADP1215     0.5254
     26  N3       -19.2160   35.6060   -6.1270 N.2   1215  ADP1215    -0.0055
     27  C4       -19.6800   34.9440   -5.0090 C.2   1215  ADP1215     0.3518
@<TRIPOS>BOND
     1    25    24    1
     2    25    26    1
     3    16    15    1
     4    24    22    2
     5    26    27    2
     6    14    13    1
     7    15    13    1
     8    15    17    1
     9     2     1    2
    10    22    23    1
    11    22    21    1
    12    27    21    1
    13    27    18    1
    14    13    11    1
    15     4     1    1
    16     3     1    1
    17    21    20    2
    18     1     8    1
    19    17    18    1
    20    17    12    1
    21    18    19    1
    22    11    12    1
    23    11    10    1
    24    20    19    1
    25     8     5    1
    26    10     9    1
    27     9     5    1
    28     7     5    2
    29     5     6    1
