@<TRIPOS>MOLECULE
2weq_GDM_A_1.pdb
 40 41 0 0 0
SMALL
GASTEIGER

@<TRIPOS>ATOM
      1  C16      -25.8340   34.5000   -5.5650 C.2   1215  GDM1215     0.0547
      2  C21      -26.0650   34.2580   -4.0860 C.2   1215  GDM1215     0.2081
      3  C20      -25.6400   32.9550   -3.4050 C.2   1215  GDM1215     0.1027
      4  C19      -24.9030   31.8520   -4.1530 C.3   1215  GDM1215     0.1210
      5  C18      -24.6800   32.0520   -5.6610 C.2   1215  GDM1215     0.2125
      6  C17      -25.1390   33.3510   -6.3450 C.2   1215  GDM1215     0.1726
      7  C15      -26.2860   35.8370   -6.1960 C.3   1215  GDM1215     0.0329
      8  C14      -25.1800   36.9050   -6.2770 C.3   1215  GDM1215     0.0071
      9  C13      -24.0350   36.4720   -7.2140 C.3   1215  GDM1215     0.0325
     10  C12      -22.6690   37.2000   -7.0930 C.3   1215  GDM1215     0.1455
     11  C11      -21.6520   36.6550   -8.1480 C.3   1215  GDM1215     0.1788
     12  C10      -21.1010   35.2510   -7.8350 C.3   1215  GDM1215     0.0330
     13  C9       -20.5560   35.2240   -6.4030 C.3   1215  GDM1215     0.0063
     14  C8       -20.9350   34.0690   -5.4780 C.3   1215  GDM1215     0.0428
     15  C7       -19.8930   34.0850   -4.3550 C.3   1215  GDM1215     0.1976
     16  C6       -20.3740   34.1350   -2.8890 C.3   1215  GDM1215     0.1595
     17  C5       -21.3060   35.2950   -2.6690 C.3   1215  GDM1215     0.0590
     18  C4       -22.6980   35.5370   -2.1790 C.2   1215  GDM1215    -0.0279
     19  C3       -23.8280   34.6630   -1.7640 C.2   1215  GDM1215    -0.0263
     20  C2       -25.0340   35.2510   -1.0240 C.3   1215  GDM1215     0.0757
     21  C1       -25.8040   33.9030   -0.9230 C.3   1215  GDM1215     0.2578
     22  N1       -25.8990   32.9510   -1.9920 N.2   1215  GDM1215    -0.2411
     23  O9       -26.6840   35.2420   -3.3220 O.2   1215  GDM1215    -0.2855
     24  O8       -24.0490   31.0360   -6.3880 O.2   1215  GDM1215    -0.2877
     25  O7       -24.9200   33.5050   -7.6950 O.2   1215  GDM1215    -0.4687
     26  C29      -26.0860   33.6000   -8.5040 C.3   1215  GDM1215     0.2526
     27  C28      -24.6330   37.2290   -4.8760 C.3   1215  GDM1215     0.0004
     28  O6       -22.8710   38.5380   -7.5100 O.3   1215  GDM1215    -0.3510
     29  C27      -21.9810   39.5910   -7.1520 C.3   1215  GDM1215     0.1741
     30  O5       -22.3070   36.5100   -9.3870 O.3   1215  GDM1215    -0.2205
     31  C26      -19.9320   34.9970   -8.8380 C.3   1215  GDM1215     0.0027
     32  C25      -21.2230   32.7060   -6.1530 C.3   1215  GDM1215     0.0038
     33  O3       -19.0150   33.0210   -4.4150 O.3   1215  GDM1215    -0.4337
     34  C24      -17.6990   33.1070   -4.8150 C.2   1215  GDM1215     0.4410
     35  O4       -17.3920   33.9760   -5.5700 O.2   1215  GDM1215    -0.2228
     36  N2       -16.9780   31.8530   -4.7460 N.am  1215  GDM1215    -0.0475
     37  O2       -19.2120   34.4760   -2.1630 O.3   1215  GDM1215    -0.3496
     38  C23      -19.2400   34.6780   -0.7860 C.3   1215  GDM1215     0.1742
     39  C22      -24.6260   35.9390    0.2960 C.3   1215  GDM1215     0.0094
     40  O1       -25.5060   33.2390    0.0270 O.3   1215  GDM1215    -0.1958
@<TRIPOS>BOND
     1    30    11    1
     2    31    12    1
     3    26    25    1
     4    11    12    1
     5    11    10    1
     6    12    13    1
     7    25     6    1
     8    28    29    1
     9    28    10    1
    10     9    10    1
    11     9     8    1
    12    13    14    1
    13    24     5    1
    14     6     5    2
    15     6     1    1
    16     8     7    1
    17     8    27    1
    18     7     1    1
    19    32    14    1
    20     5     4    1
    21    35    34    2
    22     1     2    2
    23    14    15    1
    24    34    36   am
    25    34    33    1
    26    33    15    1
    27    15    16    1
    28     4     3    1
    29     2     3    1
    30     2    23    1
    31     3    22    2
    32    16    17    1
    33    16    37    1
    34    17    18    1
    35    18    19    2
    36    37    38    1
    37    22    21    1
    38    19    20    1
    39    20    21    1
    40    20    39    1
    41    21    40    1
