@<TRIPOS>MOLECULE
2wer_RDC_A_1.pdb
 25 27 0 0 0
SMALL
GASTEIGER

@<TRIPOS>ATOM
      1  C1         2.4670   55.6290   -5.8180 C.2   1215  RDC1215     0.3440
      2  C2         3.3400   55.7540   -4.6350 C.ar  1215  RDC1215     0.1119
      3  C3         4.4930   56.7030   -4.7240 C.ar  1215  RDC1215     0.2048
      4  C4         5.3540   56.7790   -3.6090 C.ar  1215  RDC1215     0.0851
      5  C5         5.2010   55.9860   -2.4510 C.ar  1215  RDC1215     0.2090
      6  C6         4.0870   55.0300   -2.3550 C.ar  1215  RDC1215     0.0933
      7  C7         3.1550   54.8830   -3.4730 C.ar  1215  RDC1215     0.0086
      8  C8         1.9820   53.9180   -3.3330 C.3   1215  RDC1215     0.0966
      9  C9         2.2760   52.5170   -2.8750 C.2   1215  RDC1215     0.1775
     10  C10        3.3010   51.6600   -3.5130 C.2   1215  RDC1215     0.0378
     11  C11        3.7450   51.9540   -4.7360 C.2   1215  RDC1215     0.0027
     12  C12        4.7190   51.0940   -5.4250 C.2   1215  RDC1215    -0.0020
     13  C13        5.0800   51.3330   -6.6980 C.2   1215  RDC1215     0.0053
     14  C14        4.6000   52.5250   -7.4910 C.3   1215  RDC1215     0.1643
     15  C15        3.2050   52.3500   -8.1070 C.3   1215  RDC1215     0.1504
     16  C16        2.4720   53.6300   -8.5250 C.3   1215  RDC1215     0.0760
     17  C17        1.5290   54.1460   -7.4170 C.3   1215  RDC1215     0.1718
     18  C18        0.4480   53.1520   -7.0600 C.3   1215  RDC1215     0.0474
     19  O1         2.3150   54.2610   -6.2360 O.3   1215  RDC1215    -0.4491
     20  O2         2.0100   56.5370   -6.4310 O.2   1215  RDC1215    -0.2448
     21  O3         4.5850   57.4710   -5.8400 O.3   1215  RDC1215    -0.2862
     22  O4         6.0380   56.0470   -1.3980 O.3   1215  RDC1215    -0.2856
     23 CL1         3.8020   54.1210   -0.9030 Cl    1215  RDC1215    -0.0792
     24  O5         1.5720   52.0720   -1.9900 O.2   1215  RDC1215    -0.2910
     25  O6         4.4290   52.2310   -8.8790 O.3   1215  RDC1215    -0.3489
@<TRIPOS>BOND
     1    25    15    1
     2    25    14    1
     3    16    15    1
     4    16    17    1
     5    15    14    1
     6    14    13    1
     7    17    18    1
     8    17    19    1
     9    13    12    2
    10    20     1    2
    11    19     1    1
    12    21     3    1
    13     1     2    1
    14    12    11    1
    15    11    10    2
    16     3     2   ar
    17     3     4   ar
    18     2     7   ar
    19     4     5   ar
    20    10     9    1
    21     7     8    1
    22     7     6   ar
    23     8     9    1
    24     9    24    2
    25     5     6   ar
    26     5    22    1
    27     6    23    1
