@<TRIPOS>MOLECULE
2wet_TRP_B_1.pdb
 15 16 0 0 0
SMALL
GASTEIGER

@<TRIPOS>ATOM
      1  N         -5.1950   87.8330  -11.3900 N.3   650  TRP650     -0.1205
      2  CA        -3.8000   87.3480  -11.1720 C.3   650  TRP650      0.1984
      3  C         -3.2270   86.6710  -12.4460 C.2   650  TRP650      0.3822
      4  O         -2.1480   86.0720  -12.5060 O.co2 650  TRP650     -0.2440
      5  CB        -3.7410   86.4630   -9.8960 C.3   650  TRP650      0.0549
      6  CG        -4.4150   85.0710  -10.0150 C.2   650  TRP650     -0.0138
      7  CD1       -5.3310   84.6680  -10.9550 C.2   650  TRP650      0.0907
      8  CD2       -4.2210   83.9430   -9.1420 C.3   650  TRP650      0.0819
      9  NE1       -5.7010   83.3590  -10.7280 N.2   650  TRP650     -0.2482
     10  CE2       -5.0290   82.8850   -9.6330 C.2   650  TRP650      0.0665
     11  CE3       -3.4300   83.7170   -8.0030 C.2   650  TRP650     -0.0164
     12  CZ2       -5.0740   81.6120   -9.0160 C.2   650  TRP650      0.0153
     13  CZ3       -3.4810   82.4590   -7.3890 C.2   650  TRP650     -0.0038
     14  CH2       -4.2990   81.4240   -7.9010 C.2   650  TRP650      0.0009
     15  OXT       -3.8510   86.7360  -13.5130 O.co2 650  TRP650     -0.2440
@<TRIPOS>BOND
     1    15     3   ar
     2     4     3   ar
     3     3     2    1
     4     1     2    1
     5     2     5    1
     6     7     9    1
     7     7     6    2
     8     9    10    2
     9     6     5    1
    10     6     8    1
    11    10     8    1
    12    10    12    1
    13     8    11    1
    14    12    14    2
    15    11    13    2
    16    14    13    1
