@<TRIPOS>MOLECULE
2weu_TRP_A_1.pdb
 15 16 0 0 0
SMALL
GASTEIGER

@<TRIPOS>ATOM
      1  N         -7.4620  -24.3910  -13.7960 N.3   1512  TRP1512    -0.1205
      2  CA        -6.5370  -24.3990  -12.6160 C.3   1512  TRP1512     0.1984
      3  C         -7.2270  -25.0500  -11.4310 C.2   1512  TRP1512     0.3822
      4  O         -6.6640  -25.0730  -10.3160 O.co2 1512  TRP1512    -0.2440
      5  CB        -6.0750  -22.9800  -12.2890 C.3   1512  TRP1512     0.0549
      6  CG        -7.1430  -22.0170  -11.7950 C.2   1512  TRP1512    -0.0138
      7  CD1       -8.4840  -22.2130  -11.7620 C.2   1512  TRP1512     0.0907
      8  CD2       -6.9100  -20.7270  -11.2530 C.3   1512  TRP1512     0.0819
      9  NE1       -9.1200  -21.0910  -11.2580 N.2   1512  TRP1512    -0.2482
     10  CE2       -8.1680  -20.1860  -10.9010 C.2   1512  TRP1512     0.0665
     11  CE3       -5.7620  -19.9820  -10.9930 C.2   1512  TRP1512    -0.0164
     12  CZ2       -8.2980  -18.9460  -10.3320 C.2   1512  TRP1512     0.0153
     13  CZ3       -5.8890  -18.7420  -10.4430 C.2   1512  TRP1512    -0.0038
     14  CH2       -7.1490  -18.2350  -10.1050 C.2   1512  TRP1512     0.0009
     15  OXT       -8.3440  -25.5810  -11.6180 O.co2 1512  TRP1512    -0.2440
@<TRIPOS>BOND
     1     1     2    1
     2     2     5    1
     3     2     3    1
     4     5     6    1
     5     6     7    2
     6     6     8    1
     7     7     9    1
     8    15     3   ar
     9     3     4   ar
    10     9    10    2
    11     8    11    1
    12     8    10    1
    13    11    13    2
    14    10    12    1
    15    13    14    1
    16    12    14    2
