@<TRIPOS>MOLECULE
2wev_III_E_1.pdb
 47 47 0 0 0
SMALL
GASTEIGER

@<TRIPOS>ATOM
      1  C         35.8810   19.4700   -2.3880 C.2     1  ACE1        0.2423
      2  O         34.6800   19.2690   -2.6370 O.2     1  ACE1       -0.2733
      3  CH3       36.8350   18.3450   -2.4480 C.3     1  ACE1        0.0964
      4  N         36.3900   20.6470   -2.0120 N.am    2  ARG2       -0.1978
      5  CA        37.7970   21.0370   -2.0150 C.3     2  ARG2        0.1728
      6  C         38.1000   21.9940   -0.8960 C.2     2  ARG2        0.2616
      7  O         37.5460   23.0690   -0.8880 O.2     2  ARG2       -0.2715
      8  CB        38.1730   21.7160   -3.3130 C.3     2  ARG2        0.0348
      9  CG        39.6050   22.1420   -3.4480 C.3     2  ARG2        0.0492
     10  CD        40.0320   22.2360   -4.9110 C.3     2  ARG2        0.2205
     11  NE        41.2100   23.0980   -4.8890 N.pl3   2  ARG2       -0.0865
     12  CZ        41.5740   23.9690   -5.8410 C.cat   2  ARG2        0.5346
     13  NH1       40.7850   24.1380   -6.9060 N.pl3   2  ARG2        0.1354
     14  NH2       42.7130   24.6500   -5.7290 N.pl3   2  ARG2        0.1354
     15  N         38.9770   21.6370    0.0360 N.am    3  ARG3       -0.1963
     16  CA        39.5270   22.5660    0.9940 C.3     3  ARG3        0.1729
     17  C         40.7530   23.2660    0.4910 C.2     3  ARG3        0.2612
     18  O         41.6830   22.6200    0.0360 O.2     3  ARG3       -0.2715
     19  CB        39.9180   21.7400    2.2210 C.3     3  ARG3        0.0348
     20  CG        40.4220   22.6910    3.3050 C.3     3  ARG3        0.0492
     21  CD        41.2580   22.2950    4.2730 C.3     3  ARG3        0.2205
     22  NE        40.9670   21.1970    4.9670 N.pl3   3  ARG3       -0.0865
     23  CZ        39.7340   21.0100    5.4850 C.cat   3  ARG3        0.5346
     24  NH1       39.4740   21.3540    6.7650 N.pl3   3  ARG3        0.1354
     25  NH2       38.7510   20.4670    4.7420 N.pl3   3  ARG3        0.1354
     26  O         44.5090   26.2990   -0.2100 O.2     4  LEU4       -0.2748
     27  C         44.0520   26.3930    0.9280 C.2     4  LEU4        0.2278
     28  CA        42.8980   25.7390    1.2490 C.3     4  LEU4        0.1069
     29  CB        41.9180   25.3620    0.1230 C.3     4  LEU4        0.1044
     30  N         40.7700   24.5990    0.6040 N.am    4  LEU4       -0.2052
     31  CG        41.4210   26.5490   -0.6610 C.3     4  LEU4        0.0222
     32  CD        40.4900   26.3340   -1.8460 C.3     4  LEU4        0.0017
     33  CE2       41.2080   25.6250   -2.9880 C.3     4  LEU4        0.0001
     34  CE1       39.9630   27.6660   -2.3950 C.3     4  LEU4        0.0001
     35  C1        44.0410   27.2530    3.1920 C.3     5  PHE5        0.1153
     36  N         44.6380   27.1560    1.8610 N.am    5  PHE5       -0.2708
     37  CA        45.8410   27.9490    1.5210 C.3     5  PHE5        0.1596
     38  C         47.0730   27.7250    2.3800 C.2     5  PHE5        0.2791
     39  O         47.0290   27.0980    3.4450 O.2     5  PHE5       -0.2698
     40  CB        45.4290   29.4080    1.6450 C.3     5  PHE5        0.0557
     41  CG        44.3730   29.7840    0.6720 C.ar    5  PHE5       -0.0200
     42  CD1       43.1210   30.1420    1.1390 C.ar    5  PHE5       -0.0042
     43  CE1       42.0990   30.4450    0.2510 C.ar    5  PHE5       -0.0003
     44  CZ        42.3150   30.3580   -1.1220 C.ar    5  PHE5       -0.0000
     45  CE2       43.5510   29.9860   -1.5850 C.ar    5  PHE5       -0.0003
     46  CD2       44.5810   29.6950   -0.7020 C.ar    5  PHE5       -0.0042
     47  N         48.2010   28.2810    1.9280 N.am    6  NH26       -0.0863
@<TRIPOS>BOND
     1    13    12    1
     2    12    14    1
     3    12    11    2
     4    10    11    1
     5    10     9    1
     6     9     8    1
     7     8     5    1
     8    33    32    1
     9     2     1    2
    10     3     1    1
    11    34    32    1
    12     1     4   am
    13     5     4    1
    14     5     6    1
    15    32    31    1
    16    45    44   ar
    17    45    46   ar
    18    44    43   ar
    19     6     7    2
    20     6    15   am
    21    46    41   ar
    22    31    29    1
    23    26    27    2
    24    18    17    2
    25    15    16    1
    26    29    30    1
    27    29    28    1
    28    43    42   ar
    29    17    30   am
    30    17    16    1
    31    41    42   ar
    32    41    40    1
    33    27    28    1
    34    27    36   am
    35    16    19    1
    36    37    40    1
    37    37    36    1
    38    37    38    1
    39    36    35    1
    40    47    38   am
    41    19    20    1
    42    38    39    2
    43    20    21    1
    44    21    22    1
    45    25    23    1
    46    22    23    2
    47    23    24    1
