@<TRIPOS>MOLECULE
2wev_CK7_A_1.pdb
 23 25 0 0 0
SMALL
GASTEIGER

@<TRIPOS>ATOM
      1  N7A        4.5480   45.1430   -0.4970 N.pl3 1297  CK71297    -0.0867
      2  C3A        4.8380   46.2240    0.2450 C.2   1297  CK71297     0.2461
      3  N2A        6.0790   46.6000    0.4240 N.2   1297  CK71297    -0.3852
      4  C1A        6.1500   47.6750    1.1760 C.2   1297  CK71297     0.1063
      5  C6A        7.4940   48.2390    1.4810 C.3   1297  CK71297     0.0629
      6  S4A        3.7260   47.1640    0.9720 S.3   1297  CK71297    -0.0508
      7  C5A        4.9340   48.1030    1.5320 C.3   1297  CK71297     0.1563
      8  C4         4.5800   49.4350    2.1340 C.2   1297  CK71297     0.1398
      9  N3         3.2960   49.5890    2.4880 N.2   1297  CK71297    -0.3393
     10  C5         5.4620   50.5140    2.2580 C.2   1297  CK71297     0.0513
     11  C6         4.9520   51.7350    2.7040 C.2   1297  CK71297     0.1141
     12  N1         3.6490   51.8420    3.0460 N.2   1297  CK71297    -0.1683
     13  C2         2.8340   50.7740    2.9170 C.1   1297  CK71297     0.1694
     14  N7         1.5710   50.8850    3.4000 N.pl3 1297  CK71297    -0.1357
     15  C1B        0.5030   50.1390    3.0500 C.ar  1297  CK71297     0.0842
     16  C6B       -0.7400   50.6330    3.3530 C.ar  1297  CK71297     0.0175
     17  C2B        0.6060   48.8900    2.4270 C.ar  1297  CK71297     0.0414
     18  C3B       -0.5360   48.1520    2.1180 C.ar  1297  CK71297     0.1442
     19  N7B       -0.3920   46.8270    1.7920 N.pl3 1297  CK71297     0.0577
     20  O8B       -1.4020   46.1710    1.5860 O.2   1297  CK71297    -0.1261
     21  O9B        0.6200   46.2060    2.1280 O.2   1297  CK71297    -0.1261
     22  C4B       -1.8020   48.6590    2.4180 C.ar  1297  CK71297     0.0242
     23  C5B       -1.8860   49.8970    3.0350 C.ar  1297  CK71297     0.0031
@<TRIPOS>BOND
     1     1     2    1
     2     2     3    2
     3     2     6    1
     4     3     4    2
     5     6     7    1
     6     4     5    1
     7     4     7    1
     8     7     8    1
     9    20    19    2
    10    19    18    1
    11    19    21    2
    12    18    22   ar
    13    18    17   ar
    14     8    10    1
    15     8     9    2
    16    10    11    2
    17    22    23   ar
    18    17    15   ar
    19     9    13    2
    20    11    12    1
    21    13    12    2
    22    13    14    1
    23    23    16   ar
    24    15    16   ar
    25    15    14    1
