@<TRIPOS>MOLECULE
2wew_MYR_A_1.pdb
 16 15 0 0 0
SMALL
GASTEIGER

@<TRIPOS>ATOM
      1  C1         9.2360    8.1600   23.2590 C.2   1188  MYR1188     0.3649
      2  O1         8.9000    9.3470   23.5500 O.co2 1188  MYR1188    -0.2457
      3  O2        10.3120    7.9430   22.6410 O.co2 1188  MYR1188    -0.2457
      4  C2         8.3090    7.0270   23.6300 C.3   1188  MYR1188     0.1141
      5  C3         9.0150    5.8580   24.2850 C.3   1188  MYR1188     0.0118
      6  C4         8.0390    4.6970   24.3040 C.3   1188  MYR1188     0.0006
      7  C5         7.5620    4.3870   25.7040 C.3   1188  MYR1188     0.0000
      8  C6         7.2370    2.9020   25.8210 C.3   1188  MYR1188     0.0000
      9  C7         6.7460    2.5700   27.2190 C.3   1188  MYR1188     0.0000
     10  C8         6.4250    1.0910   27.4180 C.3   1188  MYR1188     0.0000
     11  C9         7.6660    0.2110   27.3950 C.3   1188  MYR1188     0.0000
     12  C10        7.1890   -1.2230   27.4410 C.3   1188  MYR1188     0.0000
     13  C11        7.6130   -2.0450   26.2550 C.3   1188  MYR1188     0.0000
     14  C12        6.4940   -3.0100   25.9090 C.3   1188  MYR1188     0.0000
     15  C13        6.7380   -3.7040   24.5820 C.3   1188  MYR1188     0.0000
     16  C14        5.5320   -4.5770   24.2230 C.3   1188  MYR1188     0.0000
@<TRIPOS>BOND
     1     3     1   ar
     2     1     2   ar
     3     1     4    1
     4     4     5    1
     5    16    15    1
     6     5     6    1
     7     6     7    1
     8    15    14    1
     9     7     8    1
    10     8     9    1
    11    14    13    1
    12    13    12    1
    13     9    10    1
    14    11    10    1
    15    11    12    1
