@<TRIPOS>MOLECULE
2wex_GYM_A_1.pdb
 21 20 0 0 0
SMALL
GASTEIGER

@<TRIPOS>ATOM
      1  O21        9.8580    8.0390   27.4500 O.3   1186  GYM1186    -0.2174
      2  C20        8.6030    8.7440   27.1990 C.3   1186  GYM1186     0.2187
      3  C18        8.5940    9.8500   26.1230 C.3   1186  GYM1186     0.2281
      4  O19        7.2720   10.3160   25.7400 O.3   1186  GYM1186    -0.2163
      5  C17        9.3570    9.4390   24.8750 C.3   1186  GYM1186     0.2438
      6  O2         9.3180    8.0240   24.7720 O.3   1186  GYM1186    -0.4456
      7  C1         8.9100    7.4310   23.5160 C.2   1186  GYM1186     0.3171
      8  O1         9.5150    7.7830   22.4950 O.2   1186  GYM1186    -0.2501
      9  C2         7.7750    6.4250   23.5260 C.3   1186  GYM1186     0.1096
     10  C3         8.3250    5.0450   23.9030 C.3   1186  GYM1186     0.0116
     11  C4         7.9830    4.6800   25.3360 C.3   1186  GYM1186     0.0006
     12  C5         7.5500    3.2230   25.5270 C.3   1186  GYM1186     0.0000
     13  C6         7.2640    3.0380   27.0070 C.3   1186  GYM1186     0.0000
     14  C7         6.6450    1.7320   27.4350 C.3   1186  GYM1186     0.0000
     15  C8         7.7020    0.7270   27.8690 C.3   1186  GYM1186     0.0000
     16  C9         7.0450   -0.6360   27.8490 C.3   1186  GYM1186     0.0000
     17  C10        7.5210   -1.5420   26.7370 C.3   1186  GYM1186     0.0000
     18  C11        6.7780   -2.8690   26.6010 C.3   1186  GYM1186     0.0000
     19  C12        6.7680   -3.2230   25.1180 C.3   1186  GYM1186     0.0000
     20  C13        6.4090   -4.6670   24.8310 C.3   1186  GYM1186     0.0000
     21  C14        4.9410   -4.8700   24.4910 C.3   1186  GYM1186     0.0000
@<TRIPOS>BOND
     1     8     7    2
     2     7     9    1
     3     7     6    1
     4     9    10    1
     5    10    11    1
     6    21    20    1
     7     6     5    1
     8    20    19    1
     9     5     3    1
    10    19    18    1
    11    11    12    1
    12    12    13    1
    13     4     3    1
    14     3     2    1
    15    18    17    1
    16    17    16    1
    17    13    14    1
    18     2     1    1
    19    14    15    1
    20    16    15    1
