@<TRIPOS>MOLECULE
2wey_EV1_A_1.pdb
 25 27 0 0 0
SMALL
GASTEIGER

@<TRIPOS>ATOM
      1  C25      -10.8550  -28.8440   35.4010 C.3   1771  EV11771     0.2526
      2  O24       -9.4850  -28.4850   35.2120 O.3   1771  EV11771    -0.4684
      3  C16       -8.4470  -29.3780   35.0680 C.ar  1771  EV11771     0.1721
      4  C15       -8.3790  -30.6490   35.8540 C.ar  1771  EV11771     0.1724
      5  O22       -9.3750  -30.9920   36.7430 O.3   1771  EV11771    -0.4684
      6  C23       -9.1380  -31.8070   37.8950 C.3   1771  EV11771     0.2526
      7  C14       -7.2830  -31.4880   35.6520 C.ar  1771  EV11771     0.0397
      8  C13       -6.2830  -31.1370   34.7440 C.ar  1771  EV11771    -0.0006
      9  C17       -7.4120  -29.0700   34.1770 C.ar  1771  EV11771     0.0362
     10  C12       -6.3330  -29.9430   34.0200 C.ar  1771  EV11771    -0.0130
     11  C11       -5.2030  -29.6460   33.0510 C.3   1771  EV11771     0.0721
     12  C10       -4.3500  -28.4280   33.3700 C.ar  1771  EV11771     0.0635
     13  N9        -4.0100  -27.6120   32.3380 N.ar  1771  EV11771    -0.2478
     14  C8        -3.2490  -26.5100   32.4930 C.ar  1771  EV11771     0.0985
     15  C7        -2.7390  -26.1070   33.7300 C.ar  1771  EV11771     0.0208
     16  C2        -3.0040  -26.8550   34.8720 C.ar  1771  EV11771     0.0059
     17  C3        -3.8380  -28.0840   34.7390 C.ar  1771  EV11771     0.0171
     18  C4        -4.1120  -28.8400   35.8720 C.ar  1771  EV11771     0.0412
     19  C5        -3.6140  -28.4630   37.1170 C.ar  1771  EV11771     0.1724
     20  O20       -3.9060  -29.2310   38.2190 O.3   1771  EV11771    -0.4684
     21  C21       -3.7490  -30.6510   38.2070 C.3   1771  EV11771     0.2526
     22  C6        -2.7840  -27.2240   37.2500 C.ar  1771  EV11771     0.1724
     23  C1        -2.5060  -26.4630   36.1120 C.ar  1771  EV11771     0.0401
     24  O18       -2.2870  -26.8590   38.4860 O.3   1771  EV11771    -0.4684
     25  C19       -2.1940  -25.4990   38.9180 C.3   1771  EV11771     0.2526
@<TRIPOS>BOND
     1    13    14   ar
     2    13    12   ar
     3    14    15   ar
     4    11    12    1
     5    11    10    1
     6    12    17   ar
     7    15    16   ar
     8    10     9   ar
     9    10     8   ar
    10     9     3   ar
    11    17    16   ar
    12    17    18   ar
    13     8     7   ar
    14    16    23   ar
    15     3     2    1
    16     3     4   ar
    17     2     1    1
    18     7     4   ar
    19     4     5    1
    20    18    19   ar
    21    23    22   ar
    22     5     6    1
    23    19    22   ar
    24    19    20    1
    25    22    24    1
    26    21    20    1
    27    24    25    1
