@<TRIPOS>MOLECULE
2wez_ZYE_A_1.pdb
 41 45 0 0 0
SMALL
GASTEIGER

@<TRIPOS>ATOM
      1  C1        30.1980   -2.3490   35.3960 C.ar  2000  ZYE2000     0.0613
      2  C2        30.0150   -1.1550   34.6390 C.ar  2000  ZYE2000     0.0218
      3  C3        30.4940    0.1280   35.1710 C.ar  2000  ZYE2000     0.0577
      4  C4        31.1310    0.1510   36.4470 C.ar  2000  ZYE2000     0.0199
      5  C5        31.3180   -1.0590   37.2180 C.ar  2000  ZYE2000     0.0597
      6  C6        30.8280   -2.3720   36.6710 C.ar  2000  ZYE2000     0.0313
      7  C7        30.3130    1.3550   34.3740 C.2   2000  ZYE2000     0.2649
      8  N8        29.1330    1.4490   33.6960 N.am  2000  ZYE2000    -0.2004
      9  O9        31.2950    2.1260   34.2290 O.2   2000  ZYE2000    -0.2684
     10  C10       28.8460    2.4470   32.6370 C.3   2000  ZYE2000     0.1316
     11  C11       28.1310    1.6760   31.5020 C.3   2000  ZYE2000     0.0507
     12  C12       27.9930    3.6920   33.0700 C.3   2000  ZYE2000     0.1894
     13  O13       27.7430    4.6030   32.0050 O.3   2000  ZYE2000    -0.2197
     14  C14       28.9450    0.4240   31.1420 C.ar  2000  ZYE2000    -0.0204
     15  C15       28.6940    4.4700   34.1970 C.3   2000  ZYE2000     0.1237
     16  N16       27.9740    5.6700   34.6730 N.3   2000  ZYE2000    -0.2105
     17  C17       28.6600    6.8710   35.3010 C.3   2000  ZYE2000     0.1152
     18  C18       28.1310   -0.7990   31.0000 C.ar  2000  ZYE2000    -0.0042
     19  C19       28.7610   -2.0990   30.6790 C.ar  2000  ZYE2000    -0.0003
     20  C20       30.2260   -2.1920   30.5000 C.ar  2000  ZYE2000    -0.0000
     21  C21       31.0730   -0.9710   30.6370 C.ar  2000  ZYE2000    -0.0003
     22  C22       30.4520    0.3320   30.9540 C.ar  2000  ZYE2000    -0.0042
     23  N23       29.8280   -3.6580   35.0920 N.ar  2000  ZYE2000    -0.3260
     24  C24       33.6710   -0.6600   40.0750 C.2   2000  ZYE2000    -0.0000
     25  C25       32.3520   -1.0340   40.7850 C.3   2000  ZYE2000     0.1133
     26  C26       31.3260   -1.2140   39.6780 C.2   2000  ZYE2000     0.2376
     27  N27       31.9730   -0.9770   38.5010 N.am  2000  ZYE2000    -0.2361
     28  C28       33.3810   -0.6360   38.5910 C.2   2000  ZYE2000     0.0680
     29  O29       30.1130   -1.5240   39.7940 O.2   2000  ZYE2000    -0.2738
     30  C30       30.2330   -4.4400   36.1540 C.ar  2000  ZYE2000     0.0760
     31  C31       30.8630   -3.6870   37.1670 C.ar  2000  ZYE2000     0.0213
     32  C32       27.6150   -3.8760   33.9080 C.3   2000  ZYE2000     0.0265
     33  C33       29.1340   -4.0950   33.8530 C.3   2000  ZYE2000     0.1061
     34  C34       30.6680    8.4080   32.2950 C.ar  2000  ZYE2000     0.1385
     35  C35       32.0230    8.2580   32.8080 C.ar  2000  ZYE2000     0.0369
     36  C36       32.2670    7.6750   34.0920 C.ar  2000  ZYE2000     0.0028
     37  C37       31.1710    7.2260   34.9010 C.ar  2000  ZYE2000    -0.0027
     38  C38       29.8110    7.3560   34.4280 C.ar  2000  ZYE2000    -0.0018
     39  C39       29.5670    7.9450   33.1340 C.ar  2000  ZYE2000     0.0340
     40  O40       30.3390    8.9780   31.0320 O.3   2000  ZYE2000    -0.4714
     41  C41       28.9900    9.1080   30.5700 C.3   2000  ZYE2000     0.2525
@<TRIPOS>BOND
     1    20    21   ar
     2    20    19   ar
     3    41    40    1
     4    21    22   ar
     5    19    18   ar
     6    22    14   ar
     7    18    14   ar
     8    40    34    1
     9    14    11    1
    10    11    10    1
    11    13    12    1
    12    34    35   ar
    13    34    39   ar
    14    10    12    1
    15    10     8    1
    16    35    36   ar
    17    12    15    1
    18    39    38   ar
    19     8     7   am
    20    33    32    1
    21    33    23    1
    22    36    37   ar
    23    15    16    1
    24     9     7    2
    25     7     3    1
    26    38    37   ar
    27    38    17    1
    28     2     3   ar
    29     2     1   ar
    30    16    17    1
    31    23     1   ar
    32    23    30   ar
    33     3     4   ar
    34     1     6   ar
    35    30    31   ar
    36     4     5   ar
    37     6    31   ar
    38     6     5   ar
    39     5    27    1
    40    27    28    1
    41    27    26   am
    42    28    24    2
    43    26    29    2
    44    26    25    1
    45    24    25    1
