@<TRIPOS>MOLECULE
2wf0_ZY0_A_1.pdb
 44 48 0 0 0
SMALL
GASTEIGER

@<TRIPOS>ATOM
      1  C1        30.1720   -2.3020   35.2710 C.ar  2000  ZY02000     0.0151
      2  C2        29.9920   -1.0900   34.5150 C.ar  2000  ZY02000     0.0058
      3  C3        30.4400    0.1660   35.0330 C.ar  2000  ZY02000     0.0564
      4  C4        31.0700    0.2280   36.3080 C.ar  2000  ZY02000     0.0213
      5  C5        31.2600   -0.9510   37.0720 C.ar  2000  ZY02000     0.0758
      6  C6        30.8240   -2.2210   36.5710 C.ar  2000  ZY02000     0.0949
      7  C7        30.2780    1.4090   34.2740 C.2   2000  ZY02000     0.2649
      8  N8        29.0530    1.5770   33.6940 N.am  2000  ZY02000    -0.2004
      9  O9        31.1760    2.2470   34.1250 O.2   2000  ZY02000    -0.2684
     10  C10       28.8410    2.4820   32.5490 C.3   2000  ZY02000     0.1316
     11  C11       28.1350    1.6880   31.4250 C.3   2000  ZY02000     0.0507
     12  C12       28.0300    3.7220   32.9920 C.3   2000  ZY02000     0.1894
     13  O13       27.8120    4.5820   31.9050 O.3   2000  ZY02000    -0.2197
     14  C14       28.8790    0.4280   30.9970 C.ar  2000  ZY02000    -0.0204
     15  C15       28.7280    4.5260   34.0890 C.3   2000  ZY02000     0.1237
     16  N16       27.9440    5.7060   34.4820 N.3   2000  ZY02000    -0.2105
     17  C17       28.7060    6.8530   35.0270 C.3   2000  ZY02000     0.1151
     18  C18       28.1380   -0.7430   30.6980 C.ar  2000  ZY02000    -0.0042
     19  C19       28.7920   -1.9380   30.3080 C.ar  2000  ZY02000    -0.0003
     20  C20       30.2040   -1.9810   30.2210 C.ar  2000  ZY02000    -0.0000
     21  C21       30.9610   -0.8170   30.5160 C.ar  2000  ZY02000    -0.0003
     22  C22       30.3050    0.3740   30.9010 C.ar  2000  ZY02000    -0.0042
     23  C9        29.7360   -3.6010   34.7830 C.ar  2000  ZY02000    -0.0191
     24  C24       33.5660   -0.6280   39.9310 C.2   2000  ZY02000    -0.0000
     25  C25       32.2300   -0.9430   40.6150 C.3   2000  ZY02000     0.1133
     26  C26       31.2260   -1.0820   39.4830 C.2   2000  ZY02000     0.2376
     27  N27       31.8740   -0.8910   38.2970 N.am  2000  ZY02000    -0.2347
     28  C28       33.2980   -0.6110   38.4300 C.2   2000  ZY02000     0.0680
     29  O1        30.0350   -1.3360   39.6720 O.2   2000  ZY02000    -0.2738
     30  C30       30.6020   -4.5980   36.8410 C.ar  2000  ZY02000     0.0986
     31  N1        31.0080   -3.3920   37.3060 N.ar  2000  ZY02000    -0.2426
     32  C32       27.5200   -3.8140   33.5570 C.3   2000  ZY02000     0.0050
     33  C33       29.0470   -3.8060   33.4480 C.3   2000  ZY02000     0.0265
     34  C34       30.3620    8.4640   31.9240 C.ar  2000  ZY02000     0.0712
     35  C35       31.7360    8.4260   32.3130 C.ar  2000  ZY02000     0.0038
     36  C36       32.1140    7.8830   33.5630 C.ar  2000  ZY02000    -0.0003
     37  C37       31.1310    7.3750   34.4420 C.ar  2000  ZY02000    -0.0029
     38  C38       29.7560    7.4020   34.0800 C.ar  2000  ZY02000    -0.0049
     39  C39       29.3850    7.9470   32.8270 C.ar  2000  ZY02000     0.0010
     40  C8        29.9070    9.0390   30.5870 C.3   2000  ZY02000     0.4186
     41  F3        29.0560   10.0150   30.8270 F     2000  ZY02000    -0.1659
     42  F1        29.3120    8.0770   29.9110 F     2000  ZY02000    -0.1659
     43  F2        30.9340    9.4850   29.8850 F     2000  ZY02000    -0.1659
     44  C13       29.9640   -4.7430   35.5920 C.ar  2000  ZY02000     0.0164
@<TRIPOS>BOND
     1    43    40    1
     2    42    40    1
     3    20    19   ar
     4    20    21   ar
     5    19    18   ar
     6    21    22   ar
     7    40    41    1
     8    40    34    1
     9    18    14   ar
    10    22    14   ar
    11    14    11    1
    12    11    10    1
    13    13    12    1
    14    34    35   ar
    15    34    39   ar
    16    35    36   ar
    17    10    12    1
    18    10     8    1
    19    39    38   ar
    20    12    15    1
    21    33    32    1
    22    33    23    1
    23    36    37   ar
    24     8     7   am
    25    38    37   ar
    26    38    17    1
    27    15    16    1
    28     9     7    2
    29     7     3    1
    30    16    17    1
    31     2     3   ar
    32     2     1   ar
    33    23     1   ar
    34    23    44   ar
    35     3     4   ar
    36     1     6   ar
    37    44    30   ar
    38     4     5   ar
    39     6     5   ar
    40     6    31   ar
    41    30    31   ar
    42     5    27    1
    43    27    28    1
    44    27    26   am
    45    28    24    2
    46    26    29    2
    47    26    25    1
    48    24    25    1
