@<TRIPOS>MOLECULE
2wf1_ZY1_A_1.pdb
 42 46 0 0 0
SMALL
GASTEIGER

@<TRIPOS>ATOM
      1  C69       27.6180   -3.8540   34.2880 C.3   2000  ZY12000     0.0051
      2  C68       29.1370   -4.0020   34.1320 C.3   2000  ZY12000     0.0279
      3  C58       29.8660   -3.4100   35.3340 C.ar  2000  ZY12000    -0.0035
      4  C57       30.3580   -4.1260   36.4280 C.ar  2000  ZY12000     0.0716
      5  N56       30.9610   -3.2910   37.3200 N.ar  2000  ZY12000    -0.3234
      6  C62       31.6240   -3.6850   38.6040 C.3   2000  ZY12000     0.1334
      7  C61       31.2920   -2.9890   39.9430 C.3   2000  ZY12000     0.1970
      8  S60       31.1010   -1.2210   39.8640 S.O2  2000  ZY12000     0.0590
      9  O80       29.7190   -0.9570   39.6070 O.2   2000  ZY12000    -0.1542
     10  O79       31.6780   -0.6380   41.0490 O.2   2000  ZY12000    -0.1542
     11  N59       32.0030   -0.6830   38.5670 N.pl3 2000  ZY12000    -0.1911
     12  C75       32.7410    0.5820   38.8210 C.3   2000  ZY12000     0.1388
     13  C10       31.3320   -0.7360   37.3450 C.ar  2000  ZY12000     0.0843
     14  C9        31.1050    0.4690   36.5710 C.ar  2000  ZY12000     0.0222
     15  C8        30.4290    0.4070   35.3070 C.ar  2000  ZY12000     0.0564
     16  C13       29.9820   -0.8620   34.8320 C.ar  2000  ZY12000     0.0058
     17  C12       30.1960   -2.0230   35.5710 C.ar  2000  ZY12000     0.0147
     18  C11       30.8840   -1.9690   36.8330 C.ar  2000  ZY12000     0.0747
     19  C1        30.2000    1.5800   34.4310 C.2   2000  ZY12000     0.2649
     20  O7        31.0350    2.4780   34.3070 O.2   2000  ZY12000    -0.2684
     21  N2        29.0470    1.5970   33.7040 N.am  2000  ZY12000    -0.2004
     22  C3        28.7430    2.6630   32.7250 C.3   2000  ZY12000     0.1316
     23  C5        28.1980    1.9210   31.4600 C.3   2000  ZY12000     0.0507
     24  C14       28.8270    0.5630   31.1840 C.ar  2000  ZY12000    -0.0204
     25  C15       28.0200   -0.6100   31.1280 C.ar  2000  ZY12000    -0.0042
     26  C16       28.6060   -1.8780   30.8780 C.ar  2000  ZY12000    -0.0003
     27  C17       30.0030   -1.9880   30.6840 C.ar  2000  ZY12000    -0.0000
     28  C18       30.8180   -0.8290   30.7380 C.ar  2000  ZY12000    -0.0003
     29  C19       30.2350    0.4360   30.9840 C.ar  2000  ZY12000    -0.0042
     30  O47       30.0710    8.9410   30.8830 O.3   2000  ZY12000    -0.4714
     31  C4        27.8100    3.7460   33.3100 C.3   2000  ZY12000     0.1894
     32  C48       28.7920    9.4100   30.4820 C.3   2000  ZY12000     0.2525
     33  O21       27.4460    4.6150   32.2510 O.3   2000  ZY12000    -0.2197
     34  C6        28.4060    4.6020   34.4350 C.3   2000  ZY12000     0.1237
     35  N20       27.6660    5.8680   34.5720 N.3   2000  ZY12000    -0.2105
     36  C37       28.4110    6.9520   35.2380 C.3   2000  ZY12000     0.1152
     37  C39       29.5090    7.5170   34.3630 C.ar  2000  ZY12000    -0.0018
     38  C42       29.2170    7.9510   33.0450 C.ar  2000  ZY12000     0.0340
     39  C43       30.2410    8.4860   32.2010 C.ar  2000  ZY12000     0.1385
     40  C44       31.5600    8.5730   32.7100 C.ar  2000  ZY12000     0.0369
     41  C45       31.8590    8.1430   34.0220 C.ar  2000  ZY12000     0.0028
     42  C46       30.8380    7.6170   34.8460 C.ar  2000  ZY12000    -0.0027
@<TRIPOS>BOND
     1    32    30    1
     2    27    28   ar
     3    27    26   ar
     4    28    29   ar
     5    26    25   ar
     6    30    39    1
     7    29    24   ar
     8    25    24   ar
     9    24    23    1
    10    23    22    1
    11    39    40   ar
    12    39    38   ar
    13    33    31    1
    14    40    41   ar
    15    22    31    1
    16    22    21    1
    17    38    37   ar
    18    31    34    1
    19    21    19   am
    20    41    42   ar
    21     2     1    1
    22     2     3    1
    23    20    19    2
    24    37    42   ar
    25    37    36    1
    26    19    15    1
    27    34    35    1
    28    35    36    1
    29    16    15   ar
    30    16    17   ar
    31    15    14   ar
    32     3    17   ar
    33     3     4   ar
    34    17    18   ar
    35     4     5   ar
    36    14    13   ar
    37    18     5   ar
    38    18    13   ar
    39     5     6    1
    40    13    11    1
    41    11    12    1
    42    11     8    1
    43     6     7    1
    44     9     8    2
    45     8     7    1
    46     8    10    2
