@<TRIPOS>MOLECULE
2wf2_ZY2_A_1.pdb
 43 47 0 0 0
SMALL
GASTEIGER

@<TRIPOS>ATOM
      1  C1        30.5630    1.3650   34.7320 C.2   2000  ZY22000     0.2649
      2  N2        29.3620    1.3030   34.0910 N.am  2000  ZY22000    -0.2004
      3  C3        29.0290    2.2730   33.0400 C.3   2000  ZY22000     0.1316
      4  C4        28.1710    3.4650   33.5180 C.3   2000  ZY22000     0.1894
      5  C5        28.3780    1.4980   31.8540 C.3   2000  ZY22000     0.0507
      6  C6        28.9830    4.4320   34.3660 C.3   2000  ZY22000     0.1237
      7  O7        31.3780    2.2620   34.5060 O.2   2000  ZY22000    -0.2684
      8  C8        30.8990    0.2050   35.5510 C.ar  2000  ZY22000     0.0576
      9  C9        31.5450    0.3730   36.7840 C.ar  2000  ZY22000     0.0220
     10  C10       31.9170   -0.7490   37.5690 C.ar  2000  ZY22000     0.0834
     11  C11       31.6390   -2.1050   37.1020 C.ar  2000  ZY22000     0.0805
     12  C12       30.9480   -2.2770   35.8440 C.ar  2000  ZY22000     0.0669
     13  C13       30.5940   -1.0970   35.0800 C.ar  2000  ZY22000     0.0207
     14  C14       29.1840    0.2640   31.4150 C.ar  2000  ZY22000    -0.0204
     15  C15       28.4390   -0.9400   31.1480 C.ar  2000  ZY22000    -0.0042
     16  C16       29.1260   -2.1360   30.7520 C.ar  2000  ZY22000    -0.0003
     17  C17       30.5530   -2.1170   30.6310 C.ar  2000  ZY22000    -0.0000
     18  C18       31.3100   -0.9230   30.8950 C.ar  2000  ZY22000    -0.0003
     19  C19       30.6270    0.2720   31.2880 C.ar  2000  ZY22000    -0.0042
     20  N20       28.1070    5.5620   34.7890 N.3   2000  ZY22000    -0.2105
     21  O21       27.7070    4.2370   32.4050 O.3   2000  ZY22000    -0.2197
     22  C37       28.8850    6.5690   35.5530 C.3   2000  ZY22000     0.1152
     23  C39       29.9720    7.1960   34.6780 C.ar  2000  ZY22000    -0.0018
     24  C42       29.6470    7.6780   33.3630 C.ar  2000  ZY22000     0.0340
     25  C43       30.6850    8.2480   32.5360 C.ar  2000  ZY22000     0.1385
     26  C44       32.0190    8.3210   33.0460 C.ar  2000  ZY22000     0.0369
     27  C45       32.3460    7.8490   34.3520 C.ar  2000  ZY22000     0.0028
     28  C46       31.3130    7.2850   35.1630 C.ar  2000  ZY22000    -0.0027
     29  O47       30.4950    8.7470   31.2400 O.3   2000  ZY22000    -0.4714
     30  C48       29.1850    8.7110   30.6530 C.3   2000  ZY22000     0.2525
     31  N56       32.0810   -3.2740   37.7790 N.pl3 2000  ZY22000    -0.2810
     32  C57       30.9220   -4.8100   36.1070 C.2   2000  ZY22000     0.0817
     33  N1        30.6190   -3.5620   35.3500 N.pl3 2000  ZY22000    -0.2839
     34  N59       32.3170   -0.4430   38.9020 N.pl3 2000  ZY22000    -0.1913
     35  S60       31.6130   -1.3220   40.2220 S.O2  2000  ZY22000     0.0588
     36  C61       32.4220   -2.8910   40.2980 C.3   2000  ZY22000     0.1943
     37  C62       33.0030   -3.2640   38.9370 C.3   2000  ZY22000     0.1230
     38  C68       29.9190   -3.7890   34.0730 C.3   2000  ZY22000     0.0957
     39  C69       28.4050   -3.9410   34.3250 C.3   2000  ZY22000     0.0236
     40  C75       33.5990    0.3120   39.0400 C.3   2000  ZY22000     0.1388
     41  O79       30.2330   -1.5320   39.8820 O.2   2000  ZY22000    -0.1542
     42  O80       31.9330   -0.5510   41.3970 O.2   2000  ZY22000    -0.1542
     43  C2        31.8280   -4.6500   37.3220 C.2   2000  ZY22000     0.0818
@<TRIPOS>BOND
     1    17    16   ar
     2    17    18   ar
     3    30    29    1
     4    16    15   ar
     5    18    19   ar
     6    15    14   ar
     7    29    25    1
     8    19    14   ar
     9    14     5    1
    10     5     3    1
    11    21     4    1
    12    25    26   ar
    13    25    24   ar
    14     3     4    1
    15     3     2    1
    16    26    27   ar
    17    24    23   ar
    18     4     6    1
    19    38    39    1
    20    38    33    1
    21     2     1   am
    22    27    28   ar
    23     6    20    1
    24     7     1    2
    25    23    28   ar
    26    23    22    1
    27     1     8    1
    28    20    22    1
    29    13     8   ar
    30    13    12   ar
    31    33    12    1
    32    33    32    1
    33     8     9   ar
    34    12    11   ar
    35    32    43    2
    36     9    10   ar
    37    11    10   ar
    38    11    31    1
    39    43    31    1
    40    10    34    1
    41    31    37    1
    42    34    40    1
    43    34    35    1
    44    37    36    1
    45    41    35    2
    46    35    36    1
    47    35    42    2
