@<TRIPOS>MOLECULE
2wf3_ZY3_A_1.pdb
 41 44 0 0 0
SMALL
GASTEIGER

@<TRIPOS>ATOM
      1  O3        31.2660    2.2580   34.3830 O.2   2000  ZY32000    -0.2684
      2  C13       30.3400    1.4400   34.5040 C.2   2000  ZY32000     0.2649
      3  C5        30.5460    0.2600   35.3830 C.ar  2000  ZY32000     0.0576
      4  C6        31.1570    0.3760   36.6080 C.ar  2000  ZY32000     0.0205
      5  C7        31.3880   -0.7080   37.4360 C.ar  2000  ZY32000     0.0659
      6  C12       31.0100   -1.9770   37.0340 C.ar  2000  ZY32000     0.0076
      7  C11       31.2450   -3.2520   37.8510 C.3   2000  ZY32000     0.0308
      8  C10       32.5520   -3.1880   38.6940 C.3   2000  ZY32000     0.0321
      9  C9        32.2450   -2.6070   40.0960 C.3   2000  ZY32000     0.1730
     10  S         31.4150   -1.1370   39.9940 S.O2  2000  ZY32000     0.0570
     11  O1        30.0240   -1.4260   39.8130 O.2   2000  ZY32000    -0.1543
     12  O2        31.7510   -0.3320   41.1610 O.2   2000  ZY32000    -0.1543
     13  N2        32.0220   -0.5140   38.7020 N.pl3 2000  ZY32000    -0.1928
     14  C8        33.2710    0.2200   38.8090 C.3   2000  ZY32000     0.1388
     15  C4        30.1270   -0.9900   34.9840 C.ar  2000  ZY32000     0.0204
     16  C3        30.3660   -2.1060   35.8250 C.ar  2000  ZY32000     0.0627
     17  N1        29.9770   -3.3370   35.4210 N.pl3 2000  ZY32000    -0.2379
     18  C2        29.0700   -3.3960   34.2750 C.3   2000  ZY32000     0.1122
     19  C1        28.4930   -4.7260   34.0770 C.3   2000  ZY32000     0.0251
     20  N3        29.2110    1.5080   33.7950 N.am  2000  ZY32000    -0.2004
     21  C14       29.0010    2.4690   32.7440 C.3   2000  ZY32000     0.1316
     22  C15       28.4020    1.7140   31.5500 C.3   2000  ZY32000     0.0507
     23  C16       29.0320    0.3740   31.2740 C.ar  2000  ZY32000    -0.0204
     24  C21       28.2270   -0.7800   31.1630 C.ar  2000  ZY32000    -0.0042
     25  C20       28.7870   -2.0100   30.8810 C.ar  2000  ZY32000    -0.0003
     26  C19       30.1730   -2.0970   30.7060 C.ar  2000  ZY32000    -0.0000
     27  C18       30.9740   -0.9330   30.7870 C.ar  2000  ZY32000    -0.0003
     28  C17       30.4190    0.2830   31.0780 C.ar  2000  ZY32000    -0.0042
     29  C22       28.1350    3.6020   33.2610 C.3   2000  ZY32000     0.1894
     30  O4        27.7040    4.4940   32.2150 O.3   2000  ZY32000    -0.2197
     31  C23       28.8890    4.4570   34.2930 C.3   2000  ZY32000     0.1237
     32  N4        28.0250    5.6020   34.6590 N.3   2000  ZY32000    -0.2105
     33  C24       28.5300    6.8940   35.1750 C.3   2000  ZY32000     0.1152
     34  C25       29.6820    7.4430   34.3370 C.ar  2000  ZY32000    -0.0018
     35  C31       29.4600    7.9070   33.0470 C.ar  2000  ZY32000     0.0340
     36  C29       30.5330    8.3670   32.2860 C.ar  2000  ZY32000     0.1385
     37  O5        30.3110    8.8190   31.0170 O.3   2000  ZY32000    -0.4714
     38  C30       28.9780    8.9470   30.5920 C.3   2000  ZY32000     0.2525
     39  C28       31.8110    8.3940   32.8070 C.ar  2000  ZY32000     0.0369
     40  C27       32.0400    7.9450   34.0890 C.ar  2000  ZY32000     0.0028
     41  C26       30.9850    7.4400   34.8540 C.ar  2000  ZY32000    -0.0027
@<TRIPOS>BOND
     1    38    37    1
     2    26    27   ar
     3    26    25   ar
     4    27    28   ar
     5    25    24   ar
     6    37    36    1
     7    28    23   ar
     8    24    23   ar
     9    23    22    1
    10    22    21    1
    11    30    29    1
    12    36    39   ar
    13    36    35   ar
    14    21    29    1
    15    21    20    1
    16    39    40   ar
    17    35    34   ar
    18    29    31    1
    19    20     2   am
    20    19    18    1
    21    40    41   ar
    22    18    17    1
    23    31    32    1
    24    34    41   ar
    25    34    33    1
    26     1     2    2
    27     2     3    1
    28    32    33    1
    29    15     3   ar
    30    15    16   ar
    31     3     4   ar
    32    17    16    1
    33    16     6   ar
    34     4     5   ar
    35     6     5   ar
    36     6     7    1
    37     5    13    1
    38     7     8    1
    39     8     9    1
    40    13    14    1
    41    13    10    1
    42    11    10    2
    43    10     9    1
    44    10    12    2
