@<TRIPOS>MOLECULE
2wf4_ZY4_A_1.pdb
 40 44 0 0 0
SMALL
GASTEIGER

@<TRIPOS>ATOM
      1  C1        30.5640    1.4880   34.2700 C.2   2000  ZY42000     0.2651
      2  N2        29.3310    1.5830   33.7160 N.am  2000  ZY42000    -0.1948
      3  C3        29.0620    2.4570   32.5590 C.3   2000  ZY42000     0.1895
      4  C4        28.1930    3.6470   33.0360 C.3   2000  ZY42000     0.4047
      5  C5        28.3380    1.6470   31.4470 C.3   2000  ZY42000     0.0563
      6  C6        29.0240    4.6100   33.8730 C.2   2000  ZY42000     0.1585
      7  O7        31.4500    2.3370   34.0700 O.2   2000  ZY42000    -0.2684
      8  C8        30.7720    0.3180   35.1120 C.ar  2000  ZY42000     0.0578
      9  C9        31.3800    0.4790   36.3770 C.ar  2000  ZY42000     0.0208
     10  C10       31.6190   -0.6390   37.2430 C.ar  2000  ZY42000     0.0697
     11  C11       31.2260   -1.9380   36.8000 C.ar  2000  ZY42000     0.0282
     12  C12       30.5970   -2.1000   35.4950 C.ar  2000  ZY42000     0.0610
     13  C13       30.3850   -0.9780   34.6800 C.ar  2000  ZY42000     0.0218
     14  C14       29.0440    0.3350   31.1180 C.ar  2000  ZY42000    -0.0202
     15  C15       28.3090   -0.8790   31.1000 C.ar  2000  ZY42000    -0.0042
     16  C16       28.9500   -2.1120   30.7960 C.ar  2000  ZY42000    -0.0003
     17  C17       30.3370   -2.1440   30.5080 C.ar  2000  ZY42000    -0.0000
     18  C18       31.0870   -0.9430   30.5210 C.ar  2000  ZY42000    -0.0003
     19  C19       30.4490    0.2900   30.8230 C.ar  2000  ZY42000    -0.0042
     20  N20       28.3200    5.7790   34.3790 N.2   2000  ZY42000    -0.2680
     21  O21       27.7530    4.3990   31.9350 O.2   2000  ZY42000    -0.2669
     22  C39       29.1070    6.7680   35.1280 C.3   2000  ZY42000     0.1082
     23  C42       29.7680    6.1630   36.3840 C.3   2000  ZY42000     0.0564
     24  C43       30.5490    7.2260   37.1890 C.3   2000  ZY42000     0.1442
     25  O1        29.6780    8.3260   37.4940 O.3   2000  ZY42000    -0.3536
     26  C45       29.0730    8.9830   36.3680 C.3   2000  ZY42000     0.1442
     27  C46       28.2320    7.9630   35.5740 C.3   2000  ZY42000     0.0564
     28  C7        31.2990   -3.2950   37.3800 C.ar  2000  ZY42000    -0.0005
     29  C57       30.7340   -4.1410   36.4260 C.ar  2000  ZY42000     0.0716
     30  N1        30.3240   -3.4630   35.3290 N.ar  2000  ZY42000    -0.3263
     31  N59       32.2340   -0.3880   38.4670 N.pl3 2000  ZY42000    -0.1925
     32  S60       31.7670   -1.2190   39.8040 S.O2  2000  ZY42000     0.0573
     33  C61       32.5100   -2.8290   39.6940 C.3   2000  ZY42000     0.1773
     34  C68       29.6800   -4.0710   34.1380 C.3   2000  ZY42000     0.1061
     35  C69       28.1460   -3.9230   34.0980 C.3   2000  ZY42000     0.0265
     36  O79       30.3330   -1.3540   39.7620 O.2   2000  ZY42000    -0.1543
     37  O80       32.3320   -0.5510   40.9320 O.2   2000  ZY42000    -0.1543
     38  C20       31.8410   -3.8040   38.7220 C.3   2000  ZY42000     0.0553
     39  O2        27.0700    3.1550   33.7220 O.2   2000  ZY42000    -0.2669
     40  C2        33.3380    0.5830   38.5600 C.3   2000  ZY42000     0.1388
@<TRIPOS>BOND
     1    17    18   ar
     2    17    16   ar
     3    18    19   ar
     4    16    15   ar
     5    19    14   ar
     6    15    14   ar
     7    14     5    1
     8     5     3    1
     9    21     4    1
    10     3     4    1
    11     3     2    1
    12     4    39    1
    13     4     6    1
    14     2     1   am
    15     6    20    2
    16     7     1    2
    17    35    34    1
    18    34    30    1
    19     1     8    1
    20    20    22    1
    21    13     8   ar
    22    13    12   ar
    23     8     9   ar
    24    22    27    1
    25    22    23    1
    26    30    12   ar
    27    30    29   ar
    28    12    11   ar
    29    27    26    1
    30    26    25    1
    31     9    10   ar
    32    23    24    1
    33    29    28   ar
    34    11    10   ar
    35    11    28   ar
    36    24    25    1
    37    10    31    1
    38    28    38    1
    39    31    40    1
    40    31    32    1
    41    38    33    1
    42    33    32    1
    43    36    32    2
    44    32    37    2
