@<TRIPOS>MOLECULE
2wf5_BG6_A_1.pdb
 16 16 0 0 0
SMALL
GASTEIGER

@<TRIPOS>ATOM
      1  C1        12.6590   -5.7030   12.5910 C.3   1831  BG61831     0.3024
      2  C2        11.5390   -6.5360   12.0530 C.3   1831  BG61831     0.2434
      3  O1        12.8670   -4.5760   11.7340 O.3   1831  BG61831    -0.1869
      4  O5        13.8610   -6.4490   12.5540 O.3   1831  BG61831    -0.3237
      5  C3        11.4000   -7.8880   12.7620 C.3   1831  BG61831     0.2199
      6  O2        10.3180   -5.8300   12.1620 O.3   1831  BG61831    -0.2148
      7  C4        12.7800   -8.5850   12.7700 C.3   1831  BG61831     0.2143
      8  O3        10.4130   -8.6660   12.1240 O.3   1831  BG61831    -0.2174
      9  C5        13.8330   -7.6290   13.3250 C.3   1831  BG61831     0.1808
     10  O4        12.7230   -9.7570   13.5800 O.3   1831  BG61831    -0.2176
     11  C6        15.2530   -8.2710   13.3620 C.3   1831  BG61831     0.1859
     12  O6        15.6480   -8.4260   12.0380 O.3   1831  BG61831    -0.2675
     13  P         16.9780   -9.2600   11.6540 P.3   1831  BG61831     0.5327
     14  O1P       17.1640   -8.8820   10.1920 O.2   1831  BG61831    -0.2224
     15  O2P       18.0740   -8.7340   12.5330 O.3   1831  BG61831    -0.1145
     16  O3P       16.7130  -10.7150   11.8900 O.3   1831  BG61831    -0.1145
@<TRIPOS>BOND
     1    14    13    2
     2    13    16    1
     3    13    12    1
     4    13    15    1
     5     3     1    1
     6    12    11    1
     7     2     6    1
     8     2     1    1
     9     2     5    1
    10     8     5    1
    11     4     1    1
    12     4     9    1
    13     5     7    1
    14     7     9    1
    15     7    10    1
    16     9    11    1
