@<TRIPOS>MOLECULE
2wf6_BG6_A_1.pdb
 16 16 0 0 0
SMALL
GASTEIGER

@<TRIPOS>ATOM
      1  C1        12.5200   -5.4850   12.7370 C.3   1221  BG61221     0.3024
      2  C2        11.3610   -6.3150   12.1590 C.3   1221  BG61221     0.2434
      3  O1        12.6550   -4.3080   11.9380 O.3   1221  BG61221    -0.1869
      4  O5        13.7600   -6.1860   12.6470 O.3   1221  BG61221    -0.3237
      5  C3        11.2740   -7.6610   12.8610 C.3   1221  BG61221     0.2199
      6  O2        10.0900   -5.6410   12.3090 O.3   1221  BG61221    -0.2148
      7  C4        12.6470   -8.3450   12.8150 C.3   1221  BG61221     0.2143
      8  O3        10.2790   -8.4580   12.2150 O.3   1221  BG61221    -0.2174
      9  C5        13.7550   -7.4280   13.3650 C.3   1221  BG61221     0.1808
     10  O4        12.6270   -9.5720   13.5730 O.3   1221  BG61221    -0.2176
     11  C6        15.1620   -8.0340   13.2480 C.3   1221  BG61221     0.1859
     12  O6        15.7010   -8.2210   11.9090 O.3   1221  BG61221    -0.2675
     13  P         17.1660   -8.9580   11.6120 P.3   1221  BG61221     0.5327
     14  O1P       18.2000   -8.4290   12.5810 O.3   1221  BG61221    -0.1145
     15  O2P       16.9590  -10.4530   11.8020 O.3   1221  BG61221    -0.1145
     16  O3P       17.5380   -8.5190   10.2190 O.2   1221  BG61221    -0.2224
@<TRIPOS>BOND
     1    16    13    2
     2    13    15    1
     3    13    12    1
     4    13    14    1
     5    12    11    1
     6     3     1    1
     7     2     6    1
     8     2     1    1
     9     2     5    1
    10     8     5    1
    11     4     1    1
    12     4     9    1
    13     7     5    1
    14     7     9    1
    15     7    10    1
    16    11     9    1
