@<TRIPOS>MOLECULE
2wf7_G7P_A_1.pdb
 16 16 0 0 0
SMALL
GASTEIGER

@<TRIPOS>ATOM
      1  C1       -12.3790   -5.4460  -12.6830 C.3   1221  G7P1221     0.3023
      2  C2       -11.2530   -6.3170  -12.1180 C.3   1221  G7P1221     0.2434
      3  C3       -11.2210   -7.6310  -12.8510 C.3   1221  G7P1221     0.2198
      4  C4       -12.5360   -8.3090  -12.7790 C.3   1221  G7P1221     0.2118
      5  C5       -13.5900   -7.3900  -13.3810 C.3   1221  G7P1221     0.1512
      6  C6       -14.9890   -7.9350  -13.3040 C.3   1221  G7P1221     0.0401
      7  O1       -12.5660   -4.2890  -11.9210 O.3   1221  G7P1221    -0.1869
      8  O2       -10.0160   -5.6430  -12.2730 O.3   1221  G7P1221    -0.2148
      9  O3       -10.1880   -8.4250  -12.1450 O.3   1221  G7P1221    -0.2174
     10  O4       -12.5520   -9.5610  -13.4950 O.3   1221  G7P1221    -0.2177
     11  O5       -13.6170   -6.1400  -12.6150 O.3   1221  G7P1221    -0.3263
     12  C7       -15.4890   -8.1470  -11.8950 C.3   1221  G7P1221     0.0615
     13  P        -17.0650   -8.9330  -11.5780 P.3   1221  G7P1221     0.1173
     14  O3P      -16.8460  -10.4170  -11.7540 O.3   1221  G7P1221    -0.3571
     15  O2P      -18.1090   -8.4150  -12.5770 O.2   1221  G7P1221    -0.4601
     16  O1P      -17.4460   -8.5060  -10.1560 O.3   1221  G7P1221    -0.3571
@<TRIPOS>BOND
     1    10     4    1
     2     5     6    1
     3     5     4    1
     4     5    11    1
     5     6    12    1
     6     3     4    1
     7     3     9    1
     8     3     2    1
     9     1    11    1
    10     1     2    1
    11     1     7    1
    12    15    13    2
    13     8     2    1
    14    12    13    1
    15    14    13    1
    16    13    16    1
