@<TRIPOS>MOLECULE
2wf8_BG6_A_1.pdb
 16 16 0 0 0
SMALL
GASTEIGER

@<TRIPOS>ATOM
      1  C1        12.5020   -5.6440   12.5270 C.3   1224  BG61224     0.3564
      2  C2        11.4660   -6.4610   11.7800 C.3   1224  BG61224     0.2881
      3  O1        12.9210   -4.5260   11.7470 O.3   1224  BG61224    -0.1710
      4  O5        13.6800   -6.3390   12.7730 O.2   1224  BG61224    -0.4420
      5  C3        11.4190   -7.9030   12.2090 C.2   1224  BG61224     0.2514
      6  O2        10.2320   -5.7690   11.9940 O.3   1224  BG61224    -0.2076
      7  C4        12.5330   -8.5030   12.6660 C.2   1224  BG61224     0.2696
      8  O3        10.2900   -8.5950   12.0500 O.2   1224  BG61224    -0.2849
      9  C5        13.6520   -7.7690   12.6980 C.2   1224  BG61224     0.2204
     10  O4        12.5100   -9.7670   13.1350 O.2   1224  BG61224    -0.2800
     11  C6        14.9240   -8.1250   12.7300 C.2   1224  BG61224     0.2234
     12  O6        15.5090   -9.3990   12.6210 O.2   1224  BG61224    -0.3933
     13  P         16.7970   -9.4140   11.6460 P.3   1224  BG61224     0.5889
     14  O1P       17.8970   -8.6930   12.4010 O.3   1224  BG61224    -0.1039
     15  O2P       17.0000  -10.8910   11.6490 O.3   1224  BG61224    -0.1039
     16  O3P       16.3600   -8.8090   10.3450 O.2   1224  BG61224    -0.2114
@<TRIPOS>BOND
     1    16    13    2
     2    13    15    1
     3    13    14    1
     4    13    12    1
     5     3     1    1
     6     2     6    1
     7     2     5    1
     8     2     1    1
     9     8     5    1
    10     5     7    2
    11     1     4    1
    12    12    11    1
    13     7     9    1
    14     7    10    1
    15     9    11    2
    16     9     4    1
