@<TRIPOS>MOLECULE
2wf8_G1P_A_1.pdb
 16 16 0 0 0
SMALL
GASTEIGER

@<TRIPOS>ATOM
      1  C2        11.0310  -10.8460   13.0510 C.3   1223  G1P1223     0.2142
      2  C3        11.8080   -9.5890   13.3090 C.3   1223  G1P1223     0.1835
      3  C4        11.1630   -8.5770   12.3770 C.3   1223  G1P1223     0.2144
      4  C5        11.9390   -7.2950   12.5910 C.3   1223  G1P1223     0.2198
      5  C6        13.3340   -7.4930   11.9840 C.3   1223  G1P1223     0.2410
      6  O1        15.3660   -8.6630   12.4810 O.3   1223  G1P1223    -0.2416
      7  O2         9.6920  -10.6950   13.5190 O.3   1223  G1P1223    -0.2176
      8  O3        13.2640   -9.7520   13.1510 O.3   1223  G1P1223    -0.3253
      9  O4         9.7510   -8.4380   12.6280 O.3   1223  G1P1223    -0.2176
     10  O5        11.2540   -6.1700   12.0210 O.3   1223  G1P1223    -0.2174
     11  O6        14.2610   -6.5930   12.5560 O.3   1223  G1P1223    -0.2149
     12  P         16.6270   -9.2640   11.6200 P.3   1223  G1P1223     0.5346
     13  O1P       17.9270   -8.9240   12.2630 O.3   1223  G1P1223    -0.1145
     14  O2P       16.5910   -8.8430   10.0710 O.2   1223  G1P1223    -0.2223
     15  O3P       16.3600  -10.8570   11.6990 O.3   1223  G1P1223    -0.1145
     16  C1        14.2170   -8.7950   12.8780 C.3   1223  G1P1223     0.2781
@<TRIPOS>BOND
     1    14    12    2
     2    12    15    1
     3    12    13    1
     4    12     6    1
     5     5    11    1
     6     5     4    1
     7     5    16    1
     8    10     4    1
     9     3     4    1
    10     3     9    1
    11     3     2    1
    12     6    16    1
    13    16     8    1
    14     1     2    1
    15     1     7    1
    16     8     2    1
