@<TRIPOS>MOLECULE
2wf9_G6P_A_1.pdb
 16 16 0 0 0
SMALL
GASTEIGER

@<TRIPOS>ATOM
      1  C1         2.8480   30.8480    8.1630 C.3   1223  G6P1223     0.3024
      2  C2         4.2540   31.5840    8.0370 C.3   1223  G6P1223     0.2434
      3  C3         4.1230   32.7880    7.0860 C.3   1223  G6P1223     0.2199
      4  C4         3.4890   32.4270    5.8050 C.3   1223  G6P1223     0.2143
      5  C5         2.1000   31.7590    5.9460 C.3   1223  G6P1223     0.1808
      6  C6         1.3570   31.4290    4.7250 C.3   1223  G6P1223     0.1859
      7  O1         1.9760   31.3930    8.9840 O.3   1223  G6P1223    -0.1869
      8  O2         4.7060   31.8850    9.2260 O.3   1223  G6P1223    -0.2148
      9  O3         5.4060   33.3930    6.9530 O.3   1223  G6P1223    -0.2174
     10  O4         3.3550   33.5870    4.9720 O.3   1223  G6P1223    -0.2176
     11  O5         2.2470   30.5780    6.8190 O.3   1223  G6P1223    -0.3237
     12  O6         2.1220   30.3970    4.0280 O.3   1223  G6P1223    -0.2675
     13  P          1.7980   29.9910    2.5200 P.3   1223  G6P1223     0.5327
     14  O1P        2.6130   28.6690    2.3710 O.3   1223  G6P1223    -0.1145
     15  O2P        0.1810   29.6960    2.2880 O.3   1223  G6P1223    -0.1145
     16  O3P        2.2780   31.1180    1.5610 O.2   1223  G6P1223    -0.2224
@<TRIPOS>BOND
     1    16    13    2
     2    15    13    1
     3    14    13    1
     4    13    12    1
     5    12     6    1
     6     6     5    1
     7    10     4    1
     8     4     5    1
     9     4     3    1
    10     5    11    1
    11    11     1    1
    12     9     3    1
    13     3     2    1
    14     2     1    1
    15     2     8    1
    16     1     7    1
