@<TRIPOS>MOLECULE
2wf9_BG6_A_1.pdb
 16 16 0 0 0
SMALL
GASTEIGER

@<TRIPOS>ATOM
      1  C1         2.8480   30.8480    8.1630 C.3   1224  BG61224     0.3024
      2  C2         4.2540   31.5840    8.0370 C.3   1224  BG61224     0.2434
      3  O1         2.8170   29.6780    8.6340 O.3   1224  BG61224    -0.1869
      4  O5         2.2470   30.5780    6.8190 O.3   1224  BG61224    -0.3237
      5  C3         4.1230   32.7880    7.0860 C.3   1224  BG61224     0.2199
      6  O2         4.7060   31.8850    9.2260 O.3   1224  BG61224    -0.2148
      7  C4         3.4890   32.4270    5.8050 C.3   1224  BG61224     0.2143
      8  O3         5.4060   33.3930    6.9530 O.3   1224  BG61224    -0.2174
      9  C5         2.1000   31.7590    5.9460 C.3   1224  BG61224     0.1808
     10  O4         3.3550   33.5870    4.9720 O.3   1224  BG61224    -0.2176
     11  C6         1.3570   31.4290    4.7250 C.3   1224  BG61224     0.1859
     12  O6         2.1220   30.3970    4.0280 O.3   1224  BG61224    -0.2675
     13  P          1.7980   29.9910    2.5200 P.3   1224  BG61224     0.5327
     14  O1P        2.6130   28.6690    2.3710 O.3   1224  BG61224    -0.1145
     15  O2P        0.1810   29.6960    2.2880 O.3   1224  BG61224    -0.1145
     16  O3P        2.2780   31.1180    1.5610 O.2   1224  BG61224    -0.2224
@<TRIPOS>BOND
     1    16    13    2
     2    15    13    1
     3    14    13    1
     4    13    12    1
     5    12    11    1
     6    11     9    1
     7    10     7    1
     8     7     9    1
     9     7     5    1
    10     9     4    1
    11     4     1    1
    12     8     5    1
    13     5     2    1
    14     2     1    1
    15     2     6    1
    16     1     3    1
