@<TRIPOS>MOLECULE
2wfg_ZZB_A_1.pdb
 36 41 0 0 0
SMALL
GASTEIGER

@<TRIPOS>ATOM
      1  CB        16.5290    0.3930   10.0710 C.3   1529  ZZB1529     0.0000
      2  CG        17.3600   -0.6000    9.7110 C.ar  1529  ZZB1529     0.0000
      3  CD1       17.6880   -1.1150    8.4580 C.ar  1529  ZZB1529     0.0000
      4  CD2       17.9580   -1.1370   10.8470 C.ar  1529  ZZB1529     0.0000
      5  CE1       18.6050   -2.1580    8.3420 C.ar  1529  ZZB1529     0.0000
      6  CE2       18.8740   -2.1870   10.7510 C.ar  1529  ZZB1529     0.0000
      7  CZ        19.2040   -2.7010    9.4910 C.ar  1529  ZZB1529     0.0000
      8  P         21.2340   -2.2680   17.6250 P.3   1529  ZZB1529     0.0000
      9  O1P       21.1570   -3.7520   18.2580 O.3   1529  ZZB1529     0.0000
     10  O2P       22.3950   -2.3180   16.4720 O.2   1529  ZZB1529     0.0000
     11  O3P       21.4450   -1.1850   18.6260 O.3   1529  ZZB1529     0.0000
     12  N9        15.9490   -1.1840   16.4910 N.pl3 1529  ZZB1529     0.5000
     13  C8        15.8480    0.0170   17.0550 C.3   1529  ZZB1529     0.0000
     14  N7        15.1670   -0.0840   18.1880 N.2   1529  ZZB1529     0.0000
     15  C5        14.8480   -1.3640   18.3530 C.2   1529  ZZB1529     0.0000
     16  C6        14.1500   -2.0420   19.3430 C.2   1529  ZZB1529     0.0000
     17  N6        13.6500   -1.3800   20.3920 N.pl3 1529  ZZB1529     0.5000
     18  N1        13.9850   -3.3640   19.2240 N.2   1529  ZZB1529     0.5000
     19  C2        14.4840   -4.0210   18.1850 C.3   1529  ZZB1529     0.0000
     20  N3        15.1590   -3.4010   17.2230 N.2   1529  ZZB1529     0.5000
     21  C4        15.3560   -2.0750   17.2770 C.2   1529  ZZB1529     0.0000
     22  O5'       19.8740   -2.0450   16.8070 O.3   1529  ZZB1529     0.0000
     23  C5'       19.6730   -0.8740   15.9850 C.3   1529  ZZB1529     0.0000
     24  C4'       18.7800   -1.2800   14.8180 C.3   1529  ZZB1529     0.0000
     25  O4'       17.7340   -2.2360   15.2590 O.3   1529  ZZB1529     0.0000
     26  C3'       18.0240   -0.0760   14.2320 C.3   1529  ZZB1529     0.0000
     27  O3'       18.4050    0.1880   12.8890 O.3   1529  ZZB1529     0.0000
     28  C2'       16.5850   -0.5660   14.1260 C.3   1529  ZZB1529     0.0000
     29  O2'       16.5960   -1.2490   12.8750 O.3   1529  ZZB1529     0.0000
     30  C1'       16.6090   -1.4530   15.3570 C.3   1529  ZZB1529     0.0000
     31  F         18.8950   -2.6410    7.1060 F     1529  ZZB1529     0.0000
     32  O1        16.5100    0.5970   11.4270 O.3   1529  ZZB1529     0.0000
     33  B         17.3710   -0.3700   12.0360 B     1529  ZZB1529     0.0000
     34  CF        21.8910   -5.2430    9.8930 C.3   1529  ZZB1529     0.0000
     35  CK        20.7440   -4.3900   10.4740 C.3   1529  ZZB1529     0.0000
     36  ND        20.0760   -3.7120    9.3460 N.pl3 1529  ZZB1529     0.0000
@<TRIPOS>BOND
     1    31     5    1
     2     5     3   ar
     3     5     7   ar
     4     3     2   ar
     5    36     7    1
     6    36    35    1
     7     7     6   ar
     8     2     1    1
     9     2     4   ar
    10    34    35    1
    11     1    32    1
    12     6     4   ar
    13     4    33    1
    14    32    33    1
    15    33    29    1
    16    33    27    1
    17    29    28    1
    18    27    26    1
    19    28    26    1
    20    28    30    1
    21    26    24    1
    22    24    25    1
    23    24    23    1
    24    25    30    1
    25    30    12    1
    26    23    22    1
    27    10     8    2
    28    12    13    1
    29    12    21    1
    30    22     8    1
    31    13    14    1
    32    20    21    2
    33    20    19    1
    34    21    15    1
    35     8     9    1
    36     8    11    1
    37    19    18    1
    38    14    15    2
    39    15    16    1
    40    18    16    2
    41    16    17    1
