@<TRIPOS>MOLECULE
2wfy_III_E_1.pdb
 46 46 0 0 0
SMALL
GASTEIGER

@<TRIPOS>ATOM
      1  C         35.7880   20.4240   -2.4720 C.2     1  ACE1        0.2423
      2  O         36.2490   20.4380   -3.6070 O.2     1  ACE1       -0.2733
      3  CH3       34.5560   19.5710   -2.2540 C.3     1  ACE1        0.0964
      4  N         36.1290   21.3300   -1.5260 N.am    2  ARG2       -0.1978
      5  CA        37.4270   21.3710   -0.8270 C.3     2  ARG2        0.1728
      6  C         37.6630   22.5410    0.1250 C.2     2  ARG2        0.2616
      7  O         37.2970   23.6700   -0.1740 O.2     2  ARG2       -0.2715
      8  CB        38.5910   21.1840   -1.7820 C.3     2  ARG2        0.0348
      9  CG        38.8630   22.0220   -2.7860 C.3     2  ARG2        0.0492
     10  CD        40.3220   22.3440   -3.0630 C.3     2  ARG2        0.2205
     11  NE        40.5150   22.3430   -4.4960 N.pl3   2  ARG2       -0.0865
     12  CZ        40.1110   23.3200   -5.3030 C.cat   2  ARG2        0.5346
     13  NH1       40.8530   24.4310   -5.4090 N.pl3   2  ARG2        0.1354
     14  NH2       38.9650   23.1760   -5.9810 N.pl3   2  ARG2        0.1354
     15  N         38.2930   22.2780    1.2870 N.am    3  ARG3       -0.1963
     16  CA        38.9780   23.2950    2.0660 C.3     3  ARG3        0.1729
     17  C         40.2160   23.8170    1.3840 C.2     3  ARG3        0.2612
     18  O         40.6880   23.1480    0.4930 O.2     3  ARG3       -0.2715
     19  CB        39.3540   22.7470    3.4260 C.3     3  ARG3        0.0348
     20  CG        39.9440   23.6170    4.2450 C.3     3  ARG3        0.0492
     21  CD        40.8480   23.1870    5.3720 C.3     3  ARG3        0.2205
     22  NE        42.2410   23.3510    4.9840 N.pl3   3  ARG3       -0.0865
     23  CZ        43.2430   22.5020    5.2480 C.cat   3  ARG3        0.5346
     24  NH1       44.4810   22.9610    5.4570 N.pl3   3  ARG3        0.1354
     25  NH2       43.0090   21.1870    5.3110 N.pl3   3  ARG3        0.1354
     26  O         44.6660   25.8160    0.4770 O.2     4  LEU4       -0.2733
     27  C         44.3050   26.3420    1.5170 C.2     4  LEU4        0.2435
     28  CA        43.0000   26.2170    1.9040 C.3     4  LEU4        0.1084
     29  CB        41.8930   25.6130    1.0320 C.3     4  LEU4        0.1045
     30  N         40.8000   24.9630    1.7660 N.am    4  LEU4       -0.2052
     31  CG        41.3510   26.6720    0.0800 C.3     4  LEU4        0.0222
     32  CD        40.0900   26.5540   -0.7560 C.3     4  LEU4        0.0017
     33  CE2       39.7940   27.8570   -1.5030 C.3     4  LEU4        0.0001
     34  CE1       40.2230   25.4610   -1.8060 C.3     4  LEU4        0.0001
     35  N         45.2000   27.0390    2.2590 N.am    5  PHE5       -0.1973
     36  CA        45.6570   28.3990    1.8810 C.3     5  PHE5        0.1787
     37  C         47.0830   28.7490    2.2160 C.2     5  PHE5        0.2809
     38  O         47.7310   29.3610    1.3740 O.2     5  PHE5       -0.2698
     39  CB        44.7930   29.5840    2.3310 C.3     5  PHE5        0.0575
     40  CG        43.6750   30.0750    1.4790 C.ar    5  PHE5       -0.0200
     41  CD1       42.3440   29.9140    1.8760 C.ar    5  PHE5       -0.0042
     42  CD2       43.9100   30.6720    0.2400 C.ar    5  PHE5       -0.0042
     43  CE1       41.2820   30.3420    1.0620 C.ar    5  PHE5       -0.0003
     44  CE2       42.8400   31.1000   -0.5520 C.ar    5  PHE5       -0.0003
     45  CZ        41.5090   30.9430   -0.1640 C.ar    5  PHE5       -0.0000
     46  N         47.5600   28.4240    3.4340 N.am    6  NH26       -0.0863
@<TRIPOS>BOND
     1    14    12    1
     2    13    12    1
     3    12    11    2
     4    11    10    1
     5     2     1    2
     6    10     9    1
     7     9     8    1
     8     1     3    1
     9     1     4   am
    10    34    32    1
    11     8     5    1
    12     4     5    1
    13    33    32    1
    14     5     6    1
    15    32    31    1
    16    44    45   ar
    17    44    42   ar
    18     7     6    2
    19    45    43   ar
    20    31    29    1
    21     6    15   am
    22    42    40   ar
    23    26    27    2
    24    18    17    2
    25    29    30    1
    26    29    28    1
    27    43    41   ar
    28    15    16    1
    29    38    37    2
    30    17    30   am
    31    17    16    1
    32    40    41   ar
    33    40    39    1
    34    27    28    1
    35    27    35   am
    36    36    37    1
    37    36    35    1
    38    36    39    1
    39    16    19    1
    40    37    46   am
    41    19    20    1
    42    20    21    1
    43    22    23    2
    44    22    21    1
    45    23    25    1
    46    23    24    1
