@<TRIPOS>MOLECULE
2wfz_GD8_A_1.pdb
 10 9 0 0 0
SMALL
GASTEIGER

@<TRIPOS>ATOM
      1  C7         5.4920   68.5410   62.9920 C.3   2539  GD82539     0.0024
      2  C4         4.5250   67.5290   63.6100 C.3   2539  GD82539     0.0254
      3  C6         5.1850   66.8760   64.8200 C.3   2539  GD82539     0.0024
      4  C5         3.2890   68.2670   64.1000 C.3   2539  GD82539     0.0024
      5  C2         4.1350   66.4680   62.5260 C.3   2539  GD82539     0.1212
      6  C3         3.9610   67.2180   61.1760 C.3   2539  GD82539     0.0325
      7  O2         5.1160   65.3800   62.4950 O.3   2539  GD82539    -0.3199
      8  P          5.1870   63.9400   61.6440 P.3   2539  GD82539     0.2205
      9  C1         5.4540   62.7010   62.9180 C.3   2539  GD82539     0.0904
     10  O1         3.9600   63.6090   60.8570 O.3   2539  GD82539    -0.1774
@<TRIPOS>BOND
     1    10     8    1
     2     6     5    1
     3     8     7    1
     4     8     9    1
     5     7     5    1
     6     5     2    1
     7     1     2    1
     8     2     4    1
     9     2     3    1
