@<TRIPOS>MOLECULE
2wg1_FP1_A_1.pdb
 10 10 0 0 0
SMALL
GASTEIGER

@<TRIPOS>ATOM
      1  O1         7.6150   69.8120   65.0660 O.3   2540  FP12540    -0.1001
      2  N2         6.3220   69.5850   65.4180 N.4   2540  FP12540    -0.0456
      3  C6         5.5450   69.2710   64.5810 C.3   2540  FP12540     0.1488
      4  C5         4.7300   68.9420   63.7120 C.3   2540  FP12540     0.1153
      5  C4         5.1630   68.8320   62.3970 C.2   2540  FP12540    -0.0052
      6  C3         4.2480   68.4460   61.4140 C.2   2540  FP12540    -0.0016
      7  C2         2.9160   68.1870   61.7470 C.2   2540  FP12540     0.0155
      8  C1         2.4900   68.2980   63.0710 C.2   2540  FP12540     0.0616
      9  N1         3.3950   68.6800   64.0740 N.pl3 2540  FP12540    -0.3012
     10  C7         2.9470   68.7750   65.4940 C.3   2540  FP12540     0.1125
@<TRIPOS>BOND
     1     6     7    1
     2     6     5    2
     3     7     8    2
     4     5     4    1
     5     8     9    1
     6     4     9    1
     7     4     3    1
     8     9    10    1
     9     3     2    1
    10     1     2    1
