@<TRIPOS>MOLECULE
2wg2_GD8_A_1.pdb
 10 9 0 0 0
SMALL
GASTEIGER

@<TRIPOS>ATOM
      1  C7         5.5080   68.7000   63.0140 C.3   2540  GD82540     0.0024
      2  C4         4.5390   67.6900   63.6300 C.3   2540  GD82540     0.0254
      3  C6         5.2140   66.9670   64.7930 C.3   2540  GD82540     0.0024
      4  C5         3.3070   68.3920   64.1740 C.3   2540  GD82540     0.0024
      5  C2         4.1180   66.6860   62.5390 C.3   2540  GD82540     0.1212
      6  C3         3.8980   67.3910   61.1780 C.3   2540  GD82540     0.0325
      7  O2         5.0000   65.2840   62.4360 O.3   2540  GD82540    -0.3199
      8  P          5.2030   63.8830   61.6330 P.3   2540  GD82540     0.2205
      9  C1         5.4700   62.6600   62.9210 C.3   2540  GD82540     0.0904
     10  O1         3.9750   63.5750   60.8410 O.3   2540  GD82540    -0.1774
@<TRIPOS>BOND
     1    10     8    1
     2     6     5    1
     3     8     7    1
     4     8     9    1
     5     7     5    1
     6     5     2    1
     7     1     2    1
     8     2     4    1
     9     2     3    1
