@<TRIPOS>MOLECULE
2wg9_OCA_A_1.pdb
 10 9 0 0 0
SMALL
GASTEIGER

@<TRIPOS>ATOM
      1  C1        -3.8870   43.5770    0.4390 C.2   301  OCA301      0.3649
      2  C2        -2.4520   44.0450    0.6930 C.3   301  OCA301      0.1141
      3  C3        -1.5830   42.9220    1.2550 C.3   301  OCA301      0.0118
      4  C4        -1.8960   42.6110    2.7210 C.3   301  OCA301      0.0006
      5  C5        -1.5870   43.7900    3.6580 C.3   301  OCA301      0.0000
      6  C6        -0.1320   43.7710    4.1220 C.3   301  OCA301      0.0000
      7  C7         0.0100   44.3970    5.5100 C.3   301  OCA301      0.0000
      8  C8         0.7270   45.7490    5.4240 C.3   301  OCA301      0.0000
      9  O1        -4.7190   43.7590    1.3500 O.co2 301  OCA301     -0.2457
     10  O2        -4.1210   43.0550   -0.6690 O.co2 301  OCA301     -0.2457
@<TRIPOS>BOND
     1    10     1   ar
     2     1     2    1
     3     1     9   ar
     4     2     3    1
     5     3     4    1
     6     4     5    1
     7     5     6    1
     8     6     7    1
     9     8     7    1
