@<TRIPOS>MOLECULE
2wgc_SIA_A_1.pdb
 21 21 0 0 0
SMALL
GASTEIGER

@<TRIPOS>ATOM
      1  C1        19.5580    8.7060   -5.0420 C.2   301  SIA301      0.4179
      2  C2        18.5810    8.3010   -6.1550 C.3   301  SIA301      0.3155
      3  C3        17.3710    7.5700   -5.5770 C.3   301  SIA301      0.1056
      4  C4        16.2810    8.4460   -5.0760 C.3   301  SIA301      0.1798
      5  C5        15.9910    9.5840   -6.0510 C.3   301  SIA301      0.1554
      6  C6        17.2930   10.3270   -6.3710 C.3   301  SIA301      0.1734
      7  C7        17.0800   11.5110   -7.3010 C.3   301  SIA301      0.2135
      8  C8        18.4120   12.1910   -7.6570 C.3   301  SIA301      0.2173
      9  C9        18.2850   13.0090   -8.9110 C.3   301  SIA301      0.2175
     10  C10       13.7910   10.8150   -6.0540 C.2   301  SIA301      0.2420
     11  C11       13.0780   11.7470   -5.0960 C.3   301  SIA301      0.0964
     12  N5        14.9880   10.5120   -5.6220 N.am  301  SIA301     -0.2020
     13  O1A       20.1640    9.8290   -5.2880 O.co2 301  SIA301     -0.2401
     14  O1B       19.8190    8.0650   -4.0480 O.co2 301  SIA301     -0.2401
     15  O2        19.3140    7.4170   -6.9980 O.3   301  SIA301     -0.1830
     16  O4        15.1120    7.6310   -4.8620 O.3   301  SIA301     -0.2210
     17  O6        18.2150    9.4050   -6.9680 O.3   301  SIA301     -0.3220
     18  O7        16.4470   11.1260   -8.5270 O.3   301  SIA301     -0.2176
     19  O8        18.9000   12.8470   -6.5110 O.3   301  SIA301     -0.2175
     20  O9        18.5370   14.3970   -8.6330 O.3   301  SIA301     -0.2175
     21  O10       13.2160   10.4890   -7.1080 O.2   301  SIA301     -0.2733
@<TRIPOS>BOND
     1     9    20    1
     2     9     8    1
     3    18     7    1
     4     8     7    1
     5     8    19    1
     6     7     6    1
     7    21    10    2
     8    15     2    1
     9    17     6    1
    10    17     2    1
    11     6     5    1
    12     2     3    1
    13     2     1    1
    14    10    12   am
    15    10    11    1
    16     5    12    1
    17     5     4    1
    18     3     4    1
    19    13     1   ar
    20     4    16    1
    21     1    14   ar
