@<TRIPOS>MOLECULE
2wge_TLM_A_1.pdb
 14 14 0 0 0
SMALL
GASTEIGER

@<TRIPOS>ATOM
      1  S1        37.4440   -0.0810   -7.6090 S.3   1424  TLM1424    -0.0631
      2  C1        38.6740   -1.2100   -7.3970 C.2   1424  TLM1424     0.2209
      3  C2        39.5630   -0.8070   -6.3890 C.2   1424  TLM1424     0.0589
      4  C3        39.2710    0.4250   -5.7840 C.2   1424  TLM1424     0.1852
      5  C4        38.0010    1.0860   -6.2980 C.3   1424  TLM1424     0.1191
      6  C5        38.2250    2.4000   -6.7780 C.2   1424  TLM1424    -0.0133
      7  C6        37.2270    3.1920   -7.3450 C.2   1424  TLM1424    -0.0249
      8  C7        35.9090    2.7390   -7.4730 C.2   1424  TLM1424    -0.0045
      9  C8        34.9900    3.5740   -8.0090 C.2   1424  TLM1424    -0.0003
     10  O1        38.7490   -2.2470   -8.0310 O.2   1424  TLM1424    -0.2799
     11  C9        40.7760   -1.6260   -5.9750 C.3   1424  TLM1424     0.0380
     12  O2        40.0320    0.9540   -4.7900 O.2   1424  TLM1424    -0.2904
     13  C10       36.9770    0.9830   -5.1300 C.3   1424  TLM1424     0.0235
     14  C11       37.5340    4.6020   -7.8560 C.3   1424  TLM1424     0.0307
@<TRIPOS>BOND
     1    10     2    2
     2     9     8    2
     3    14     7    1
     4     1     2    1
     5     1     5    1
     6     8     7    1
     7     2     3    1
     8     7     6    2
     9     6     5    1
    10     3    11    1
    11     3     4    2
    12     5     4    1
    13     5    13    1
    14     4    12    1
