@<TRIPOS>MOLECULE
2wgf_PG4_B_1.pdb
 13 12 0 0 0
SMALL
GASTEIGER

@<TRIPOS>ATOM
      1  O1        19.3410   20.3830   -6.7820 O.3   1417  PG41417    -0.2176
      2  C1        19.4210   21.8090   -6.6070 C.3   1417  PG41417     0.2140
      3  C2        19.4200   22.4810   -7.9800 C.3   1417  PG41417     0.1777
      4  O2        18.9230   23.8190   -7.8690 O.3   1417  PG41417    -0.3483
      5  C3        17.5720   23.8980   -8.3350 C.3   1417  PG41417     0.1742
      6  C4        17.2000   25.3210   -8.7400 C.3   1417  PG41417     0.1742
      7  O3        18.2780   25.8760   -9.4880 O.3   1417  PG41417    -0.3484
      8  C5        18.3680   25.2450  -10.7670 C.3   1417  PG41417     0.1742
      9  C6        19.6480   25.6950  -11.4470 C.3   1417  PG41417     0.1742
     10  O4        20.2440   24.6120  -12.1510 O.3   1417  PG41417    -0.3483
     11  C7        21.3980   25.0690  -12.8580 C.3   1417  PG41417     0.1777
     12  C8        22.1120   23.8710  -13.4660 C.3   1417  PG41417     0.2140
     13  O5        23.2650   24.3480  -14.1640 O.3   1417  PG41417    -0.2176
@<TRIPOS>BOND
     1    13    12    1
     2    12    11    1
     3    11    10    1
     4    10     9    1
     5     9     8    1
     6     8     7    1
     7     7     6    1
     8     6     5    1
     9     5     4    1
    10     3     4    1
    11     3     2    1
    12     1     2    1
