@<TRIPOS>MOLECULE
2wgg_TLM_A_1.pdb
 14 14 0 0 0
SMALL
GASTEIGER

@<TRIPOS>ATOM
      1  S1         2.3310   66.0340   14.4740 S.3   1417  TLM1417    -0.0631
      2  C1         3.8620   65.3860   14.5700 C.2   1417  TLM1417     0.2209
      3  C2         4.7090   66.1580   15.3780 C.2   1417  TLM1417     0.0589
      4  C3         4.0900   67.2160   15.9950 C.2   1417  TLM1417     0.1852
      5  C4         2.6430   67.4060   15.6680 C.3   1417  TLM1417     0.1191
      6  C5         2.5250   68.7140   15.2970 C.2   1417  TLM1417    -0.0133
      7  C6         1.4760   69.2510   14.6290 C.2   1417  TLM1417    -0.0249
      8  C7         1.5750   70.6000   14.3060 C.2   1417  TLM1417    -0.0045
      9  C8         0.5960   71.2460   13.6020 C.2   1417  TLM1417    -0.0003
     10  O1         4.2340   64.3770   14.0540 O.2   1417  TLM1417    -0.2799
     11  C9         6.1730   65.8480   15.5960 C.3   1417  TLM1417     0.0380
     12  O2         4.7310   68.0810   16.7180 O.2   1417  TLM1417    -0.2904
     13  C10        1.8860   67.1930   16.9190 C.3   1417  TLM1417     0.0235
     14  C11        0.3200   68.3640   14.1570 C.3   1417  TLM1417     0.0307
@<TRIPOS>BOND
     1     9     8    2
     2    10     2    2
     3    14     7    1
     4     8     7    1
     5     1     2    1
     6     1     5    1
     7     2     3    1
     8     7     6    2
     9     6     5    1
    10     3    11    1
    11     3     4    2
    12     5     4    1
    13     5    13    1
    14     4    12    1
