@<TRIPOS>MOLECULE
2wgh_DTP_A_1.pdb
 30 32 0 0 0
SMALL
GASTEIGER

@<TRIPOS>ATOM
      1  PG        48.8490   -3.9240    3.6760 P.3   1745  DTP1745     0.5373
      2  O1G       49.8080   -5.0300    4.2260 O.3   1745  DTP1745    -0.1143
      3  O2G       47.8640   -3.5600    4.8940 O.3   1745  DTP1745    -0.1143
      4  O3G       48.0830   -4.2710    2.4430 O.2   1745  DTP1745    -0.2221
      5  PB        49.1670   -1.1840    3.6700 P.3   1745  DTP1745     0.2277
      6  O1B       49.9280   -0.2420    2.7030 O.2   1745  DTP1745    -0.5168
      7  O2B       47.7320   -1.2470    3.3420 O.3   1745  DTP1745    -0.4368
      8  O3B       49.8310   -2.6300    3.5020 O.3   1745  DTP1745    -0.2258
      9  PA        48.2620   -0.2720    6.1430 P.3   1745  DTP1745     0.2189
     10  O1A       46.9910   -1.1560    5.7790 O.2   1745  DTP1745    -0.5170
     11  O2A       47.9770    1.1810    6.1580 O.3   1745  DTP1745    -0.4371
     12  O3A       49.4540   -0.6740    5.0770 O.3   1745  DTP1745    -0.2700
     13  O5'       48.8060   -0.7210    7.6010 O.3   1745  DTP1745    -0.3112
     14  C5'       48.9550   -2.0850    7.8030 C.3   1745  DTP1745     0.1813
     15  C4'       49.5540   -2.3200    9.2300 C.3   1745  DTP1745     0.1795
     16  O4'       50.8720   -1.7750    9.2190 O.3   1745  DTP1745    -0.3155
     17  C3'       48.7430   -1.5080   10.2840 C.3   1745  DTP1745     0.1883
     18  O3'       48.7780   -2.0750   11.5930 O.3   1745  DTP1745    -0.2202
     19  C2'       49.4590   -0.1740   10.3360 C.3   1745  DTP1745     0.1151
     20  C1'       50.8890   -0.5720   10.0380 C.3   1745  DTP1745     0.2873
     21  N9        51.6550    0.4610    9.3200 N.pl3 1745  DTP1745    -0.1460
     22  C8        51.4320    0.8070    8.0630 C.3   1745  DTP1745     0.3377
     23  N7        52.3280    1.7440    7.7290 N.2   1745  DTP1745    -0.2095
     24  C5        53.1220    1.9930    8.7760 C.2   1745  DTP1745     0.2526
     25  C6        54.2000    2.8550    8.9780 C.2   1745  DTP1745     0.4393
     26  N6        54.6440    3.6830    7.9860 N.pl3 1745  DTP1745     0.2180
     27  N1        54.7840    2.8680   10.1960 N.2   1745  DTP1745     0.0021
     28  C2        54.3570    2.0450   11.1420 C.3   1745  DTP1745     0.5254
     29  N3        53.3470    1.2160   10.9320 N.2   1745  DTP1745    -0.0055
     30  C4        52.7040    1.1680    9.7740 C.2   1745  DTP1745     0.3518
@<TRIPOS>BOND
     1     4     1    2
     2     6     5    2
     3     7     5    1
     4     8     5    1
     5     8     1    1
     6     5    12    1
     7     1     2    1
     8     1     3    1
     9    12     9    1
    10    10     9    2
    11     9    11    1
    12     9    13    1
    13    13    14    1
    14    23    22    1
    15    23    24    2
    16    14    15    1
    17    26    25    1
    18    22    21    1
    19    24    25    1
    20    24    30    1
    21    25    27    2
    22    16    15    1
    23    16    20    1
    24    15    17    1
    25    21    30    1
    26    21    20    1
    27    30    29    2
    28    20    19    1
    29    27    28    1
    30    17    19    1
    31    17    18    1
    32    29    28    1
