@<TRIPOS>MOLECULE
2wgi_PNM_A_1.pdb
 23 24 0 0 0
SMALL
GASTEIGER

@<TRIPOS>ATOM
      1  O8        -0.5780  -12.4150   61.6870 O.3   700  PNM700     -0.2184
      2  C7         0.0270  -12.6080   60.5790 C.3   700  PNM700      0.2059
      3  N4        -1.0130  -10.8380   58.9040 N.3   700  PNM700     -0.1961
      4  C3        -2.1510  -10.0590   59.3270 C.3   700  PNM700      0.1857
      5  C11       -1.8360   -8.5900   59.4130 C.2   700  PNM700      0.3811
      6  O13       -2.6710   -7.8400   59.9680 O.co2 700  PNM700     -0.2441
      7  O12       -0.7450   -8.1840   58.9480 O.co2 700  PNM700     -0.2441
      8  C2        -3.2830  -10.4560   58.3720 C.3   700  PNM700      0.0658
      9  C10       -4.6540  -10.2490   59.0280 C.3   700  PNM700      0.0129
     10  C9        -3.1930   -9.7000   57.0430 C.3   700  PNM700      0.0129
     11  S1        -3.0390  -12.1990   58.0590 S.3   700  PNM700     -0.1216
     12  C5        -1.3230  -12.1980   58.5340 C.3   700  PNM700      0.1429
     13  C6        -0.9990  -13.1590   59.7080 C.3   700  PNM700      0.1542
     14  N14       -2.2400  -13.4990   60.4350 N.am  700  PNM700     -0.2018
     15  C15       -2.8580  -14.6800   60.3250 C.2   700  PNM700      0.2459
     16  O16       -2.5880  -15.5050   59.4570 O.2   700  PNM700     -0.2730
     17  C17       -3.9610  -14.9700   61.3220 C.3   700  PNM700      0.1131
     18  C18       -5.2640  -14.4050   60.7880 C.ar  700  PNM700     -0.0130
     19  C19       -5.6680  -14.6660   59.4720 C.ar  700  PNM700     -0.0038
     20  C20       -6.8640  -14.1300   58.9820 C.ar  700  PNM700     -0.0003
     21  C21       -7.6640  -13.3360   59.8100 C.ar  700  PNM700     -0.0000
     22  C22       -7.2650  -13.0710   61.1230 C.ar  700  PNM700     -0.0003
     23  C23       -6.0670  -13.6060   61.6090 C.ar  700  PNM700     -0.0038
@<TRIPOS>BOND
     1    10     8    1
     2    11     8    1
     3    11    12    1
     4     8     9    1
     5     8     4    1
     6    12     3    1
     7    12    13    1
     8     3     4    1
     9     7     5   ar
    10    20    19   ar
    11    20    21   ar
    12     4     5    1
    13     5     6   ar
    14    16    15    2
    15    19    18   ar
    16    13    14    1
    17    13     2    1
    18    21    22   ar
    19    15    14   am
    20    15    17    1
    21     2     1    1
    22    18    17    1
    23    18    23   ar
    24    22    23   ar
