@<TRIPOS>MOLECULE
2wgj_VGH_A_1.pdb
 30 33 0 0 0
SMALL
GASTEIGER

@<TRIPOS>ATOM
      1 CL         18.3190   84.5690    3.5460 Cl    2346  VGH2346    -0.0824
      2  C13       18.1880   83.5860    4.9680 C.ar  2346  VGH2346     0.0580
      3  C3        17.7190   82.2880    4.7140 C.ar  2346  VGH2346     0.0135
      4  C2        17.5350   81.3810    5.7410 C.ar  2346  VGH2346     0.0314
      5  C12       17.8350   81.7940    7.0210 C.ar  2346  VGH2346     0.1505
      6  F         17.6610   80.9190    8.0020 F     2346  VGH2346    -0.2033
      7  C17       18.5060   84.0320    6.2790 C.ar  2346  VGH2346     0.0405
      8  C18       18.3160   83.0790    7.3080 C.ar  2346  VGH2346     0.0852
      9 CL2        18.6180   83.3970    8.9860 Cl    2346  VGH2346    -0.0801
     10  C21       19.0330   85.4490    6.5390 C.3   2346  VGH2346     0.1901
     11  C1        18.1170   86.2490    7.4610 C.3   2346  VGH2346     0.0524
     12  O27       20.3420   85.4420    7.1510 O.3   2346  VGH2346    -0.4718
     13  C15       21.5270   85.1380    6.5080 C.ar  2346  VGH2346     0.1734
     14  C4        21.7440   84.7620    5.1640 C.ar  2346  VGH2346     0.0416
     15  C19       22.6660   85.2200    7.3240 C.ar  2346  VGH2346     0.2039
     16  N22       22.5410   85.5760    8.6720 N.pl3 2346  VGH2346    -0.1039
     17  N23       23.9230   84.9750    6.8780 N.ar  2346  VGH2346    -0.2234
     18  C5        24.0840   84.6250    5.5840 C.ar  2346  VGH2346     0.1007
     19  C14       23.0440   84.5010    4.6710 C.ar  2346  VGH2346     0.0253
     20  C16       23.3350   84.0870    3.3020 C.ar  2346  VGH2346     0.0412
     21  C6        22.5200   83.6280    2.2370 C.ar  2346  VGH2346     0.1217
     22  C7        24.6060   84.0070    2.7650 C.ar  2346  VGH2346     0.0966
     23  N26       24.4970   83.5610    1.4840 N.ar  2346  VGH2346    -0.2512
     24  N24       23.2130   83.3190    1.1370 N.ar  2346  VGH2346    -0.1677
     25  C20       25.5950   83.3510    0.5360 C.3   2346  VGH2346     0.1081
     26  C8        26.0300   81.8930    0.2920 C.3   2346  VGH2346     0.0432
     27  C10       25.5280   81.2150   -0.9840 C.3   2346  VGH2346     0.0907
     28  N25       25.5020   82.1510   -2.1590 N.3   2346  VGH2346    -0.2179
     29  C11       24.8400   83.4750   -1.9280 C.3   2346  VGH2346     0.0907
     30  C9        25.5000   84.1910   -0.7510 C.3   2346  VGH2346     0.0432
@<TRIPOS>BOND
     1    28    29    1
     2    28    27    1
     3    29    30    1
     4    27    26    1
     5    30    25    1
     6    26    25    1
     7    25    23    1
     8    24    23   ar
     9    24    21   ar
    10    23    22   ar
    11    21    20   ar
    12    22    20   ar
    13    20    19    1
    14     1     2    1
    15    19    14   ar
    16    19    18   ar
    17     3     2   ar
    18     3     4   ar
    19     2     7   ar
    20    14    13   ar
    21    18    17   ar
    22     4     5   ar
    23     7    10    1
    24     7     8   ar
    25    13    12    1
    26    13    15   ar
    27    10    12    1
    28    10    11    1
    29    17    15   ar
    30     5     8   ar
    31     5     6    1
    32     8     9    1
    33    15    16    1
