@<TRIPOS>MOLECULE
2wgs_1AZ_A_1.pdb
 28 31 0 0 0
SMALL
GASTEIGER

@<TRIPOS>ATOM
      1  O1       -35.0140  -39.2490  -25.3770 O.2   501  1AZ501     -0.2721
      2  C5       -35.5790  -38.5740  -24.4770 C.2   501  1AZ501      0.2594
      3  N1       -36.8990  -38.7310  -24.2350 N.am  501  1AZ501     -0.2077
      4  C4       -37.6990  -39.6800  -25.0310 C.3   501  1AZ501      0.1291
      5  C3       -37.7850  -41.0490  -24.4040 C.ar  501  1AZ501     -0.0010
      6  C2       -36.9830  -42.0680  -24.9020 C.ar  501  1AZ501      0.0096
      7  C1       -37.0760  -43.3320  -24.3240 C.ar  501  1AZ501      0.0679
      8 CL1       -36.0650  -44.7010  -24.9190 Cl    501  1AZ501     -0.0814
      9  C16      -38.6780  -41.2880  -23.3570 C.ar  501  1AZ501     -0.0017
     10  C17      -38.7720  -42.5540  -22.7770 C.ar  501  1AZ501      0.0120
     11  C18      -37.9570  -43.5620  -23.2790 C.ar  501  1AZ501      0.0682
     12 CL2       -38.0120  -45.2100  -22.6010 Cl    501  1AZ501     -0.0814
     13  C6       -34.8500  -37.6450  -23.7120 C.3   501  1AZ501      0.2212
     14  N2       -33.5480  -37.2640  -23.6970 N.pl3 501  1AZ501     -0.2566
     15  C7       -32.4570  -37.7870  -24.5730 C.3   501  1AZ501      0.1167
     16  C8       -33.3990  -36.3240  -22.7510 C.cat 501  1AZ501      0.2434
     17  N4       -34.5940  -36.1100  -22.1610 N.2   501  1AZ501     -0.3599
     18  C13      -35.5180  -36.9090  -22.7260 C.2   501  1AZ501      0.1973
     19  N5       -36.8370  -37.0760  -22.4950 N.am  501  1AZ501     -0.2178
     20  C14      -37.5390  -36.3140  -21.4590 C.3   501  1AZ501      0.1239
     21  C15      -37.5350  -37.9560  -23.2250 C.2   501  1AZ501      0.3187
     22  O3       -38.7560  -38.0950  -22.9990 O.2   501  1AZ501     -0.2515
     23  N3       -32.1400  -35.6370  -22.3770 N.pl3 501  1AZ501     -0.2664
     24  C9       -31.7050  -34.6850  -23.3950 C.3   501  1AZ501      0.1264
     25  C10      -30.2640  -34.3800  -22.9790 C.3   501  1AZ501      0.1637
     26  O2       -30.2340  -33.8070  -21.6540 O.3   501  1AZ501     -0.3501
     27  C11      -30.8260  -34.6260  -20.6420 C.3   501  1AZ501      0.1637
     28  C12      -32.2480  -35.0000  -21.0630 C.3   501  1AZ501      0.1264
@<TRIPOS>BOND
     1     1     2    2
     2     4     5    1
     3     4     3    1
     4     8     7    1
     5     6     5   ar
     6     6     7   ar
     7    15    14    1
     8     2     3   am
     9     2    13    1
    10     5     9   ar
    11     7    11   ar
    12     3    21   am
    13    13    14    1
    14    13    18    1
    15    14    16    1
    16    24    25    1
    17    24    23    1
    18     9    10   ar
    19    11    10   ar
    20    11    12    1
    21    21    22    2
    22    21    19   am
    23    25    26    1
    24    16    23    1
    25    16    17    2
    26    18    19    1
    27    18    17    2
    28    19    20    1
    29    23    28    1
    30    26    27    1
    31    28    27    1
