@<TRIPOS>MOLECULE
2wgt_18D_A_1.pdb
 22 22 0 0 0
SMALL
GASTEIGER

@<TRIPOS>ATOM
      1  C1        47.0900   53.5280   67.0540 C.2   1366  18D1366     0.4179
      2  C2        48.0220   53.0170   65.9690 C.3   1366  18D1366     0.3155
      3  C3        47.9860   51.4870   65.8360 C.3   1366  18D1366     0.1056
      4  C4        46.7530   50.9740   65.0830 C.3   1366  18D1366     0.1798
      5  C5        46.5900   51.7360   63.7700 C.3   1366  18D1366     0.1554
      6  C6        46.4490   53.2160   64.1160 C.3   1366  18D1366     0.1734
      7  C7        46.1100   54.1150   62.9240 C.3   1366  18D1366     0.2135
      8  C8        46.1660   55.5930   63.3280 C.3   1366  18D1366     0.2173
      9  C9        45.5760   56.5000   62.2550 C.3   1366  18D1366     0.2175
     10  C10       45.3940   50.6100   61.9500 C.2   1366  18D1366     0.2415
     11  C11       44.0610   50.2290   61.3420 C.3   1366  18D1366     0.0868
     12  N5        45.3620   51.3020   63.0970 N.am  1366  18D1366    -0.2020
     13  O1        46.4790   54.6010   66.8690 O.co2 1366  18D1366    -0.2401
     14  O3        46.9550   52.8770   68.1050 O.co2 1366  18D1366    -0.2401
     15  O2        49.3510   53.3900   66.3300 O.3   1366  18D1366    -0.1830
     16  O4        46.8900   49.5660   64.8490 O.3   1366  18D1366    -0.2210
     17  O6        47.6810   53.6430   64.7180 O.3   1366  18D1366    -0.3220
     18  O7        47.0160   53.8720   61.8440 O.3   1366  18D1366    -0.2176
     19  O8        45.4470   55.8050   64.5480 O.3   1366  18D1366    -0.2175
     20  O9        44.2010   56.1590   62.0410 O.3   1366  18D1366    -0.2175
     21  C22       44.1700   48.9880   60.4760 C.3   1366  18D1366     0.0101
     22  O10       46.4430   50.2970   61.3980 O.2   1366  18D1366    -0.2733
@<TRIPOS>BOND
     1    21    11    1
     2    11    10    1
     3    22    10    2
     4    18     7    1
     5    10    12   am
     6    20     9    1
     7     9     8    1
     8     7     8    1
     9     7     6    1
    10    12     5    1
    11     8    19    1
    12     5     6    1
    13     5     4    1
    14     6    17    1
    15    17     2    1
    16    16     4    1
    17     4     3    1
    18     3     2    1
    19     2    15    1
    20     2     1    1
    21    13     1   ar
    22     1    14   ar
