@<TRIPOS>MOLECULE
2wgu_42D_A_1.pdb
 22 22 0 0 0
SMALL
GASTEIGER

@<TRIPOS>ATOM
      1  O3        46.5710   54.6680   66.2480 O.co2   1  42D1       -0.2401
      2  C1        47.1590   53.6040   66.4900 C.2     1  42D1        0.4179
      3  O1        47.0520   53.0340   67.5940 O.co2   1  42D1       -0.2401
      4  C2        48.0260   53.0050   65.3970 C.3     1  42D1        0.3155
      5  O2        49.3870   53.3350   65.6780 O.3     1  42D1       -0.1830
      6  C3        47.9140   51.4780   65.3620 C.3     1  42D1        0.1056
      7  C4        46.6950   50.9440   64.6040 C.3     1  42D1        0.1799
      8  O4        46.9220   49.5470   64.4180 O.3     1  42D1       -0.2210
      9  O6        47.6680   53.5630   64.1190 O.3     1  42D1       -0.3220
     10  C6        46.3860   53.1530   63.6000 C.3     1  42D1        0.1735
     11  C7        46.0180   54.0790   62.4380 C.3     1  42D1        0.2135
     12  C8        46.0780   55.5500   62.8700 C.3     1  42D1        0.2173
     13  C9        45.5370   56.4980   61.8040 C.3     1  42D1        0.2175
     14  O9        44.1370   56.2530   61.6270 O.3     1  42D1       -0.2175
     15  O8        45.3190   55.7560   64.0680 O.3     1  42D1       -0.2175
     16  O7        46.9280   53.8590   61.3550 O.3     1  42D1       -0.2176
     17  C5        46.4960   51.6640   63.2620 C.3     1  42D1        0.1588
     18  N5        45.2730   51.1660   62.5970 N.am    1  42D1       -0.1653
     19  C10       45.3160   50.3080   61.5530 C.2     1  42D1        0.4213
     20  O10       46.3610   49.8910   61.0740 O.2     1  42D1       -0.2246
     21  O11       44.1010   49.8280   60.9200 O.3     1  42D1       -0.4294
     22  C22       44.1380   48.7200   60.0120 C.3     1  42D1        0.2574
@<TRIPOS>BOND
     1    22    21    1
     2    21    19    1
     3    20    19    2
     4    16    11    1
     5    19    18   am
     6    14    13    1
     7    13    12    1
     8    11    12    1
     9    11    10    1
    10    18    17    1
    11    12    15    1
    12    17    10    1
    13    17     7    1
    14    10     9    1
    15     9     4    1
    16     8     7    1
    17     7     6    1
    18     6     4    1
    19     4     5    1
    20     4     2    1
    21     1     2   ar
    22     2     3   ar
