@<TRIPOS>MOLECULE
2wgy_HEM_A_1.pdb
 43 50 0 0 0
SMALL
GASTEIGER

@<TRIPOS>ATOM
      1 FE         60.1840   20.2470    8.4360 Fe    450  HEM450      0.0000
      2  CHA       62.0290   19.9790   11.3080 C.2   450  HEM450      0.0000
      3  CHB       59.0780   17.0440    8.8650 C.2   450  HEM450      0.0000
      4  CHC       58.3270   20.5110    5.5470 C.2   450  HEM450      0.0000
      5  CHD       61.6530   23.3070    7.7230 C.2   450  HEM450      0.0000
      6  NA        60.4970   18.7990    9.8190 N.2   450  HEM450      0.0000
      7  C1A       61.2550   18.9040   10.9720 C.2   450  HEM450      0.0000
      8  C2A       61.1320   17.6800   11.7390 C.2   450  HEM450      0.0000
      9  C3A       60.3280   16.8600   11.0510 C.2   450  HEM450      0.0000
     10  C4A       59.9050   17.5480    9.8420 C.2   450  HEM450      0.0000
     11  CMA       59.8880   15.4320   11.4440 C.3   450  HEM450      0.0000
     12  CAA       61.8390   17.4180   13.0970 C.3   450  HEM450      0.0000
     13  CBA       63.1460   16.6580   12.8970 C.3   450  HEM450      0.0000
     14  CGA       63.4690   15.7330   14.0520 C.2   450  HEM450      0.0000
     15  O1A       64.6690   15.6640   14.4220 O.co2 450  HEM450      0.0000
     16  O2A       62.5790   15.0280   14.5820 O.co2 450  HEM450      0.0000
     17  NB        58.9750   18.9990    7.3890 N.ar  450  HEM450      0.0000
     18  C1B       58.6280   17.7180    7.7570 C.ar  450  HEM450      0.0000
     19  C2B       57.6690   17.2190    6.7870 C.ar  450  HEM450      0.0000
     20  C3B       57.4460   18.1820    5.8850 C.ar  450  HEM450      0.0000
     21  C4B       58.2740   19.3120    6.2330 C.ar  450  HEM450      0.0000
     22  CMB       57.0300   15.8090    6.8430 C.3   450  HEM450      0.0000
     23  CAB       56.5480   18.1580    4.6350 C.2   450  HEM450      0.0000
     24  CBB       55.3570   17.5490    4.5780 C.2   450  HEM450      0.0000
     25  NC        60.0710   21.6330    6.9030 N.2   450  HEM450      0.0000
     26  C1C       59.1540   21.5760    5.8610 C.2   450  HEM450      0.0000
     27  C2C       59.1740   22.8390    5.1650 C.2   450  HEM450      0.0000
     28  C3C       60.1100   23.6170    5.7510 C.2   450  HEM450      0.0000
     29  C4C       60.6660   22.8730    6.8640 C.2   450  HEM450      0.0000
     30  CMC       58.2760   23.1260    3.9470 C.3   450  HEM450      0.0000
     31  CAC       60.5410   25.0650    5.3940 C.2   450  HEM450      0.0000
     32  CBC       59.6650   25.9730    4.9230 C.2   450  HEM450      0.0000
     33  ND        61.6020   21.4350    9.3460 N.ar  450  HEM450      0.0000
     34  C1D       62.0700   22.6570    8.8630 C.ar  450  HEM450      0.0000
     35  C2D       63.0900   23.1430    9.7550 C.ar  450  HEM450      0.0000
     36  C3D       63.1920   22.1250   10.8570 C.ar  450  HEM450      0.0000
     37  C4D       62.2460   21.0980   10.5340 C.ar  450  HEM450      0.0000
     38  CMD       63.8710   24.4550    9.5970 C.3   450  HEM450      0.0000
     39  CAD       64.1480   22.1690   12.0600 C.3   450  HEM450      0.0000
     40  CBD       63.4180   22.6860   13.2860 C.3   450  HEM450      0.0000
     41  CGD       64.2630   22.5070   14.5280 C.2   450  HEM450      0.0000
     42  O1D       64.0380   23.2470   15.5240 O.co2 450  HEM450      0.0000
     43  O2D       65.1500   21.6150   14.5440 O.co2 450  HEM450      0.0000
@<TRIPOS>BOND
     1    30    27    1
     2    24    23    2
     3    23    20    1
     4    32    31    2
     5    27    28    2
     6    27    26    1
     7    31    28    1
     8     4    26    2
     9     4    21    1
    10    28    29    1
    11    26    25    1
    12    20    21   ar
    13    20    19   ar
    14    21    17   ar
    15    19    22    1
    16    19    18   ar
    17    29    25    2
    18    29     5    1
    19    25     1    1
    20    17    18   ar
    21    17     1    1
    22     5    34    2
    23    18     3    1
    24     1    33    1
    25     1     6    1
    26    34    33   ar
    27    34    35   ar
    28     3    10    2
    29    33    37   ar
    30    38    35    1
    31    35    36   ar
    32     6    10    1
    33     6     7    2
    34    10     9    1
    35    37    36   ar
    36    37     2    2
    37    36    39    1
    38     7     2    1
    39     7     8    1
    40     9    11    1
    41     9     8    2
    42     8    12    1
    43    39    40    1
    44    13    12    1
    45    13    14    1
    46    40    41    1
    47    14    15   ar
    48    14    16   ar
    49    41    43   ar
    50    41    42   ar
