@<TRIPOS>MOLECULE
2wgz_UDP_A_1.pdb
 25 26 0 0 0
SMALL
GASTEIGER

@<TRIPOS>ATOM
      1  N1         2.9180   12.6100   41.5550 N.am  1401  UDP1401    -0.1766
      2  C2         3.0340   13.4950   40.4900 C.1   1401  UDP1401     0.2845
      3  N3         2.7050   14.8280   40.6630 N.2   1401  UDP1401    -0.2452
      4  C4         2.2590   15.2900   41.8890 C.1   1401  UDP1401     0.2182
      5  C5         2.1500   14.4100   42.9620 C.2   1401  UDP1401     0.1242
      6  C6         2.5120   13.0760   42.7850 C.2   1401  UDP1401     0.0929
      7  O2         3.4280   13.1070   39.3840 O.2   1401  UDP1401    -0.1918
      8  O4         1.9730   16.4800   42.0320 O.2   1401  UDP1401    -0.2085
      9  C1'        3.2600   11.1720   41.3770 C.3   1401  UDP1401     0.2401
     10  C2'        4.7540   10.9930   41.1760 C.3   1401  UDP1401     0.2319
     11  O2'        4.9620    9.8770   40.3400 O.3   1401  UDP1401    -0.2157
     12  C3'        5.2460   10.7040   42.5720 C.3   1401  UDP1401     0.2158
     13  C4'        4.0880    9.8930   43.1490 C.3   1401  UDP1401     0.1799
     14  O4'        2.9230   10.4220   42.5350 O.3   1401  UDP1401    -0.3320
     15  O3'        6.4900   10.0360   42.5660 O.3   1401  UDP1401    -0.2175
     16  C5'        3.9370    9.9350   44.6710 C.3   1401  UDP1401     0.1813
     17  O5'        4.0800   11.2490   45.1700 O.3   1401  UDP1401    -0.3111
     18  PA         5.4310   11.6700   45.9370 P.3   1401  UDP1401     0.2231
     19  O1A        6.5880   10.9670   45.3520 O.2   1401  UDP1401    -0.5169
     20  O2A        5.6150   13.1450   45.9000 O.3   1401  UDP1401    -0.4370
     21  O3A        5.1860   11.1200   47.4290 O.3   1401  UDP1401    -0.2261
     22  PB         6.4130   10.8910   48.4450 P.3   1401  UDP1401     0.5373
     23  O1B        7.3050   12.0740   48.4270 O.3   1401  UDP1401    -0.1143
     24  O2B        7.1820    9.6920   48.0270 O.2   1401  UDP1401    -0.2221
     25  O3B        5.8570   10.7000   49.7990 O.3   1401  UDP1401    -0.1143
@<TRIPOS>BOND
     1     7     2    2
     2    11    10    1
     3     2     3    2
     4     2     1   am
     5     3     4    2
     6    10     9    1
     7    10    12    1
     8     9     1    1
     9     9    14    1
    10     1     6    1
    11     4     8    2
    12     4     5    1
    13    14    13    1
    14    15    12    1
    15    12    13    1
    16     6     5    2
    17    13    16    1
    18    16    17    1
    19    17    18    1
    20    19    18    2
    21    20    18    1
    22    18    21    1
    23    21    22    1
    24    24    22    2
    25    23    22    1
    26    22    25    1
