@<TRIPOS>MOLECULE
2wgz_147_A_1.pdb
 21 22 0 0 0
SMALL
GASTEIGER

@<TRIPOS>ATOM
      1  C1         8.7740    9.3080   54.7830 C.3   1204  1471204     0.3218
      2  C2         8.5700    9.3440   53.2560 C.3   1204  1471204     0.2542
      3  O2         9.1250   10.5410   52.7090 O.3   1204  1471204    -0.2135
      4  C3         7.0830    9.2640   52.8740 C.3   1204  1471204     0.2211
      5  O3         6.9810    9.0540   51.4670 O.3   1204  1471204    -0.2173
      6  C4         6.3610    8.1370   53.6360 C.3   1204  1471204     0.2145
      7  O4         6.8360    6.8570   53.1840 O.3   1204  1471204    -0.2176
      8  C5         6.6020    8.2980   55.1460 C.3   1204  1471204     0.1846
      9  C6         5.9220    7.2220   55.9970 C.3   1204  1471204     0.2142
     10  O6         6.2530    7.4320   57.3730 O.3   1204  1471204    -0.2176
     11  O5         8.0230    8.2310   55.3970 O.3   1204  1471204    -0.3157
     12  O1'       10.1590    9.0470   55.0660 O.3   1204  1471204    -0.4505
     13  C1'       10.6380    9.5460   56.2440 C.ar  1204  1471204     0.1415
     14  C2'        9.9570    9.3920   57.4580 C.ar  1204  1471204     0.0387
     15  C3'       10.4910    9.9160   58.6380 C.ar  1204  1471204     0.0272
     16  C4'       11.7150   10.5880   58.6130 C.ar  1204  1471204     0.1431
     17  C5'       12.3950   10.7320   57.4040 C.ar  1204  1471204     0.0272
     18  C6'       11.8600   10.2140   56.2270 C.ar  1204  1471204     0.0387
     19  N1'       12.2400   11.0900   59.7370 N.pl3 1204  1471204     0.0577
     20  O2'       11.9500   10.4940   60.9980 O.2   1204  1471204    -0.1261
     21  O3'       13.1050   12.2260   59.6890 O.2   1204  1471204    -0.1261
@<TRIPOS>BOND
     1     5     4    1
     2     3     2    1
     3     4     2    1
     4     4     6    1
     5     7     6    1
     6     2     1    1
     7     6     8    1
     8     1    12    1
     9     1    11    1
    10    12    13    1
    11     8    11    1
    12     8     9    1
    13     9    10    1
    14    18    13   ar
    15    18    17   ar
    16    13    14   ar
    17    17    16   ar
    18    14    15   ar
    19    16    15   ar
    20    16    19    1
    21    21    19    2
    22    19    20    2
