@<TRIPOS>MOLECULE
2wgz_NPO_B_1.pdb
 10 10 0 0 0
SMALL
GASTEIGER

@<TRIPOS>ATOM
      1  C1         3.7060    6.7010  -13.4240 C.ar  1205  NPO1205     0.1431
      2  C2         4.9130    6.0290  -13.2350 C.ar  1205  NPO1205     0.0274
      3  C3         5.3910    5.8160  -11.9420 C.ar  1205  NPO1205     0.0437
      4  C4         4.6770    6.2820  -10.8310 C.ar  1205  NPO1205     0.1958
      5  C5         3.4680    6.9500  -11.0250 C.ar  1205  NPO1205     0.0437
      6  C6         2.9880    7.1610  -12.3180 C.ar  1205  NPO1205     0.0274
      7  OH         5.1120    6.0830   -9.5530 O.3   1205  NPO1205    -0.2866
      8  N1         3.2430    6.9020  -14.6600 N.pl3 1205  NPO1205     0.0577
      9  O2         3.2840    5.8460  -15.6300 O.2   1205  NPO1205    -0.1261
     10  O3         2.7070    8.1690  -15.0250 O.2   1205  NPO1205    -0.1261
@<TRIPOS>BOND
     1     9     8    2
     2    10     8    2
     3     8     1    1
     4     1     2   ar
     5     1     6   ar
     6     2     3   ar
     7     6     5   ar
     8     3     4   ar
     9     5     4   ar
    10     4     7    1
