@<TRIPOS>MOLECULE
2wgz_GAL_B_1.pdb
 11 11 0 0 0
SMALL
GASTEIGER

@<TRIPOS>ATOM
      1  C1         6.5250    6.2520   -9.2990 C.3   1204  GAL1204     0.1777
      2  C2         6.7170    6.4220   -7.7790 C.3   1204  GAL1204     0.2141
      3  C3         8.2020    6.3130   -7.3730 C.3   1204  GAL1204     0.2173
      4  C4         8.8850    5.1050   -8.0300 C.3   1204  GAL1204     0.2142
      5  C5         8.6640    5.1360   -9.5500 C.3   1204  GAL1204     0.1810
      6  C6         9.3700    3.9850  -10.2740 C.3   1204  GAL1204     0.2141
      7  O2         6.1830    7.6840   -7.3520 O.3   1204  GAL1204    -0.2176
      8  O3         8.3000    6.1990   -5.9580 O.3   1204  GAL1204    -0.2175
      9  O4         8.3500    3.8890   -7.4830 O.3   1204  GAL1204    -0.2176
     10  O5         7.2330    5.0790   -9.7940 O.3   1204  GAL1204    -0.3481
     11  O6         8.8660    3.8750  -11.6090 O.3   1204  GAL1204    -0.2176
@<TRIPOS>BOND
     1    11     6    1
     2     6     5    1
     3    10     5    1
     4    10     1    1
     5     5     4    1
     6     1     2    1
     7     4     9    1
     8     4     3    1
     9     2     3    1
    10     2     7    1
    11     3     8    1
