@<TRIPOS>MOLECULE
2wh0_III_Q_1.pdb
 35 34 0 0 0
SMALL
GASTEIGER

@<TRIPOS>ATOM
      1  N         50.7700  -18.1560   28.2600 N.3   343  ARG343     -0.1231
      2  CA        50.6070  -19.5680   28.0720 C.3   343  ARG343      0.1694
      3  C         51.3730  -20.4120   29.0470 C.2   343  ARG343      0.2593
      4  O         51.0280  -21.5250   29.2660 O.2   343  ARG343     -0.2718
      5  CB        50.9180  -19.9800   26.6370 C.3   343  ARG343      0.0304
      6  N         52.3910  -19.8910   29.6830 N.am  344  SER344     -0.1938
      7  CA        52.9320  -20.6090   30.8350 C.3   344  SER344      0.2055
      8  C         52.1040  -20.4440   32.1010 C.2   344  SER344      0.2643
      9  O         51.4920  -19.4740   32.2760 O.2   344  SER344     -0.2714
     10  CB        54.3560  -20.2300   31.0920 C.3   344  SER344      0.2130
     11  OG        55.1650  -21.2420   30.6170 O.3   344  SER344     -0.2179
     12  N         52.0620  -21.4110   32.9650 N.am  345  LYS345     -0.1963
     13  CA        51.2500  -21.2540   34.1570 C.3   345  LYS345      0.1728
     14  C         51.8870  -20.4010   35.2670 C.2   345  LYS345      0.2617
     15  O         53.0290  -20.4900   35.5210 O.2   345  LYS345     -0.2715
     16  CB        50.8990  -22.5950   34.7050 C.3   345  LYS345      0.0311
     17  CG        49.9540  -23.3390   33.9720 C.3   345  LYS345      0.0038
     18  CD        50.0190  -24.7010   34.4830 C.3   345  LYS345      0.0206
     19  CE        48.9620  -25.5620   33.9490 C.3   345  LYS345      0.1093
     20  NZ        48.1880  -26.1770   35.0580 N.3   345  LYS345     -0.1314
     21  N         51.1120  -19.5590   35.9000 N.am  346  SER346     -0.1937
     22  CA        51.5930  -18.7570   36.9850 C.3   346  SER346      0.2027
     23  CB        51.8280  -17.3160   36.5270 C.3   346  SER346      0.1847
     24  OG        50.7080  -16.7250   35.9110 O.3   346  SER346     -0.2679
     25  C         50.6810  -18.8040   38.1960 C.2   346  SER346      0.2641
     26  O         49.5810  -19.2520   38.1280 O.2   346  SER346     -0.2714
     27  P         50.7770  -15.2330   35.5730 P.3   346  SER346      0.5327
     28  O1P       49.3520  -14.7180   35.2990 O.3   346  SER346     -0.1145
     29  O2P       51.6570  -15.0080   34.3960 O.2   346  SER346     -0.2224
     30  O3P       51.1540  -14.4110   36.7910 O.3   346  SER346     -0.1145
     31  N         51.1670  -18.3120   39.3090 N.am  347  ALA347     -0.1977
     32  CA        50.3720  -18.0700   40.5080 C.3   347  ALA347      0.1597
     33  C         49.6020  -16.7670   40.3460 C.2   347  ALA347      0.2287
     34  O         50.0340  -15.8750   39.6090 O.2   347  ALA347     -0.2864
     35  CB        51.2690  -18.0090   41.7410 C.3   347  ALA347      0.0319
@<TRIPOS>BOND
     1     5     2    1
     2     2     1    1
     3     2     3    1
     4     3     4    2
     5     3     6   am
     6     6     7    1
     7    11    10    1
     8     7    10    1
     9     7     8    1
    10     8     9    2
    11     8    12   am
    12    12    13    1
    13    19    18    1
    14    19    20    1
    15    17    18    1
    16    17    16    1
    17    13    16    1
    18    13    14    1
    19    29    27    2
    20    14    15    2
    21    14    21   am
    22    28    27    1
    23    27    24    1
    24    27    30    1
    25    21    22    1
    26    24    23    1
    27    23    22    1
    28    22    25    1
    29    26    25    2
    30    25    31   am
    31    31    32    1
    32    34    33    2
    33    33    32    1
    34    32    35    1
