@<TRIPOS>MOLECULE
2wh5_COA_E_1.pdb
 31 33 0 0 0
SMALL
GASTEIGER

@<TRIPOS>ATOM
      1  N1A       20.5130   64.8080   89.2780 N.2   1099  COA1099     0.0021
      2  C2A       19.5380   65.8140   88.9620 C.3   1099  COA1099     0.5254
      3  N3A       19.6100   66.5260   87.6760 N.2   1099  COA1099    -0.0055
      4  C4A       20.6400   66.2330   86.7700 C.2   1099  COA1099     0.3518
      5  C5A       21.5770   65.2530   87.0860 C.2   1099  COA1099     0.2526
      6  C6A       21.4960   64.5240   88.3830 C.2   1099  COA1099     0.4393
      7  N6A       22.4690   63.4560   88.5880 N.pl3 1099  COA1099     0.2180
      8  N7A       22.5070   65.1290   86.0240 N.2   1099  COA1099    -0.2095
      9  C8A       22.1270   66.0310   85.0600 C.3   1099  COA1099     0.3377
     10  N9A       20.9810   66.7450   85.5250 N.pl3 1099  COA1099    -0.1439
     11  C1B       20.1260   67.5960   84.6820 C.3   1099  COA1099     0.3185
     12  C2B       20.1070   69.0870   84.8010 C.3   1099  COA1099     0.2543
     13  O2B       19.1560   69.5690   85.7190 O.3   1099  COA1099    -0.2131
     14  C3B       19.9660   69.5750   83.3700 C.3   1099  COA1099     0.1928
     15  O3B       18.7890   70.2500   82.9800 O.3   1099  COA1099    -0.2673
     16  P3B       18.7360   71.8730   83.3080 P.3   1099  COA1099     0.5327
     17  O7A       20.2950   72.4140   83.3410 O.3   1099  COA1099    -0.1145
     18  O8A       17.9520   72.7460   82.1140 O.2   1099  COA1099    -0.2224
     19  O9A       18.0990   72.0890   84.6220 O.3   1099  COA1099    -0.1145
     20  C4B       20.3780   68.4020   82.4430 C.3   1099  COA1099     0.1795
     21  O4B       20.3460   67.1910   83.3000 O.3   1099  COA1099    -0.3136
     22  C5B       21.6740   68.5290   81.6070 C.3   1099  COA1099     0.1812
     23  O5B       22.0470   67.3560   80.8870 O.3   1099  COA1099    -0.3111
     24  P1A       21.8310   67.3380   79.2250 P.3   1099  COA1099     0.2231
     25  O1A       20.9790   65.9880   78.7900 O.3   1099  COA1099    -0.4370
     26  O2A       23.1580   67.2730   78.6150 O.2   1099  COA1099    -0.5169
     27  O3A       21.0300   68.7580   78.7570 O.3   1099  COA1099    -0.2261
     28  P2A       19.4150   68.9480   78.2910 P.3   1099  COA1099     0.5373
     29  O4A       18.3180   69.3160   79.5170 O.3   1099  COA1099    -0.1143
     30  O5A       19.4350   70.0500   77.3160 O.2   1099  COA1099    -0.2221
     31  O6A       18.9200   67.5290   77.5170 O.3   1099  COA1099    -0.1143
@<TRIPOS>BOND
     1    30    28    2
     2    31    28    1
     3    28    27    1
     4    28    29    1
     5    26    24    2
     6    27    24    1
     7    25    24    1
     8    24    23    1
     9    23    22    1
    10    22    20    1
    11    18    16    2
    12    20    21    1
    13    20    14    1
    14    15    16    1
    15    15    14    1
    16    21    11    1
    17    16    17    1
    18    16    19    1
    19    14    12    1
    20    11    12    1
    21    11    10    1
    22    12    13    1
    23     9    10    1
    24     9     8    1
    25    10     4    1
    26     8     5    2
    27     4     5    1
    28     4     3    2
    29     5     6    1
    30     3     2    1
    31     6     7    1
    32     6     1    2
    33     2     1    1
