@<TRIPOS>MOLECULE
2wh8_II2_A_1.pdb
 26 29 0 0 0
SMALL
GASTEIGER

@<TRIPOS>ATOM
      1  O1        -4.5490   11.1870    1.7910 O.2   460  II2460     -0.2691
      2  C7        -3.8680   12.1660    1.1840 C.2   460  II2460      0.2589
      3  C6        -4.3170   13.4800    0.5930 C.ar  460  II2460      0.0600
      4  C5        -5.4640   14.2120    0.4320 C.ar  460  II2460      0.0227
      5  C4        -5.2850   15.4740   -0.2090 C.ar  460  II2460      0.0892
      6  N1        -6.2550   16.3610   -0.5010 N.pl3 460  II2460     -0.1281
      7  C3        -4.0620   15.9340   -0.6680 C.ar  460  II2460      0.0182
      8  C2        -2.8720   15.2400   -0.4890 C.ar  460  II2460      0.0061
      9  C1        -3.0130   14.0390    0.1370 C.ar  460  II2460      0.0588
     10  N2        -2.5610   12.0120    1.0500 N.am  460  II2460     -0.2011
     11  C20       -1.9920   13.0410    0.4570 C.2   460  II2460      0.2589
     12  O2        -0.7130   13.2220    0.1670 O.2   460  II2460     -0.2691
     13  C8        -2.0140   10.9090    1.5230 C.ar  460  II2460      0.0613
     14  C9        -1.1570   10.9460    2.6020 C.ar  460  II2460      0.0158
     15  C10       -0.5980    9.7830    3.1050 C.ar  460  II2460      0.0078
     16  C11       -0.9290    8.5590    2.5130 C.ar  460  II2460      0.0295
     17  C18       -1.8010    8.4940    1.4320 C.ar  460  II2460      0.0078
     18  C19       -2.3350    9.6780    0.9650 C.ar  460  II2460      0.0158
     19  S         -0.2990    7.1440    3.1490 S.3   460  II2460     -0.0869
     20  C12       -1.3360    5.9460    2.4740 C.ar  460  II2460      0.0295
     21  C13       -2.7200    6.1870    2.4020 C.ar  460  II2460      0.0079
     22  C14       -3.5600    5.2200    1.8600 C.ar  460  II2460      0.0186
     23  C15       -3.0230    3.9970    1.3350 C.ar  460  II2460      0.0891
     24  N3        -3.8430    3.0730    0.7640 N.pl3 460  II2460     -0.1281
     25  C16       -1.6370    3.7680    1.3770 C.ar  460  II2460      0.0186
     26  C17       -0.8080    4.7500    1.9490 C.ar  460  II2460      0.0079
@<TRIPOS>BOND
     1     7     8   ar
     2     7     5   ar
     3     6     5    1
     4     8     9   ar
     5     5     4   ar
     6     9    11    1
     7     9     3   ar
     8    12    11    2
     9     4     3   ar
    10    11    10   am
    11     3     2    1
    12    24    23    1
    13    18    17   ar
    14    18    13   ar
    15    10     2   am
    16    10    13    1
    17     2     1    2
    18    23    25   ar
    19    23    22   ar
    20    25    26   ar
    21    17    16   ar
    22    13    14   ar
    23    22    21   ar
    24    26    20   ar
    25    21    20   ar
    26    20    19    1
    27    16    15   ar
    28    16    19    1
    29    14    15   ar
