@<TRIPOS>MOLECULE
2wh8_HEM_A_1.pdb
 43 50 0 0 0
SMALL
GASTEIGER

@<TRIPOS>ATOM
      1 FE         -4.5700    1.4120    1.9240 Fe    450  HEM450      0.0000
      2  CHA       -4.3480    3.2740    4.9340 C.2   450  HEM450      0.0000
      3  CHB       -1.3880    0.2360    2.4900 C.2   450  HEM450      0.0000
      4  CHC       -4.7690   -0.3980   -0.9860 C.2   450  HEM450      0.0000
      5  CHD       -7.7250    2.6700    1.3740 C.2   450  HEM450      0.0000
      6  NA        -3.1540    1.6870    3.4620 N.2   450  HEM450      0.0000
      7  C1A       -3.2460    2.5210    4.5630 C.2   450  HEM450      0.0000
      8  C2A       -2.0020    2.4290    5.3160 C.2   450  HEM450      0.0000
      9  C3A       -1.1700    1.6130    4.6050 C.2   450  HEM450      0.0000
     10  C4A       -1.8950    1.1470    3.4380 C.2   450  HEM450      0.0000
     11  CMA        0.2710    1.1330    4.9130 C.3   450  HEM450      0.0000
     12  CAA       -1.7750    3.2220    6.6200 C.3   450  HEM450      0.0000
     13  CBA       -0.7960    4.3210    6.2810 C.3   450  HEM450      0.0000
     14  CGA        0.1280    4.5870    7.4810 C.2   450  HEM450      0.0000
     15  O1A        0.7290    3.6120    7.9980 O.co2 450  HEM450      0.0000
     16  O2A        0.2850    5.7550    7.8910 O.co2 450  HEM450      0.0000
     17  NB        -3.3060    0.2100    0.9120 N.ar  450  HEM450      0.0000
     18  C1B       -2.0410   -0.1540    1.3180 C.ar  450  HEM450      0.0000
     19  C2B       -1.5130   -1.0940    0.3370 C.ar  450  HEM450      0.0000
     20  C3B       -2.4580   -1.2760   -0.6210 C.ar  450  HEM450      0.0000
     21  C4B       -3.5890   -0.4440   -0.2770 C.ar  450  HEM450      0.0000
     22  CMB       -0.0980   -1.7420    0.4830 C.3   450  HEM450      0.0000
     23  CAB       -2.4060   -2.1670   -1.8910 C.2   450  HEM450      0.0000
     24  CBB       -1.6440   -3.2840   -1.8350 C.2   450  HEM450      0.0000
     25  NC        -5.9730    1.2230    0.4610 N.2   450  HEM450      0.0000
     26  C1C       -5.8800    0.3390   -0.6230 C.2   450  HEM450      0.0000
     27  C2C       -7.1180    0.3700   -1.3760 C.2   450  HEM450      0.0000
     28  C3C       -7.9440    1.2400   -0.7280 C.2   450  HEM450      0.0000
     29  C4C       -7.2220    1.7580    0.4380 C.2   450  HEM450      0.0000
     30  CMC       -7.4030   -0.4330   -2.6750 C.3   450  HEM450      0.0000
     31  CAC       -9.4000    1.6410   -1.0740 C.2   450  HEM450      0.0000
     32  CBC      -10.2400    0.7760   -1.6210 C.2   450  HEM450      0.0000
     33  ND        -5.8110    2.6910    2.9690 N.ar  450  HEM450      0.0000
     34  C1D       -7.0730    3.0980    2.4930 C.ar  450  HEM450      0.0000
     35  C2D       -7.6180    4.0790    3.4150 C.ar  450  HEM450      0.0000
     36  C3D       -6.5840    4.2800    4.4880 C.ar  450  HEM450      0.0000
     37  C4D       -5.5000    3.3670    4.1620 C.ar  450  HEM450      0.0000
     38  CMD       -8.9570    4.8140    3.3090 C.3   450  HEM450      0.0000
     39  CAD       -6.6330    5.2180    5.7370 C.3   450  HEM450      0.0000
     40  CBD       -6.9650    4.4400    7.0340 C.3   450  HEM450      0.0000
     41  CGD       -6.7230    5.3260    8.2310 C.2   450  HEM450      0.0000
     42  O1D       -7.4240    5.1080    9.2800 O.co2 450  HEM450      0.0000
     43  O2D       -5.8750    6.2600    8.1480 O.co2 450  HEM450      0.0000
@<TRIPOS>BOND
     1    30    27    1
     2    23    24    2
     3    23    20    1
     4    32    31    2
     5    27    28    2
     6    27    26    1
     7    31    28    1
     8     4    26    2
     9     4    21    1
    10    28    29    1
    11    26    25    1
    12    20    21   ar
    13    20    19   ar
    14    21    17   ar
    15    19    22    1
    16    19    18   ar
    17    29    25    2
    18    29     5    1
    19    25     1    1
    20    17    18   ar
    21    17     1    1
    22    18     3    1
    23     5    34    2
    24     1    33    1
    25     1     6    1
    26     3    10    2
    27    34    33   ar
    28    34    35   ar
    29    33    37   ar
    30    38    35    1
    31    35    36   ar
    32    10     6    1
    33    10     9    1
    34     6     7    2
    35    37    36   ar
    36    37     2    2
    37    36    39    1
    38     7     2    1
    39     7     8    1
    40     9    11    1
    41     9     8    2
    42     8    12    1
    43    39    40    1
    44    13    12    1
    45    13    14    1
    46    40    41    1
    47    14    16   ar
    48    14    15   ar
    49    43    41   ar
    50    41    42   ar
