@<TRIPOS>MOLECULE
2whb_III_E_1.pdb
 45 45 0 0 0
SMALL
GASTEIGER

@<TRIPOS>ATOM
      1  N         35.6560   21.6150   -2.2120 N.3     1  ARG1       -0.1231
      2  CA        36.9440   21.2030   -1.6330 C.3     1  ARG1        0.1694
      3  C         37.5160   22.2170   -0.6350 C.2     1  ARG1        0.2592
      4  O         37.1070   23.3710   -0.6900 O.2     1  ARG1       -0.2718
      5  CB        37.9000   20.9220   -2.7880 C.3     1  ARG1        0.0321
      6  CG        38.5820   22.1850   -3.2510 C.3     1  ARG1        0.0489
      7  CD        39.3220   21.7680   -4.5080 C.3     1  ARG1        0.2205
      8  NE        40.4140   22.7450   -4.6070 N.pl3   1  ARG1       -0.0865
      9  CZ        40.5330   23.6060   -5.6060 C.cat   1  ARG1        0.5346
     10  NH1       41.5620   24.4650   -5.6130 N.pl3   1  ARG1        0.1354
     11  NH2       39.5800   23.5360   -6.5370 N.pl3   1  ARG1        0.1354
     12  N         38.3670   21.7960    0.3040 N.am    2  ARG2       -0.1966
     13  CA        39.0140   22.6650    1.3060 C.3     2  ARG2        0.1729
     14  C         40.2690   23.1250    0.5660 C.2     2  ARG2        0.2613
     15  O         40.8250   22.4020   -0.2680 O.2     2  ARG2       -0.2715
     16  CB        39.5350   21.9080    2.5180 C.3     2  ARG2        0.0348
     17  CG        38.8780   22.4960    3.7620 C.3     2  ARG2        0.0492
     18  CD        39.5200   21.9680    5.0510 C.3     2  ARG2        0.2205
     19  NE        40.9650   21.9570    4.7750 N.pl3   2  ARG2       -0.0865
     20  CZ        41.6970   20.8490    4.8620 C.cat   2  ARG2        0.5346
     21  NH1       41.1800   19.6790    5.2360 N.pl3   2  ARG2        0.1354
     22  NH2       42.9880   20.9150    4.5540 N.pl3   2  ARG2        0.1354
     23  CZ        43.0240   25.0730    1.2370 C.3     3  LEU3        0.2487
     24  OZ        42.6470   25.8750    2.3520 O.3     3  LEU3       -0.2113
     25  CA        41.8110   25.0230    0.2990 C.3     3  LEU3        0.1347
     26  CB        41.3420   26.3890   -0.2730 C.3     3  LEU3        0.0248
     27  CG        40.1600   26.2800   -1.2650 C.3     3  LEU3        0.0018
     28  CD1       40.4120   25.7550   -2.6920 C.3     3  LEU3        0.0001
     29  CD2       39.4250   27.6060   -1.3590 C.3     3  LEU3        0.0001
     30  N         40.6620   24.3440    0.9240 N.am    3  LEU3       -0.2026
     31  C         44.1540   25.8800    0.6210 C.2     3  LEU3        0.2740
     32  O         44.4890   25.6530   -0.5430 O.2     3  LEU3       -0.2705
     33  N         44.6110   26.8130    1.4580 N.am    4  PHE4       -0.1952
     34  CA        45.6730   27.7370    1.0310 C.3     4  PHE4        0.1787
     35  C         47.0400   27.1690    1.3580 C.2     4  PHE4        0.2809
     36  O         47.6870   26.6710    0.4330 O.2     4  PHE4       -0.2698
     37  CB        45.5210   29.1610    1.5700 C.3     4  PHE4        0.0575
     38  CG        44.2050   29.7250    1.0310 C.ar    4  PHE4       -0.0198
     39  CD1       43.0710   29.7680    1.8430 C.ar    4  PHE4       -0.0019
     40  CD2       44.1770   30.1380   -0.3050 C.ar    4  PHE4       -0.0019
     41  CE1       41.8730   30.2610    1.3330 C.ar    4  PHE4        0.0293
     42  CE2       42.9620   30.6080   -0.8040 C.ar    4  PHE4        0.0293
     43  CZ        41.8310   30.6720    0.0070 C.ar    4  PHE4        0.1401
     44  F         40.7400   31.1910   -0.5850 F       4  PHE4       -0.2042
     45  N         47.3660   27.2610    2.6470 N.am    5  NH25       -0.0863
@<TRIPOS>BOND
     1    11     9    1
     2    10     9    1
     3     9     8    2
     4     8     7    1
     5     7     6    1
     6     6     5    1
     7     5     2    1
     8    28    27    1
     9     1     2    1
    10     2     3    1
    11    29    27    1
    12    27    26    1
    13    42    40   ar
    14    42    43   ar
    15     4     3    2
    16     3    12   am
    17    44    43    1
    18    32    31    2
    19    40    38   ar
    20    26    25    1
    21    15    14    2
    22    43    41   ar
    23    25    30    1
    24    25    23    1
    25    12    13    1
    26    36    35    2
    27    14    30   am
    28    14    13    1
    29    31    23    1
    30    31    33   am
    31    34    35    1
    32    34    33    1
    33    34    37    1
    34    38    37    1
    35    38    39   ar
    36    23    24    1
    37    13    16    1
    38    41    39   ar
    39    35    45   am
    40    16    17    1
    41    17    18    1
    42    22    20    1
    43    19    20    2
    44    19    18    1
    45    20    21    1
