@<TRIPOS>MOLECULE
2whf_HEM_A_1.pdb
 43 50 0 0 0
SMALL
GASTEIGER

@<TRIPOS>ATOM
      1 FE         60.5120   20.3400    8.2750 Fe    450  HEM450      0.0000
      2  CHA       62.4100   20.1000   11.1800 C.2   450  HEM450      0.0000
      3  CHB       59.3540   17.1320    8.7990 C.2   450  HEM450      0.0000
      4  CHC       58.5690   20.5630    5.3970 C.2   450  HEM450      0.0000
      5  CHD       61.7620   23.4020    7.6530 C.2   450  HEM450      0.0000
      6  NA        60.8040   18.9480    9.7050 N.2   450  HEM450      0.0000
      7  C1A       61.6370   19.0230   10.8170 C.2   450  HEM450      0.0000
      8  C2A       61.5620   17.7920   11.5660 C.2   450  HEM450      0.0000
      9  C3A       60.7290   16.9780   10.8940 C.2   450  HEM450      0.0000
     10  C4A       60.2140   17.6810    9.7400 C.2   450  HEM450      0.0000
     11  CMA       60.2920   15.5460   11.2590 C.3   450  HEM450      0.0000
     12  CAA       62.3460   17.5180   12.8920 C.3   450  HEM450      0.0000
     13  CBA       63.4360   16.5220   12.6160 C.3   450  HEM450      0.0000
     14  CGA       63.7630   15.6540   13.8290 C.2   450  HEM450      0.0000
     15  O1A       64.9440   15.5920   14.2460 O.co2 450  HEM450      0.0000
     16  O2A       62.8580   14.9850   14.3840 O.co2 450  HEM450      0.0000
     17  NB        59.2680   19.0770    7.2930 N.ar  450  HEM450      0.0000
     18  C1B       58.9260   17.7930    7.6780 C.ar  450  HEM450      0.0000
     19  C2B       57.9650   17.2820    6.7140 C.ar  450  HEM450      0.0000
     20  C3B       57.7490   18.2210    5.8000 C.ar  450  HEM450      0.0000
     21  C4B       58.5480   19.3790    6.1210 C.ar  450  HEM450      0.0000
     22  CMB       57.3140   15.8760    6.7630 C.3   450  HEM450      0.0000
     23  CAB       56.8350   18.1080    4.5830 C.2   450  HEM450      0.0000
     24  CBB       55.6510   17.4750    4.6170 C.2   450  HEM450      0.0000
     25  NC        60.2170   21.6670    6.8000 N.2   450  HEM450      0.0000
     26  C1C       59.4070   21.6180    5.6970 C.2   450  HEM450      0.0000
     27  C2C       59.4390   22.8950    5.0070 C.2   450  HEM450      0.0000
     28  C3C       60.3590   23.6740    5.5980 C.2   450  HEM450      0.0000
     29  C4C       60.8310   22.9170    6.7630 C.2   450  HEM450      0.0000
     30  CMC       58.6520   23.1940    3.7290 C.3   450  HEM450      0.0000
     31  CAC       60.8120   25.1130    5.2330 C.2   450  HEM450      0.0000
     32  CBC       59.9620   25.9940    4.7150 C.2   450  HEM450      0.0000
     33  ND        61.8190   21.5270    9.2400 N.ar  450  HEM450      0.0000
     34  C1D       62.2030   22.7740    8.7800 C.ar  450  HEM450      0.0000
     35  C2D       63.2230   23.3160    9.6620 C.ar  450  HEM450      0.0000
     36  C3D       63.4150   22.3010   10.7230 C.ar  450  HEM450      0.0000
     37  C4D       62.5230   21.2260   10.4090 C.ar  450  HEM450      0.0000
     38  CMD       63.9260   24.6660    9.4630 C.3   450  HEM450      0.0000
     39  CAD       64.3760   22.3360   11.9340 C.3   450  HEM450      0.0000
     40  CBD       63.6280   22.7880   13.1950 C.3   450  HEM450      0.0000
     41  CGD       64.5440   22.6090   14.4050 C.2   450  HEM450      0.0000
     42  O1D       64.3170   23.3460   15.3910 O.co2 450  HEM450      0.0000
     43  O2D       65.4810   21.7370   14.3510 O.co2 450  HEM450      0.0000
@<TRIPOS>BOND
     1    30    27    1
     2    23    24    2
     3    23    20    1
     4    32    31    2
     5    27    28    2
     6    27    26    1
     7    31    28    1
     8     4    26    2
     9     4    21    1
    10    28    29    1
    11    26    25    1
    12    20    21   ar
    13    20    19   ar
    14    21    17   ar
    15    19    22    1
    16    19    18   ar
    17    29    25    2
    18    29     5    1
    19    25     1    1
    20    17    18   ar
    21    17     1    1
    22     5    34    2
    23    18     3    1
    24     1    33    1
    25     1     6    1
    26    34    33   ar
    27    34    35   ar
    28     3    10    2
    29    33    37   ar
    30    38    35    1
    31    35    36   ar
    32     6    10    1
    33     6     7    2
    34    10     9    1
    35    37    36   ar
    36    37     2    2
    37    36    39    1
    38     7     2    1
    39     7     8    1
    40     9    11    1
    41     9     8    2
    42     8    12    1
    43    39    40    1
    44    13    12    1
    45    13    14    1
    46    40    41    1
    47    14    15   ar
    48    14    16   ar
    49    43    41   ar
    50    41    42   ar
