@<TRIPOS>MOLECULE
2whf_II4_A_1.pdb
 17 19 0 0 0
SMALL
GASTEIGER

@<TRIPOS>ATOM
      1  C2        63.0930   18.6800    7.5400 C.2   1405  II41405     0.0727
      2  C3        62.7510   17.3300    7.6870 C.2   1405  II41405     0.0340
      3  C4        63.7350   16.4090    7.9910 C.2   1405  II41405     0.0923
      4  C5        65.1100   16.9280    8.0970 C.2   1405  II41405     0.0666
      5  C6        65.3920   18.2710    7.9260 C.2   1405  II41405    -0.0036
      6  C9        69.4820   19.0200    8.3400 C.3   1405  II41405     0.0311
      7  N7        65.8490   15.8650    8.3590 N.pl3 1405  II41405    -0.2648
      8  C8        65.1390   14.7200    8.4440 C.3   1405  II41405     0.2240
      9  N9        63.8130   15.0630    8.2030 N.2   1405  II41405    -0.2465
     10  N2        62.1740   19.5870    7.2040 N.pl3 1405  II41405    -0.1323
     11  C10       69.0950   17.5660    8.5220 C.ar  1405  II41405    -0.0206
     12  C11       67.7520   17.2590    8.3970 C.ar  1405  II41405     0.0106
     13  C30       64.4030   19.1770    7.6650 C.3   1405  II41405     0.0721
     14  C13       68.1000   14.9710    8.8080 C.ar  1405  II41405     0.0149
     15  C80       67.1800   15.9940    8.5210 C.ar  1405  II41405     0.0528
     16  C14       69.4770   15.2420    8.9500 C.ar  1405  II41405     0.0010
     17  C15       69.9970   16.5400    8.8130 C.ar  1405  II41405    -0.0042
@<TRIPOS>BOND
     1    10     1    1
     2     1    13    1
     3     1     2    2
     4    13     5    1
     5     2     3    1
     6     5     4    2
     7     3     4    1
     8     3     9    2
     9     4     7    1
    10     9     8    1
    11     6    11    1
    12     7     8    1
    13     7    15    1
    14    12    15   ar
    15    12    11   ar
    16    15    14   ar
    17    11    17   ar
    18    14    16   ar
    19    17    16   ar
