@<TRIPOS>MOLECULE
2whh_GLU_A_1.pdb
 10 9 0 0 0
SMALL
GASTEIGER

@<TRIPOS>ATOM
      1  N         11.2670   15.2320   -3.4960 N.3   2202  GLU2202    -0.1208
      2  CA        10.5110   14.6290   -4.5820 C.3   2202  GLU2202     0.1949
      3  C         11.4830   14.2580   -5.6940 C.2   2202  GLU2202     0.3819
      4  O         12.5710   14.8690   -5.7430 O.co2 2202  GLU2202    -0.2441
      5  CB         9.4580   15.6150   -5.0950 C.3   2202  GLU2202     0.0424
      6  CG         8.7450   15.2020   -6.3760 C.3   2202  GLU2202     0.1161
      7  CD         9.6130   15.3690   -7.6080 C.2   2202  GLU2202     0.3649
      8  OE1       10.2960   16.4090   -7.7130 O.co2 2202  GLU2202    -0.2457
      9  OE2        9.6090   14.4680   -8.4740 O.co2 2202  GLU2202    -0.2457
     10  OXT       11.1480   13.3690   -6.5010 O.co2 2202  GLU2202    -0.2441
@<TRIPOS>BOND
     1     9     7   ar
     2     8     7   ar
     3     7     6    1
     4    10     3   ar
     5     6     5    1
     6     4     3   ar
     7     3     2    1
     8     5     2    1
     9     2     1    1
