@<TRIPOS>MOLECULE
2whh_PPN_A_1.pdb
 14 14 0 0 0
SMALL
GASTEIGER

@<TRIPOS>ATOM
      1  N         10.9870   16.9220   -0.3770 N.3   2201  PPN2201    -0.1241
      2  CA        11.7370   15.9770   -1.2530 C.3   2201  PPN2201     0.1605
      3  C         10.7900   15.3350   -2.2610 C.2   2201  PPN2201     0.2264
      4  O          9.6760   14.9320   -1.9270 O.2   2201  PPN2201    -0.2867
      5  CB        12.3740   14.8710   -0.4100 C.3   2201  PPN2201     0.0534
      6  CG        13.1210   13.9200   -1.3950 C.ar  2201  PPN2201    -0.0202
      7  CD1       14.2580   14.3760   -2.3210 C.ar  2201  PPN2201    -0.0025
      8  CD2       12.6790   12.5220   -1.4270 C.ar  2201  PPN2201    -0.0025
      9  CE1       14.9430   13.4710   -3.2480 C.ar  2201  PPN2201     0.0237
     10  CE2       13.3900   11.6020   -2.3840 C.ar  2201  PPN2201     0.0237
     11  CZ        14.5210   12.0390   -3.3150 C.ar  2201  PPN2201     0.1429
     12  N1        15.2120   11.1290   -4.2520 N.pl3 2201  PPN2201     0.0577
     13  O1        16.1270   11.4980   -5.0000 O.2   2201  PPN2201    -0.1261
     14  O2        14.8940   10.0490   -4.3010 O.2   2201  PPN2201    -0.1261
@<TRIPOS>BOND
     1    13    12    2
     2    14    12    2
     3    12    11    1
     4    11     9   ar
     5    11    10   ar
     6     9     7   ar
     7    10     8   ar
     8     7     6   ar
     9     3     4    2
    10     3     2    1
    11     8     6   ar
    12     6     5    1
    13     2     5    1
    14     2     1    1
