@<TRIPOS>MOLECULE
2whi_P3S_A_1.pdb
 15 14 0 0 0
SMALL
GASTEIGER

@<TRIPOS>ATOM
      1  O3A      -24.8920   83.1920   21.4990 O.3   505  P3S505     -0.1237
      2  PA       -23.4800   82.8710   21.9320 P.3   505  P3S505      0.4896
      3  O1A      -22.6570   84.1210   22.0690 O.3   505  P3S505     -0.1237
      4  O2A      -22.8350   81.7700   21.1360 O.2   505  P3S505     -0.2328
      5  NE       -23.6060   82.1650   23.4650 N.3   505  P3S505     -0.0523
      6  SD       -23.1920   82.8470   24.7670 S.3   505  P3S505      0.0022
      7  OE       -23.9250   84.0790   24.8950 O.3   505  P3S505     -0.1552
      8  CE       -21.5720   83.2210   24.7870 C.3   505  P3S505      0.0974
      9  CG       -23.4920   81.8520   26.0830 C.3   505  P3S505      0.0859
     10  CB       -24.9040   81.2470   26.0980 C.3   505  P3S505      0.0443
     11  CA       -25.1270   80.3540   27.3320 C.3   505  P3S505      0.1953
     12  N        -24.2880   79.1590   27.2940 N.3   505  P3S505     -0.1208
     13  C        -26.5660   79.9330   27.4900 C.2   505  P3S505      0.3819
     14  OT       -27.4400   80.2570   26.6570 O.co2 505  P3S505     -0.2441
     15  O        -26.8430   79.2510   28.4840 O.co2 505  P3S505     -0.2441
@<TRIPOS>BOND
     1     4     2    2
     2     1     2    1
     3     2     3    1
     4     2     5    1
     5     5     6    1
     6     6     8    1
     7     6     7    1
     8     6     9    1
     9     9    10    1
    10    10    11    1
    11    14    13   ar
    12    12    11    1
    13    11    13    1
    14    13    15   ar
