@<TRIPOS>MOLECULE
2whi_1AZ_A_1.pdb
 28 31 0 0 0
SMALL
GASTEIGER

@<TRIPOS>ATOM
      1  O1       -28.3070   84.3820    8.1780 O.2   501  1AZ501     -0.2721
      2  C5       -29.1470   83.6520    8.7620 C.2   501  1AZ501      0.2594
      3  N1       -30.4460   83.6940    8.4110 N.am  501  1AZ501     -0.2077
      4  C4       -30.9180   84.6180    7.3750 C.3   501  1AZ501      0.1291
      5  C3       -30.9980   84.0440    5.9850 C.ar  501  1AZ501     -0.0010
      6  C2       -30.0430   84.4470    5.0550 C.ar  501  1AZ501      0.0096
      7  C1       -30.1090   83.9390    3.7640 C.ar  501  1AZ501      0.0679
      8 CL1       -28.8820   84.4510    2.5640 Cl    501  1AZ501     -0.0814
      9  C16      -32.0160   83.1530    5.6260 C.ar  501  1AZ501     -0.0017
     10  C17      -32.0710   82.6420    4.3310 C.ar  501  1AZ501      0.0120
     11  C18      -31.1130   83.0430    3.4010 C.ar  501  1AZ501      0.0682
     12 CL2       -31.1730   82.4040    1.7200 Cl    501  1AZ501     -0.0814
     13  C6       -28.7390   82.7830    9.7820 C.3   501  1AZ501      0.2212
     14  N2       -27.5450   82.5100   10.3400 N.pl3 501  1AZ501     -0.2566
     15  C7       -26.2310   83.1300    9.9810 C.3   501  1AZ501      0.1167
     16  C8       -27.7230   81.5760   11.2910 C.cat 501  1AZ501      0.2434
     17  N4       -29.0340   81.2530   11.3360 N.2   501  1AZ501     -0.3599
     18  C13      -29.6870   81.9830   10.4140 C.2   501  1AZ501      0.1973
     19  N5       -30.9820   82.0360   10.0550 N.am  501  1AZ501     -0.2178
     20  C14      -31.9570   81.1800   10.7390 C.3   501  1AZ501      0.1239
     21  C15      -31.3860   82.8730    9.0760 C.2   501  1AZ501      0.3187
     22  O3       -32.5930   82.9320    8.7360 O.2   501  1AZ501     -0.2515
     23  N3       -26.6400   80.9920   12.1450 N.pl3 501  1AZ501     -0.2664
     24  C9       -26.4030   81.7940   13.3400 C.3   501  1AZ501      0.1264
     25  C10      -25.0990   81.2240   13.9140 C.3   501  1AZ501      0.1637
     26  O2       -25.2520   79.8200   14.1810 O.3   501  1AZ501     -0.3501
     27  C11      -25.5930   79.0660   13.0210 C.3   501  1AZ501      0.1637
     28  C12      -26.9200   79.6050   12.5050 C.3   501  1AZ501      0.1264
@<TRIPOS>BOND
     1    12    11    1
     2     8     7    1
     3    11     7   ar
     4    11    10   ar
     5     7     6   ar
     6    10     9   ar
     7     6     5   ar
     8     9     5   ar
     9     5     4    1
    10     4     3    1
    11     1     2    2
    12     3     2   am
    13     3    21   am
    14    22    21    2
    15     2    13    1
    16    21    19   am
    17    13    14    1
    18    13    18    1
    19    15    14    1
    20    19    18    1
    21    19    20    1
    22    14    16    1
    23    18    17    2
    24    16    17    2
    25    16    23    1
    26    23    28    1
    27    23    24    1
    28    28    27    1
    29    27    26    1
    30    24    25    1
    31    25    26    1
