@<TRIPOS>MOLECULE
2whl_MAN_A_1.pdb
 12 12 0 0 0
SMALL
GASTEIGER

@<TRIPOS>ATOM
      1  C1        20.2480   40.7850    7.5190 C.2   1301  MAN1301     0.3505
      2  C2        20.8070   41.9780    8.1990 C.3   1301  MAN1301     0.2823
      3  C3        22.3140   42.0640    8.2860 C.3   1301  MAN1301     0.2270
      4  C4        22.9290   40.6590    8.3680 C.3   1301  MAN1301     0.2276
      5  C5        22.4750   39.7920    7.2090 C.3   1301  MAN1301     0.2344
      6  C6        23.0500   38.3840    7.1720 C.3   1301  MAN1301     0.2281
      7  O2        20.3460   41.5460    9.4750 O.3   1301  MAN1301    -0.2082
      8  O3        22.6070   42.8540    9.4100 O.3   1301  MAN1301    -0.2169
      9  O4        24.3400   40.6840    8.2280 O.3   1301  MAN1301    -0.2163
     10  O5        21.0510   39.7100    7.1690 O.3   1301  MAN1301    -0.4450
     11  O6        22.3110   37.4640    6.3610 O.3   1301  MAN1301    -0.2163
     12  O1        19.0390   40.8270    6.8120 O.2   1301  MAN1301    -0.2472
@<TRIPOS>BOND
     1    11     6    1
     2    12     1    2
     3    10     5    1
     4    10     1    1
     5     6     5    1
     6     5     4    1
     7     1     2    1
     8     2     3    1
     9     2     7    1
    10     9     4    1
    11     3     4    1
    12     3     8    1
