@<TRIPOS>MOLECULE
2whl_BMA_A_1.pdb
 11 11 0 0 0
SMALL
GASTEIGER

@<TRIPOS>ATOM
      1  C1        25.0880   40.7470    9.4450 C.3   1302  BMA1302     0.1777
      2  C2        26.5520   40.3330    9.1600 C.3   1302  BMA1302     0.2141
      3  C3        27.3410   40.3480   10.4660 C.3   1302  BMA1302     0.2173
      4  C4        27.1720   41.7260   11.1470 C.3   1302  BMA1302     0.2142
      5  C5        25.6970   42.1650   11.2530 C.3   1302  BMA1302     0.1810
      6  C6        25.5680   43.5840   11.7750 C.3   1302  BMA1302     0.2141
      7  O2        27.1210   41.1630    8.1720 O.3   1302  BMA1302    -0.2176
      8  O3        28.6930   40.0100   10.2100 O.3   1302  BMA1302    -0.2175
      9  O4        27.6540   41.6530   12.4700 O.3   1302  BMA1302    -0.2176
     10  O5        25.0120   42.0540    9.9940 O.3   1302  BMA1302    -0.3481
     11  O6        26.0780   44.5130   10.8280 O.3   1302  BMA1302    -0.2176
@<TRIPOS>BOND
     1     7     2    1
     2     2     1    1
     3     2     3    1
     4     1    10    1
     5    10     5    1
     6     8     3    1
     7     3     4    1
     8    11     6    1
     9     4     5    1
    10     4     9    1
    11     5     6    1
