@<TRIPOS>MOLECULE
2whm_BMA_A_1.pdb
 11 11 0 0 0
SMALL
GASTEIGER

@<TRIPOS>ATOM
      1  C1        79.9020   40.0870   -6.7600 C.3   1429  BMA1429     0.1777
      2  C2        79.2190   41.4460   -6.7180 C.3   1429  BMA1429     0.2141
      3  C3        80.2720   42.5380   -6.5650 C.3   1429  BMA1429     0.2173
      4  C4        81.1540   42.2730   -5.3410 C.3   1429  BMA1429     0.2142
      5  C5        81.7100   40.8470   -5.3910 C.3   1429  BMA1429     0.1810
      6  C6        82.4510   40.4720   -4.1090 C.3   1429  BMA1429     0.2141
      7  O2        78.3330   41.4800   -5.6150 O.3   1429  BMA1429    -0.2176
      8  O3        79.6320   43.7970   -6.4850 O.3   1429  BMA1429    -0.2175
      9  O4        82.2300   43.1870   -5.3110 O.3   1429  BMA1429    -0.2176
     10  O5        80.6640   39.9150   -5.5820 O.3   1429  BMA1429    -0.3481
     11  O6        81.5830   40.5560   -2.9970 O.3   1429  BMA1429    -0.2176
@<TRIPOS>BOND
     1     1     2    1
     2     1    10    1
     3     2     3    1
     4     2     7    1
     5     3     8    1
     6     3     4    1
     7    10     5    1
     8     5     4    1
     9     5     6    1
    10     4     9    1
    11     6    11    1
