@<TRIPOS>MOLECULE
2whm_MAN_A_1.pdb
 12 12 0 0 0
SMALL
GASTEIGER

@<TRIPOS>ATOM
      1  C1        78.8380   35.0410   -7.4530 C.3   1428  MAN1428     0.3024
      2  C2        80.2290   35.6550   -7.5850 C.3   1428  MAN1428     0.2434
      3  C3        80.2690   37.0810   -7.0450 C.3   1428  MAN1428     0.2199
      4  C4        79.0920   37.9300   -7.5610 C.3   1428  MAN1428     0.2144
      5  C5        77.7750   37.1580   -7.4020 C.3   1428  MAN1428     0.1836
      6  C6        76.5700   37.9190   -7.9470 C.3   1428  MAN1428     0.2142
      7  O1        78.5480   34.7860   -6.0950 O.3   1428  MAN1428    -0.1869
      8  O2        80.6120   35.6610   -8.9420 O.3   1428  MAN1428    -0.2148
      9  O3        81.5140   37.6300   -7.4320 O.3   1428  MAN1428    -0.2174
     10  O4        78.8670   39.0970   -6.8000 O.3   1428  MAN1428    -0.2176
     11  O5        77.8470   35.8860   -8.0130 O.3   1428  MAN1428    -0.3236
     12  O6        76.7170   38.0780   -9.3340 O.3   1428  MAN1428    -0.2176
@<TRIPOS>BOND
     1    12     6    1
     2     8     2    1
     3    11     1    1
     4    11     5    1
     5     6     5    1
     6     2     1    1
     7     2     3    1
     8     4     5    1
     9     4     3    1
    10     4    10    1
    11     1     7    1
    12     9     3    1
