@<TRIPOS>MOLECULE
2who_VGI_A_1.pdb
 26 29 0 0 0
SMALL
GASTEIGER

@<TRIPOS>ATOM
      1  C14       23.4770   40.5870   79.4350 C.ar  1534  VGI1534     0.0220
      2  C15       24.2470   39.5840   78.8800 C.ar  1534  VGI1534     0.0358
      3 BR1        23.7660   37.7450   79.1320 Br    1534  VGI1534    -0.0490
      4  C16       25.3650   39.9500   78.1400 C.ar  1534  VGI1534     0.0068
      5  C17       25.6950   41.2900   77.9730 C.ar  1534  VGI1534     0.0018
      6  C18       24.9090   42.2940   78.5340 C.ar  1534  VGI1534     0.0154
      7  C13       23.7870   41.9320   79.2630 C.ar  1534  VGI1534     0.0617
      8  N2        22.9260   42.8700   79.8680 N.am  1534  VGI1534    -0.2011
      9  C9        21.8590   43.4690   79.1360 C.2   1534  VGI1534     0.2587
     10  O1        21.6770   43.2340   77.9420 O.2   1534  VGI1534    -0.2692
     11  C12       23.1050   43.1730   81.2220 C.2   1534  VGI1534     0.2587
     12  O2        24.0320   42.6270   81.8120 O.2   1534  VGI1534    -0.2692
     13  C8        22.2450   44.0870   81.8520 C.ar  1534  VGI1534     0.0545
     14  C10       22.4040   44.4130   83.1940 C.ar  1534  VGI1534     0.0045
     15  C11       21.5360   45.3050   83.8130 C.ar  1534  VGI1534     0.0002
     16  C7        20.5040   45.9030   83.0860 C.ar  1534  VGI1534     0.0013
     17  C1        20.3300   45.5900   81.7340 C.ar  1534  VGI1534     0.0151
     18  C2        21.1990   44.6800   81.1210 C.ar  1534  VGI1534     0.0100
     19  C3        21.0150   44.3600   79.7710 C.ar  1534  VGI1534     0.0545
     20  C4        19.9950   44.9420   79.0430 C.ar  1534  VGI1534     0.0059
     21  C5        19.1350   45.8430   79.6520 C.ar  1534  VGI1534     0.0162
     22  C6        19.2950   46.1660   80.9920 C.ar  1534  VGI1534     0.0654
     23  N1        18.4540   47.0320   81.5230 N.pl3 1534  VGI1534    -0.2348
     24  C19       17.0480   46.6750   81.7120 C.3   1534  VGI1534     0.1476
     25  C20       16.1490   47.8320   81.2960 C.3   1534  VGI1534     0.2053
     26  O3        14.8240   47.3310   81.1190 O.3   1534  VGI1534    -0.2184
@<TRIPOS>BOND
     1    10     9    2
     2     5     4   ar
     3     5     6   ar
     4     4     2   ar
     5     6     7   ar
     6     2     3    1
     7     2     1   ar
     8    20    21   ar
     9    20    19   ar
    10     9    19    1
    11     9     8   am
    12     7     1   ar
    13     7     8    1
    14    21    22   ar
    15    19    18   ar
    16     8    11   am
    17    22    23    1
    18    22    17   ar
    19    26    25    1
    20    18    17   ar
    21    18    13   ar
    22    11    12    2
    23    11    13    1
    24    25    24    1
    25    23    24    1
    26    17    16   ar
    27    13    14   ar
    28    16    15   ar
    29    14    15   ar
