@<TRIPOS>MOLECULE
2whp_HI6_A_1.pdb
 18 19 0 0 0
SMALL
GASTEIGER

@<TRIPOS>ATOM
      1  O3        38.2140   18.7180    9.4850 O.2   1543  HI61543    -0.2667
      2  C14       38.2310   19.7890   10.0720 C.2   1543  HI61543     0.2839
      3  N4        39.1910   20.0700   10.9530 N.am  1543  HI61543    -0.0837
      4  C11       37.1420   20.8180    9.8650 C.2   1543  HI61543     0.0553
      5  C10       37.1480   21.9650   10.6540 C.2   1543  HI61543    -0.0000
      6  C9        36.1520   22.9160   10.4970 C.3   1543  HI61543     0.1197
      7  N3        35.1770   22.7430    9.6000 N.pl3 1543  HI61543    -0.2775
      8  C13       35.1360   21.6390    8.8260 C.2   1543  HI61543     0.0635
      9  C12       36.1180   20.6480    8.9290 C.2   1543  HI61543     0.0202
     10  C8        34.1400   23.7670    9.4620 C.3   1543  HI61543     0.2421
     11  O2        32.9780   23.0280    9.1060 O.3   1543  HI61543    -0.3136
     12  C7        31.7830   23.7950    9.0810 C.3   1543  HI61543     0.2421
     13  N2        30.9410   23.2940   10.1610 N.pl3 1543  HI61543    -0.2775
     14  C2        30.2010   22.2040    9.9540 C.3   1543  HI61543     0.1196
     15  C3        29.4050   21.7240   10.9850 C.2   1543  HI61543    -0.0047
     16  C4        29.3700   22.3750   12.2190 C.2   1543  HI61543    -0.0016
     17  C5        30.1420   23.5080   12.3970 C.2   1543  HI61543     0.0156
     18  C6        30.9260   23.9400   11.3340 C.2   1543  HI61543     0.0634
@<TRIPOS>BOND
     1     8     9    2
     2     8     7    1
     3     9     4    1
     4    12    11    1
     5    12    13    1
     6    11    10    1
     7    10     7    1
     8     1     2    2
     9     7     6    1
    10     4     2    1
    11     4     5    2
    12    14    13    1
    13    14    15    1
    14     2     3   am
    15    13    18    1
    16     6     5    1
    17    15    16    2
    18    18    17    2
    19    16    17    1
