@<TRIPOS>MOLECULE
2whq_HI6_A_1.pdb
 12 12 0 0 0
SMALL
GASTEIGER

@<TRIPOS>ATOM
      1  C8        29.7250   23.0640   12.7490 C.3   1543  HI61543     0.1762
      2  O2        29.4890   22.0960   13.7860 O.3   1543  HI61543    -0.3316
      3  C7        28.2770   22.2810   14.5410 C.3   1543  HI61543     0.2409
      4  N2        27.7260   20.9770   14.9650 N.pl3 1543  HI61543    -0.2741
      5  C2        26.4500   20.7020   14.7030 C.3   1543  HI61543     0.1423
      6  C1        25.6580   21.7230   14.0010 C.2   1543  HI61543     0.1426
      7  N1        24.4590   21.4860   13.7330 N.2   1543  HI61543    -0.0304
      8  O1        23.7490   22.4820   13.0730 O.2   1543  HI61543    -0.1434
      9  C3        25.8650   19.4880   15.0600 C.2   1543  HI61543    -0.0005
     10  C4        26.6210   18.5280   15.7190 C.2   1543  HI61543    -0.0012
     11  C5        27.9500   18.8350   15.9980 C.2   1543  HI61543     0.0156
     12  C6        28.4730   20.0650   15.6040 C.2   1543  HI61543     0.0636
@<TRIPOS>BOND
     1     1     2    1
     2     8     7    1
     3     7     6    2
     4     2     3    1
     5     6     5    1
     6     3     4    1
     7     5     4    1
     8     5     9    1
     9     4    12    1
    10     9    10    2
    11    12    11    2
    12    10    11    1
