@<TRIPOS>MOLECULE
2whr_PE4_B_1.pdb
 23 22 0 0 0
SMALL
GASTEIGER

@<TRIPOS>ATOM
      1  O1        11.4770    9.3480  -13.3260 O.3   1548  PE41548    -0.2176
      2  C1        12.9000    9.2250  -13.4330 C.3   1548  PE41548     0.2140
      3  C2        13.3170    7.8130  -13.0400 C.3   1548  PE41548     0.1777
      4  O2        14.6460    7.8470  -12.5210 O.3   1548  PE41548    -0.3483
      5  C3        15.0160    6.6110  -11.9060 C.3   1548  PE41548     0.1742
      6  C4        16.0520    6.8910  -10.8200 C.3   1548  PE41548     0.1742
      7  O3        17.3400    6.4630  -11.2390 O.3   1548  PE41548    -0.3484
      8  C5        18.1560    6.0930  -10.1310 C.3   1548  PE41548     0.1742
      9  C6        18.7620    4.7290  -10.4410 C.3   1548  PE41548     0.1742
     10  O4        20.1750    4.7920  -10.2880 O.3   1548  PE41548    -0.3484
     11  C7        20.8450    4.3090  -11.4500 C.3   1548  PE41548     0.1742
     12  C8        21.1160    5.5410  -12.2990 C.3   1548  PE41548     0.1742
     13  O5        22.2870    5.4160  -13.0950 O.3   1548  PE41548    -0.3484
     14  C9        23.0230    6.6260  -13.0090 C.3   1548  PE41548     0.1742
     15  C10       22.9630    7.3580  -14.3310 C.3   1548  PE41548     0.1742
     16  O6        22.7300    8.7410  -14.0520 O.3   1548  PE41548    -0.3484
     17  C11       22.1610    9.4160  -15.1750 C.3   1548  PE41548     0.1742
     18  C12       21.4980   10.7030  -14.7050 C.3   1548  PE41548     0.1742
     19  O7        20.2090   10.8220  -15.3090 O.3   1548  PE41548    -0.3484
     20  C13       19.2420   10.1420  -14.5030 C.3   1548  PE41548     0.1742
     21  C14       18.0740   11.0340  -14.0980 C.3   1548  PE41548     0.1742
     22  O8        17.4290   10.4280  -12.9710 O.3   1548  PE41548    -0.3484
     23  C15       16.7900   11.3760  -12.1100 C.3   1548  PE41548     0.1742
@<TRIPOS>BOND
     1    19    18    1
     2    19    20    1
     3    17    18    1
     4    17    16    1
     5    20    21    1
     6    15    16    1
     7    15    14    1
     8    21    22    1
     9     2     1    1
    10     2     3    1
    11    13    14    1
    12    13    12    1
    13     3     4    1
    14    22    23    1
    15     4     5    1
    16    12    11    1
    17     5     6    1
    18    11    10    1
    19     7     6    1
    20     7     8    1
    21     9    10    1
    22     9     8    1
