@<TRIPOS>MOLECULE
2whr_K27_A_1.pdb
 21 22 0 0 0
SMALL
GASTEIGER

@<TRIPOS>ATOM
      1  C1        31.2660   23.3280    9.7210 C.3   1543  K271543     0.0929
      2  C5A       27.8450   21.4780   11.3800 C.2   1543  K271543     0.0212
      3  O10       24.8080   20.5980   13.2860 O.2   1543  K271543    -0.1431
      4  N9        25.9390   21.2820   12.8400 N.2   1543  K271543    -0.0278
      5  C8        26.6320   20.7990   11.9010 C.2   1543  K271543     0.1447
      6  C4        28.1680   21.3340   10.0370 C.2   1543  K271543    -0.0031
      7  C3        29.2980   21.9640    9.5290 C.3   1543  K271543     0.1175
      8  N2        30.0960   22.6870   10.3260 N.pl3 1543  K271543    -0.3026
      9  C7        29.8110   22.8460   11.6310 C.2   1543  K271543     0.0616
     10  C6        28.6830   22.2430   12.1910 C.2   1543  K271543     0.0172
     11  C2        32.4910   22.4480    9.8770 C.3   1543  K271543     0.0428
     12  C5        33.6850   23.0280    9.1360 C.3   1543  K271543     0.0929
     13  N8        34.8140   22.1520    9.4350 N.pl3 1543  K271543    -0.3026
     14  C9        35.0670   21.1290    8.6070 C.3   1543  K271543     0.1176
     15  C10       36.1310   20.2680    8.8540 C.2   1543  K271543    -0.0001
     16  C11       36.9270   20.4690    9.9740 C.2   1543  K271543     0.0553
     17  C12       36.6530   21.5440   10.8150 C.2   1543  K271543     0.0201
     18  C13       35.5750   22.3790   10.5190 C.2   1543  K271543     0.0617
     19  C14       38.0710   19.5390   10.2450 C.2   1543  K271543     0.2839
     20  N15       39.1960   19.9980   10.7950 N.am  1543  K271543    -0.0837
     21  O3        37.9180   18.3550   10.0000 O.2   1543  K271543    -0.2667
@<TRIPOS>BOND
     1    14    15    1
     2    14    13    1
     3    15    16    2
     4    12    13    1
     5    12    11    1
     6    13    18    1
     7     7     6    1
     8     7     8    1
     9     1    11    1
    10     1     8    1
    11    16    19    1
    12    16    17    1
    13    21    19    2
    14     6     2    2
    15    19    20   am
    16     8     9    1
    17    18    17    2
    18     2     5    1
    19     2    10    1
    20     9    10    2
    21     5     4    2
    22     4     3    1
