@<TRIPOS>MOLECULE
2whw_1D4_A_1.pdb
 25 26 0 0 0
SMALL
GASTEIGER

@<TRIPOS>ATOM
      1  O3        53.9960   12.5340   59.4390 O.3   1410  1D41410    -0.2163
      2  C12       54.3620   12.7390   60.8220 C.3   1410  1D41410     0.2224
      3  C5        53.6290   13.9310   61.4950 C.3   1410  1D41410     0.2679
      4  O2        54.2210   14.1080   62.7990 O.3   1410  1D41410    -0.3311
      5  C6        53.9280   13.0560   63.7210 C.3   1410  1D41410     0.1194
      6  C7        54.5330   13.5110   65.0390 C.3   1410  1D41410     0.0322
      7  C8        54.4760   11.7180   63.1860 C.3   1410  1D41410     0.0483
      8  C9        54.0410   11.5080   61.7110 C.3   1410  1D41410     0.0957
      9  N         54.6590   10.2800   61.1640 N.3   1410  1D41410    -0.2691
     10  C10       53.8710    9.0790   61.4970 C.3   1410  1D41410     0.0897
     11  C11       56.0650   10.1010   61.5600 C.3   1410  1D41410     0.0897
     12  O1        53.7100   15.2610   60.9340 O.3   1410  1D41410    -0.3311
     13  C4        53.0580   15.7490   59.7420 C.3   1410  1D41410     0.1179
     14  C13       51.5160   15.8000   59.8190 C.3   1410  1D41410     0.0296
     15  C14       50.8810   17.1950   59.8340 C.3   1410  1D41410     0.0025
     16  C15       50.1420   17.5180   61.1350 C.3   1410  1D41410     0.0001
     17  C16       50.1080   19.0130   61.4140 C.3   1410  1D41410     0.0000
     18  C17       50.5100   19.3290   62.8480 C.3   1410  1D41410     0.0000
     19  C18       51.6490   20.3370   62.7770 C.3   1410  1D41410     0.0000
     20  C19       52.6280   20.1240   63.9210 C.3   1410  1D41410     0.0000
     21  C20       53.9980   19.5690   63.5180 C.3   1410  1D41410     0.0000
     22  C21       53.9860   18.0690   63.2030 C.3   1410  1D41410     0.0000
     23  C1        54.6820   17.7200   61.8830 C.3   1410  1D41410     0.0001
     24  C2        53.7960   18.0890   60.6910 C.3   1410  1D41410     0.0025
     25  C3        53.7350   17.1170   59.4900 C.3   1410  1D41410     0.0296
@<TRIPOS>BOND
     1     1     2    1
     2    25    13    1
     3    25    24    1
     4    13    14    1
     5    13    12    1
     6    14    15    1
     7    15    16    1
     8    24    23    1
     9     2     3    1
    10     2     8    1
    11    12     3    1
    12    16    17    1
    13     9    10    1
    14     9    11    1
    15     9     8    1
    16    17    18    1
    17     3     4    1
    18     8     7    1
    19    23    22    1
    20    19    18    1
    21    19    20    1
    22     4     5    1
    23     7     5    1
    24    22    21    1
    25    21    20    1
    26     5     6    1
