@<TRIPOS>MOLECULE
2whw_HEM_A_1.pdb
 43 50 0 0 0
SMALL
GASTEIGER

@<TRIPOS>ATOM
      1 FE         51.1930   24.0940   64.1580 Fe    1407  HEM1407     0.0000
      2  CHA       50.3770   21.8480   66.6880 C.2   1407  HEM1407     0.0000
      3  CHB       48.2920   23.1510   62.5320 C.2   1407  HEM1407     0.0000
      4  CHC       52.0450   25.9880   61.5160 C.2   1407  HEM1407     0.0000
      5  CHD       54.3610   24.2860   65.3350 C.2   1407  HEM1407     0.0000
      6  NA        49.6920   22.7420   64.4580 N.ar  1407  HEM1407     0.0000
      7  C1A       49.5010   21.9890   65.6050 C.ar  1407  HEM1407     0.0000
      8  C2A       48.1990   21.3720   65.5690 C.ar  1407  HEM1407     0.0000
      9  C3A       47.6450   21.7130   64.4290 C.ar  1407  HEM1407     0.0000
     10  C4A       48.5630   22.5870   63.7340 C.ar  1407  HEM1407     0.0000
     11  CMA       46.2560   21.2160   63.9250 C.3   1407  HEM1407     0.0000
     12  CAA       47.6020   20.4750   66.6800 C.3   1407  HEM1407     0.0000
     13  CBA       47.8840   18.9810   66.3800 C.3   1407  HEM1407     0.0000
     14  CGA       47.0380   18.0570   67.2960 C.2   1407  HEM1407     0.0000
     15  O1A       47.0440   16.8770   67.0120 O.co2 1407  HEM1407     0.0000
     16  O2A       46.3910   18.4090   68.3430 O.co2 1407  HEM1407     0.0000
     17  NB        50.3280   24.4350   62.2920 N.2   1407  HEM1407     0.0000
     18  C1B       49.0630   24.1000   61.8890 C.2   1407  HEM1407     0.0000
     19  C2B       48.7590   24.7960   60.6580 C.2   1407  HEM1407     0.0000
     20  C3B       49.8260   25.5750   60.4210 C.2   1407  HEM1407     0.0000
     21  C4B       50.8190   25.3540   61.4280 C.2   1407  HEM1407     0.0000
     22  CMB       47.4180   24.7090   59.8670 C.3   1407  HEM1407     0.0000
     23  CAB       50.1210   26.5280   59.2640 C.2   1407  HEM1407     0.0000
     24  CBB       49.1580   27.0980   58.5820 C.2   1407  HEM1407     0.0000
     25  NC        52.9200   24.8870   63.4930 N.ar  1407  HEM1407     0.0000
     26  C1C       53.0030   25.7970   62.4690 C.ar  1407  HEM1407     0.0000
     27  C2C       54.3190   26.4710   62.5250 C.ar  1407  HEM1407     0.0000
     28  C3C       54.9440   26.0000   63.5960 C.ar  1407  HEM1407     0.0000
     29  C4C       54.0640   25.0360   64.2370 C.ar  1407  HEM1407     0.0000
     30  CMC       54.8140   27.5490   61.5220 C.3   1407  HEM1407     0.0000
     31  CAC       56.3800   26.3350   64.0200 C.2   1407  HEM1407     0.0000
     32  CBC       56.5080   27.1080   65.0750 C.2   1407  HEM1407     0.0000
     33  ND        52.2040   23.2080   65.7710 N.2   1407  HEM1407     0.0000
     34  C1D       53.5140   23.4810   66.0680 C.2   1407  HEM1407     0.0000
     35  C2D       53.8850   22.7750   67.2650 C.2   1407  HEM1407     0.0000
     36  C3D       52.6620   22.0410   67.6810 C.2   1407  HEM1407     0.0000
     37  C4D       51.6770   22.3430   66.6980 C.2   1407  HEM1407     0.0000
     38  CMD       55.2180   22.7400   68.0470 C.3   1407  HEM1407     0.0000
     39  CAD       52.5040   21.1640   68.9560 C.3   1407  HEM1407     0.0000
     40  CBD       51.8840   22.1160   69.9800 C.3   1407  HEM1407     0.0000
     41  CGD       51.6470   21.3110   71.2570 C.2   1407  HEM1407     0.0000
     42  O1D       51.4620   21.9950   72.2500 O.co2 1407  HEM1407     0.0000
     43  O2D       51.6500   20.0340   71.3260 O.co2 1407  HEM1407     0.0000
@<TRIPOS>BOND
     1    24    23    2
     2    23    20    1
     3    22    19    1
     4    20    19    2
     5    20    21    1
     6    19    18    1
     7    21     4    2
     8    21    17    1
     9     4    26    1
    10    30    27    1
    11    18    17    2
    12    18     3    1
    13    17     1    1
    14    26    27   ar
    15    26    25   ar
    16    27    28   ar
    17     3    10    2
    18    25     1    1
    19    25    29   ar
    20    28    31    1
    21    28    29   ar
    22    10     9   ar
    23    10     6   ar
    24    11     9    1
    25    31    32    2
    26     1     6    1
    27     1    33    1
    28    29     5    1
    29     9     8   ar
    30     6     7   ar
    31     5    34    2
    32     8     7   ar
    33     8    12    1
    34     7     2    2
    35    33    34    1
    36    33    37    2
    37    34    35    1
    38    13    12    1
    39    13    14    1
    40     2    37    1
    41    37    36    1
    42    15    14   ar
    43    35    36    2
    44    35    38    1
    45    14    16   ar
    46    36    39    1
    47    39    40    1
    48    40    41    1
    49    41    43   ar
    50    41    42   ar
