@<TRIPOS>MOLECULE
2whx_ADP_A_1.pdb
 27 29 0 0 0
SMALL
GASTEIGER

@<TRIPOS>ATOM
      1  PB        19.8940    0.6320   15.8420 P.3   1619  ADP1619     0.5373
      2  O1B       18.8900    0.2640   16.9140 O.3   1619  ADP1619    -0.1143
      3  O2B       21.3350    0.4010   16.2470 O.3   1619  ADP1619    -0.1143
      4  O3B       19.6330    1.9720   15.2160 O.2   1619  ADP1619    -0.2221
      5  PA        20.6580   -1.3770   13.9730 P.3   1619  ADP1619     0.2231
      6  O1A       21.1210   -2.3910   14.9840 O.3   1619  ADP1619    -0.4370
      7  O2A       21.6680   -0.5180   13.2640 O.2   1619  ADP1619    -0.5169
      8  O3A       19.5640   -0.4060   14.6570 O.3   1619  ADP1619    -0.2261
      9  O5'       19.7600   -2.1500   12.8820 O.3   1619  ADP1619    -0.3111
     10  C5'       19.2530   -1.5130   11.7120 C.3   1619  ADP1619     0.1813
     11  C4'       18.4330   -2.5120   10.9010 C.3   1619  ADP1619     0.1821
     12  O4'       19.2710   -3.5940   10.4830 O.3   1619  ADP1619    -0.3135
     13  C3'       17.2930   -3.1350   11.7040 C.3   1619  ADP1619     0.2184
     14  O3'       16.1290   -3.1660   10.8750 O.3   1619  ADP1619    -0.2174
     15  C2'       17.7500   -4.5520   11.9910 C.3   1619  ADP1619     0.2570
     16  O2'       16.6540   -5.4620   12.1050 O.3   1619  ADP1619    -0.2130
     17  C1'       18.6290   -4.8390   10.7800 C.3   1619  ADP1619     0.3186
     18  N9        19.6380   -5.9140   10.9650 N.pl3 1619  ADP1619    -0.1439
     19  C8        20.4000   -6.1540   12.0490 C.3   1619  ADP1619     0.3377
     20  N7        21.2140   -7.2230   11.8450 N.2   1619  ADP1619    -0.2095
     21  C5        20.9810   -7.6820   10.5990 C.2   1619  ADP1619     0.2526
     22  C6        21.4910   -8.7820    9.7350 C.2   1619  ADP1619     0.4393
     23  N6        22.4490   -9.6360   10.1750 N.pl3 1619  ADP1619     0.2180
     24  N1        20.9670   -8.9080    8.4860 N.2   1619  ADP1619     0.0021
     25  C2        20.0120   -8.0730    8.0190 C.3   1619  ADP1619     0.5254
     26  N3        19.5070   -7.0580    8.7520 N.2   1619  ADP1619    -0.0055
     27  C4        19.9420   -6.8130   10.0220 C.2   1619  ADP1619     0.3518
@<TRIPOS>BOND
     1    25    24    1
     2    25    26    1
     3    24    22    2
     4    26    27    2
     5    22    23    1
     6    22    21    1
     7    27    21    1
     8    27    18    1
     9    12    17    1
    10    12    11    1
    11    21    20    2
    12    17    18    1
    13    17    15    1
    14    14    13    1
    15    11    13    1
    16    11    10    1
    17    18    19    1
    18    13    15    1
    19    10     9    1
    20    20    19    1
    21    15    16    1
    22     9     5    1
    23     7     5    2
    24     5     8    1
    25     5     6    1
    26     8     1    1
    27     4     1    2
    28     1     3    1
    29     1     2    1
