@<TRIPOS>MOLECULE
2why_III_B_1.pdb
 21 21 0 0 0
SMALL
GASTEIGER

@<TRIPOS>ATOM
      1  O17       -6.9510  -18.6950  -21.4340 O.2    11  DBH11      -0.2682
      2  C21       -6.5520  -18.7890  -20.0540 C.2    11  DBH11       0.2685
      3  C18       -5.7400  -17.5670  -19.6520 C.ar   11  DBH11       0.0971
      4  C15       -5.4650  -16.5470  -20.5720 C.ar   11  DBH11       0.0080
      5  C12       -4.7460  -15.4260  -20.1900 C.ar   11  DBH11       0.0036
      6  C3        -5.2920  -17.4390  -18.3400 C.ar   11  DBH11       0.2386
      7  O3        -5.5310  -18.3870  -17.3890 O.3    11  DBH11      -0.2830
      8  C6        -4.5860  -16.3240  -17.9520 C.ar   11  DBH11       0.2344
      9  C9        -4.3090  -15.3170  -18.8780 C.ar   11  DBH11       0.0454
     10  O6        -4.1790  -16.2400  -16.6530 O.3    11  DBH11      -0.2831
     11  N         -7.0110  -19.4260  -19.3810 N.am   12  GLY12      -0.1916
     12  CA        -8.0830  -20.4070  -19.4330 C.3    12  GLY12       0.2017
     13  C         -7.8280  -21.7930  -20.0100 C.2    12  GLY12       0.2639
     14  O         -8.7230  -22.4320  -20.4780 O.2    12  GLY12      -0.2714
     15  N         -6.5960  -22.2500  -19.9240 N.am   13  THR13      -0.1950
     16  CA        -6.3400  -23.6230  -20.3020 C.3    13  THR13       0.1897
     17  C         -7.0140  -24.5400  -19.3160 C.2    13  THR13       0.2313
     18  O         -7.3610  -25.6280  -19.7070 O.2    13  THR13      -0.2863
     19  CB        -4.8630  -24.0210  -20.4440 C.3    13  THR13       0.1794
     20  OG1       -4.2330  -24.0780  -19.1670 O.3    13  THR13      -0.2208
     21  CG2       -4.1390  -23.0610  -21.3300 C.3    13  THR13       0.0378
@<TRIPOS>BOND
     1     1     2    2
     2    21    19    1
     3     4     5   ar
     4     4     3   ar
     5    14    13    2
     6    19    16    1
     7    19    20    1
     8    16    15    1
     9    16    17    1
    10     5     9   ar
    11     2     3    1
    12     2    11   am
    13    13    15   am
    14    13    12    1
    15    18    17    2
    16     3     6   ar
    17    12    11    1
    18     9     8   ar
    19     6     8   ar
    20     6     7    1
    21     8    10    1
