@<TRIPOS>MOLECULE
2whz_TYR_A_1.pdb
 13 13 0 0 0
SMALL
GASTEIGER

@<TRIPOS>ATOM
      1  N         37.6530   39.7390   -3.9810 N.3   1002  TYR1002    -0.1205
      2  CA        38.8340   38.9840   -4.4220 C.3   1002  TYR1002     0.1986
      3  C         38.4300   37.8580   -5.3600 C.2   1002  TYR1002     0.3822
      4  O         39.3020   37.2190   -5.9830 O.co2 1002  TYR1002    -0.2440
      5  CB        39.6320   38.4730   -3.2250 C.3   1002  TYR1002     0.0569
      6  CG        38.9830   37.2850   -2.5470 C.ar  1002  TYR1002    -0.0200
      7  CD1       39.2490   35.9890   -2.9920 C.ar  1002  TYR1002    -0.0009
      8  CD2       38.1000   37.4470   -1.4960 C.ar  1002  TYR1002    -0.0009
      9  CE1       38.6690   34.8850   -2.3960 C.ar  1002  TYR1002     0.0417
     10  CE2       37.5250   36.3490   -0.8810 C.ar  1002  TYR1002     0.0417
     11  CZ        37.8120   35.0640   -1.3390 C.ar  1002  TYR1002     0.1957
     12  OH        37.2570   33.9100   -0.7640 O.3   1002  TYR1002    -0.2866
     13  OXT       37.2260   37.5940   -5.5430 O.co2 1002  TYR1002    -0.2440
@<TRIPOS>BOND
     1     4     3   ar
     2    13     3   ar
     3     3     2    1
     4     2     1    1
     5     2     5    1
     6     5     6    1
     7     7     6   ar
     8     7     9   ar
     9     6     8   ar
    10     9    11   ar
    11     8    10   ar
    12    11    10   ar
    13    11    12    1
