@<TRIPOS>MOLECULE
2wi0_TRP_A_1.pdb
 15 16 0 0 0
SMALL
GASTEIGER

@<TRIPOS>ATOM
      1  N         37.6320   39.6000   -4.0720 N.3   1002  TRP1002    -0.1205
      2  CA        38.8010   38.8420   -4.5020 C.3   1002  TRP1002     0.1987
      3  C         38.3800   37.7220   -5.4400 C.2   1002  TRP1002     0.3822
      4  O         37.1810   37.5040   -5.6490 O.co2 1002  TRP1002    -0.2440
      5  CB        39.5650   38.3090   -3.2970 C.3   1002  TRP1002     0.0585
      6  CG        38.7910   37.3380   -2.4710 C.2   1002  TRP1002     0.0001
      7  CD1       37.8810   37.6310   -1.5140 C.2   1002  TRP1002     0.0946
      8  CD2       38.8630   35.9090   -2.5400 C.2   1002  TRP1002     0.0113
      9  NE1       37.3770   36.4740   -0.9630 N.2   1002  TRP1002    -0.2442
     10  CE2       37.9640   35.4010   -1.5760 C.2   1002  TRP1002     0.0804
     11  CE3       39.6170   35.0080   -3.3130 C.2   1002  TRP1002    -0.0202
     12  CZ2       37.7790   34.0250   -1.3610 C.2   1002  TRP1002     0.0148
     13  CZ3       39.4310   33.6320   -3.1130 C.3   1002  TRP1002     0.0521
     14  CH2       38.5130   33.1560   -2.1340 C.2   1002  TRP1002    -0.0199
     15  OXT       39.2160   37.0160   -6.0190 O.co2 1002  TRP1002    -0.2440
@<TRIPOS>BOND
     1    15     3   ar
     2     4     3   ar
     3     3     2    1
     4     2     1    1
     5     2     5    1
     6    11    13    1
     7    11     8    2
     8     5     6    1
     9    13    14    1
    10     8     6    1
    11     8    10    1
    12     6     7    2
    13    14    12    2
    14    10    12    1
    15    10     9    2
    16     7     9    1
