@<TRIPOS>MOLECULE
2wi1_ZZ2_A_1.pdb
 13 13 0 0 0
SMALL
GASTEIGER

@<TRIPOS>ATOM
      1  N2        28.8590   11.2400   23.5270 N.pl3 1225  ZZ21225    -0.0232
      2  C3        29.9340   10.8100   24.2300 C.1   1225  ZZ21225     0.2434
      3  N3        29.7570   10.2490   25.4470 N.2   1225  ZZ21225    -0.2924
      4  C4        30.8160    9.8140   26.1630 C.2   1225  ZZ21225     0.2717
      5  C5        32.0970    9.9450   25.6420 C.3   1225  ZZ21225     0.1550
      6  C2        32.2570   10.5230   24.3910 C.2   1225  ZZ21225     0.1113
      7  C1        33.6340   10.6780   23.7990 C.3   1225  ZZ21225     0.0631
      8  N1        31.1730   10.9460   23.7060 N.2   1225  ZZ21225    -0.3341
      9  O1        30.6280    9.2470   27.3950 O.2   1225  ZZ21225    -0.4512
     10  C6        31.4410    8.1500   27.8070 C.3   1225  ZZ21225     0.2397
     11  C7        32.1620    7.5690   26.5960 C.3   1225  ZZ21225     0.1895
     12  O2        31.3850    6.5080   26.0440 O.3   1225  ZZ21225    -0.3471
     13  C8        31.2920    6.6040   24.6240 C.3   1225  ZZ21225     0.1743
@<TRIPOS>BOND
     1     1     2    1
     2     8     2    2
     3     8     6    2
     4     7     6    1
     5     2     3    2
     6     6     5    1
     7    13    12    1
     8     3     4    2
     9     5     4    1
    10    12    11    1
    11     4     9    1
    12    11    10    1
    13     9    10    1
