@<TRIPOS>MOLECULE
2wi2_ZZ3_A_1.pdb
 10 10 0 0 0
SMALL
GASTEIGER

@<TRIPOS>ATOM
      1  N5        61.4660   11.3450   48.3580 N.pl3 1226  ZZ31226    -0.0220
      2  C2        62.4980   10.8030   49.0480 C.1   1226  ZZ31226     0.2613
      3  N4        62.2610   10.1050   50.1800 N.2   1226  ZZ31226    -0.2517
      4  N1        63.7640   10.9600   48.6050 N.2   1226  ZZ31226    -0.2621
      5  C3        64.7920   10.4200   49.2930 C.1   1226  ZZ31226     0.1401
      6  C8        66.2040   10.5950   48.7980 C.3   1226  ZZ31226     0.1448
      7  N3        64.5550    9.7220   50.4240 N.2   1226  ZZ31226    -0.2717
      8  C4        63.2900    9.5650   50.8680 C.1   1226  ZZ31226     0.1899
      9  S1        62.9920    8.6900   52.2880 S.3   1226  ZZ31226    -0.0158
     10  C6        64.4120    7.7290   52.6940 C.3   1226  ZZ31226     0.0872
@<TRIPOS>BOND
     1     1     2    1
     2     4     2    2
     3     4     5    2
     4     6     5    1
     5     2     3    2
     6     5     7    2
     7     3     8    2
     8     7     8    2
     9     8     9    1
    10     9    10    1
