@<TRIPOS>MOLECULE
2wi3_ZZ3_A_1.pdb
 10 10 0 0 0
SMALL
GASTEIGER

@<TRIPOS>ATOM
      1  N5        29.0380   10.7580   24.5430 N.pl3 1225  ZZ31225    -0.0220
      2  C2        30.2050   11.1050   23.9490 C.1   1225  ZZ31225     0.2613
      3  N1        30.1940   11.8090   22.7970 N.2   1225  ZZ31225    -0.2621
      4  C3        31.3570   12.1550   22.2050 C.1   1225  ZZ31225     0.1401
      5  C8        31.3440   12.9400   20.9210 C.3   1225  ZZ31225     0.1448
      6  N4        31.3800   10.7470   24.5090 N.2   1225  ZZ31225    -0.2517
      7  C4        32.5430   11.0920   23.9170 C.1   1225  ZZ31225     0.1899
      8  N3        32.5320   11.7970   22.7660 N.2   1225  ZZ31225    -0.2717
      9  S1        34.0180   10.6420   24.6210 S.3   1225  ZZ31225    -0.0158
     10  C6        35.2070   10.3470   23.3540 C.3   1225  ZZ31225     0.0872
@<TRIPOS>BOND
     1     5     4    1
     2     4     8    2
     3     4     3    2
     4     8     7    2
     5     3     2    2
     6    10     9    1
     7     7     6    2
     8     7     9    1
     9     2     6    2
    10     2     1    1
