@<TRIPOS>MOLECULE
2wi4_ZZ4_A_1.pdb
 23 25 0 0 0
SMALL
GASTEIGER

@<TRIPOS>ATOM
      1 CL1         6.3250   11.0900   22.6650 Cl    1224  ZZ41224    -0.0822
      2  C2         4.6490   11.0350   23.3060 C.ar  1224  ZZ41224     0.0585
      3  C1         4.0200    9.8040   23.4780 C.ar  1224  ZZ41224     0.0115
      4  C5         2.7220    9.7200   23.9730 C.ar  1224  ZZ41224     0.0043
      5  C3         3.9970   12.2220   23.6250 C.ar  1224  ZZ41224     0.0229
      6  C4         2.7010   12.1900   24.1220 C.ar  1224  ZZ41224     0.0610
      7 CL2         1.8470   13.7130   24.5380 Cl    1224  ZZ41224    -0.0821
      8  C6         2.0320   10.8780   24.3050 C.ar  1224  ZZ41224     0.0428
      9  C7         0.6450   10.8050   24.8340 C.2   1224  ZZ41224     0.1657
     10  N1        -0.3910   11.3010   24.1270 N.2   1224  ZZ41224    -0.3335
     11  C9         0.3680   10.1870   26.1520 C.2   1224  ZZ41224     0.1531
     12  C10       -0.9470   10.1490   26.5920 C.2   1224  ZZ41224     0.1353
     13  N3        -1.9140   10.6660   25.8230 N.2   1224  ZZ41224    -0.1656
     14  C8        -1.6500   11.2290   24.6190 C.1   1224  ZZ41224     0.1865
     15  N2        -2.6740   11.7350   23.8880 N.pl3 1224  ZZ41224    -0.0345
     16  N4         1.4030    9.6560   26.9300 N.2   1224  ZZ41224    -0.1437
     17  N5         1.2450    8.5780   27.5220 N.2   1224  ZZ41224    -0.1479
     18  C13        2.2810    8.0480   28.3000 C.ar  1224  ZZ41224     0.1029
     19  C14        3.5650    8.5690   28.1940 C.ar  1224  ZZ41224     0.0209
     20  C15        4.5940    8.0430   28.9670 C.ar  1224  ZZ41224     0.0016
     21  C16        4.3390    6.9950   29.8440 C.ar  1224  ZZ41224     0.0001
     22  C11        3.0550    6.4740   29.9490 C.ar  1224  ZZ41224     0.0016
     23  C12        2.0260    7.0000   29.1770 C.ar  1224  ZZ41224     0.0209
@<TRIPOS>BOND
     1     1     2    1
     2     2     3   ar
     3     2     5   ar
     4     3     4   ar
     5     5     6   ar
     6    15    14    1
     7     4     8   ar
     8     6     8   ar
     9     6     7    1
    10    10    14    2
    11    10     9    2
    12     8     9    1
    13    14    13    2
    14     9    11    1
    15    13    12    1
    16    11    12    2
    17    11    16    1
    18    16    17    2
    19    17    18    1
    20    19    18   ar
    21    19    20   ar
    22    18    23   ar
    23    20    21   ar
    24    23    22   ar
    25    21    22   ar
