@<TRIPOS>MOLECULE
2wi5_ZZ5_A_1.pdb
 25 27 0 0 0
SMALL
GASTEIGER

@<TRIPOS>ATOM
      1  N19       31.9090   11.8660   21.6460 N.1   1225  ZZ51225    -0.1907
      2  C14       31.6460   11.3750   22.6610 C.1   1225  ZZ51225     0.1041
      3  C6        31.3540   10.8300   23.7880 C.2   1225  ZZ51225     0.1120
      4  C13       29.9940   10.9960   24.3770 C.2   1225  ZZ51225     0.2286
      5  N18       29.0690   11.7290   23.7110 N.pl3 1225  ZZ51225    -0.0925
      6  N8        29.6630   10.4300   25.5650 N.2   1225  ZZ51225    -0.3804
      7  C3        30.5440    9.6850   26.2810 C.2   1225  ZZ51225     0.1495
      8  S7        30.1580    8.9680   27.7650 S.3   1225  ZZ51225    -0.0533
      9  C9        31.7160    8.2410   28.0130 C.2   1225  ZZ51225     0.1014
     10  C15       32.0050    7.4280   29.2280 C.2   1225  ZZ51225     0.2913
     11  N20       30.9910    7.0510   30.0050 N.am  1225  ZZ51225    -0.0832
     12  O21       33.1590    7.1260   29.4850 O.2   1225  ZZ51225    -0.2661
     13  C4        32.5890    8.5860   26.8570 C.2   1225  ZZ51225     0.0882
     14  N10       33.8720    8.1630   26.7600 N.pl3 1225  ZZ51225    -0.1313
     15  C1        31.9390    9.4370   25.8110 C.3   1225  ZZ51225     0.1215
     16  C2        32.3650   10.0280   24.5190 C.2   1225  ZZ51225     0.0037
     17  C5        33.7370    9.8250   23.9830 C.ar  1225  ZZ51225    -0.0022
     18  C12       34.6250   10.8930   23.9250 C.ar  1225  ZZ51225     0.0028
     19  C17       35.9080   10.7040   23.4250 C.ar  1225  ZZ51225     0.0369
     20  C11       34.1320    8.5680   23.5410 C.ar  1225  ZZ51225     0.0028
     21  C16       35.4150    8.3790   23.0400 C.ar  1225  ZZ51225     0.0369
     22  C22       36.3030    9.4470   22.9820 C.ar  1225  ZZ51225     0.1385
     23  O23       37.5670    9.2610   22.4890 O.3   1225  ZZ51225    -0.4755
     24  C24       38.2400   10.3310   21.8290 C.3   1225  ZZ51225     0.2055
     25  C25       39.6780   10.3870   22.2980 C.3   1225  ZZ51225     0.0512
@<TRIPOS>BOND
     1     1     2    3
     2    24    25    1
     3    24    23    1
     4    23    22    1
     5     2     3    1
     6    22    21   ar
     7    22    19   ar
     8    21    20   ar
     9    19    18   ar
    10    20    17   ar
    11     5     4    1
    12     3     4    1
    13     3    16    2
    14    18    17   ar
    15    17    16    1
    16     4     6    2
    17    16    15    1
    18     6     7    2
    19    15     7    1
    20    15    13    1
    21     7     8    1
    22    14    13    1
    23    13     9    2
    24     8     9    1
    25     9    10    1
    26    10    12    2
    27    10    11   am
