@<TRIPOS>MOLECULE
2wi6_ZZ6_A_1.pdb
 23 25 0 0 0
SMALL
GASTEIGER

@<TRIPOS>ATOM
      1 CL2        32.8790   13.3650   24.5910 Cl    1224  ZZ61224    -0.0821
      2  C21       33.9130   11.9440   24.2230 C.ar  1224  ZZ61224     0.0607
      3  C20       35.2100   12.1180   23.7590 C.ar  1224  ZZ61224     0.0229
      4  C19       36.0030   11.0090   23.4770 C.ar  1224  ZZ61224     0.0585
      5 CL1        37.6780   11.2480   22.8790 Cl    1224  ZZ61224    -0.0822
      6  C18       35.5130    9.7170   23.6530 C.ar  1224  ZZ61224     0.0115
      7  C17       34.2200    9.4910   24.1150 C.ar  1224  ZZ61224     0.0040
      8  C11       33.3930   10.5670   24.4090 C.ar  1224  ZZ61224     0.0377
      9  C2        32.0090   10.3420   24.9040 C.2   1224  ZZ61224     0.1343
     10  N1        30.9500   10.8790   24.2530 N.2   1224  ZZ61224    -0.3295
     11  C4        29.6670   10.7020   24.6670 C.1   1224  ZZ61224     0.2413
     12  N10       28.6650   11.2740   23.9580 N.pl3 1224  ZZ61224    -0.0232
     13  N3        29.3560    9.9710   25.7670 N.2   1224  ZZ61224    -0.3229
     14  C5        30.3460    9.3940   26.4840 C.2   1224  ZZ61224     0.1626
     15  S9        30.1900    8.4560   27.8650 S.3   1224  ZZ61224    -0.0538
     16  C6        31.7650    9.5260   26.1190 C.3   1224  ZZ61224     0.1354
     17  C7        32.6570    8.8270   27.0260 C.2   1224  ZZ61224    -0.0006
     18  C8        31.9080    8.1950   28.0340 C.2   1224  ZZ61224     0.0831
     19  C12       32.2960    7.3580   29.2040 C.2   1224  ZZ61224     0.2706
     20  O13       33.4550    6.9970   29.3230 O.2   1224  ZZ61224    -0.2678
     21  N14       31.3630    7.0240   30.0910 N.am  1224  ZZ61224    -0.2013
     22  C15       31.6350    6.0830   31.1600 C.3   1224  ZZ61224     0.1155
     23  C16       31.6120    6.7470   32.5190 C.3   1224  ZZ61224     0.0253
@<TRIPOS>BOND
     1     5     4    1
     2     4     6   ar
     3     4     3   ar
     4     6     7   ar
     5     3     2   ar
     6    12    11    1
     7     7     8   ar
     8     2     8   ar
     9     2     1    1
    10    10    11    2
    11    10     9    2
    12     8     9    1
    13    11    13    2
    14     9    16    1
    15    13    14    2
    16    16    14    1
    17    16    17    1
    18    14    15    1
    19    17    18    2
    20    15    18    1
    21    18    19    1
    22    19    20    2
    23    19    21   am
    24    21    22    1
    25    22    23    1
