@<TRIPOS>MOLECULE
2wi7_2KL_A_1.pdb
 31 34 0 0 0
SMALL
GASTEIGER

@<TRIPOS>ATOM
      1  O13        2.0590    7.2400   28.9490 O.2   1224  2KL1224    -0.2678
      2  C12        1.0510    7.8850   29.2430 C.2   1224  2KL1224     0.2706
      3  N14        0.4890    7.8520   30.4580 N.am  1224  2KL1224    -0.2013
      4  C15        1.1850    7.3050   31.6140 C.3   1224  2KL1224     0.1155
      5  C16        0.7380    5.8830   31.9100 C.3   1224  2KL1224     0.0253
      6  C8         0.5000    8.7030   28.1290 C.2   1224  2KL1224     0.0831
      7  S7        -1.2130    9.1500   28.0880 S.3   1224  2KL1224    -0.0538
      8  C9         1.2360    9.1630   27.0410 C.2   1224  2KL1224    -0.0006
      9  C5         0.3500    9.8830   26.1570 C.3   1224  2KL1224     0.1354
     10  C6        -1.0460    9.9550   26.6150 C.2   1224  2KL1224     0.1626
     11  N3        -1.9840   10.5990   25.8930 N.2   1224  2KL1224    -0.3229
     12  C2        -1.6120   11.1800   24.7230 C.1   1224  2KL1224     0.2413
     13  N11       -2.5630   11.8080   23.9950 N.pl3 1224  2KL1224    -0.0232
     14  N1        -0.3390   11.1480   24.2480 N.2   1224  2KL1224    -0.3295
     15  C4         0.6450   10.5320   24.8900 C.2   1224  2KL1224     0.1344
     16  C10        2.0470   10.4780   24.3850 C.ar  1224  2KL1224     0.0408
     17  C17        2.6530    9.2510   24.0890 C.ar  1224  2KL1224     0.0409
     18  C21        2.8310   11.7270   24.2480 C.ar  1224  2KL1224     0.0609
     19 CL1         2.1430   13.3140   24.6450 Cl    1224  2KL1224    -0.0821
     20  C20        4.1180   11.7140   23.8160 C.ar  1224  2KL1224     0.0259
     21  C19        4.6690   10.5210   23.5120 C.ar  1224  2KL1224     0.0924
     22 CL2         6.3200   10.5950   22.9300 Cl    1224  2KL1224    -0.0791
     23  C18        3.9650    9.2440   23.6360 C.ar  1224  2KL1224     0.1492
     24  O24        4.6230    8.0960   23.2690 O.3   1224  2KL1224    -0.4731
     25  C25        3.9300    6.9030   22.8830 C.3   1224  2KL1224     0.2227
     26  C26        4.9160    5.7480   22.7220 C.3   1224  2KL1224     0.1200
     27  N27        5.1070    5.1180   24.0350 N.3   1224  2KL1224    -0.2696
     28  C28        5.0340    3.6520   24.1870 C.3   1224  2KL1224     0.0722
     29  C31        5.3820    5.8810   25.2640 C.3   1224  2KL1224     0.0722
     30  C30        5.1010    4.8430   26.3650 C.3   1224  2KL1224     0.0188
     31  C29        4.9900    3.4550   25.7190 C.3   1224  2KL1224     0.0188
@<TRIPOS>BOND
     1    26    25    1
     2    26    27    1
     3    25    24    1
     4    22    21    1
     5    24    23    1
     6    21    23   ar
     7    21    20   ar
     8    23    17   ar
     9    20    18   ar
    10    13    12    1
    11    27    28    1
    12    27    29    1
    13    17    16   ar
    14    28    31    1
    15    18    16   ar
    16    18    19    1
    17    14    12    2
    18    14    15    2
    19    16    15    1
    20    12    11    2
    21    15     9    1
    22    29    30    1
    23    31    30    1
    24    11    10    2
    25     9    10    1
    26     9     8    1
    27    10     7    1
    28     8     6    2
    29     7     6    1
    30     6     2    1
    31     1     2    2
    32     2     3   am
    33     3     4    1
    34     4     5    1
