@<TRIPOS>MOLECULE
2wi9_HEM_A_1.pdb
 43 50 0 0 0
SMALL
GASTEIGER

@<TRIPOS>ATOM
      1 FE         50.9320   24.0600   64.2130 Fe    1408  HEM1408     0.0000
      2  CHA       50.1360   21.8400   66.7660 C.2   1408  HEM1408     0.0000
      3  CHB       48.1520   23.1990   62.5870 C.2   1408  HEM1408     0.0000
      4  CHC       51.8530   26.0630   61.5940 C.2   1408  HEM1408     0.0000
      5  CHD       54.1310   24.2860   65.4720 C.2   1408  HEM1408     0.0000
      6  NA        49.4550   22.7410   64.5740 N.ar  1408  HEM1408     0.0000
      7  C1A       49.2480   21.9560   65.7230 C.ar  1408  HEM1408     0.0000
      8  C2A       47.9720   21.3030   65.6010 C.ar  1408  HEM1408     0.0000
      9  C3A       47.4210   21.7030   64.4670 C.ar  1408  HEM1408     0.0000
     10  C4A       48.3410   22.6050   63.8060 C.ar  1408  HEM1408     0.0000
     11  CMA       46.0790   21.2200   63.8860 C.3   1408  HEM1408     0.0000
     12  CAA       47.3270   20.3230   66.5850 C.3   1408  HEM1408     0.0000
     13  CBA       47.6490   18.8460   66.2140 C.3   1408  HEM1408     0.0000
     14  CGA       46.8340   17.8430   67.0520 C.2   1408  HEM1408     0.0000
     15  O1A       46.8250   16.6290   66.7710 O.co2 1408  HEM1408     0.0000
     16  O2A       46.1630   18.2140   68.0360 O.co2 1408  HEM1408     0.0000
     17  NB        50.1640   24.5320   62.2650 N.2   1408  HEM1408     0.0000
     18  C1B       48.9350   24.1410   61.9300 C.2   1408  HEM1408     0.0000
     19  C2B       48.6250   24.8040   60.6840 C.2   1408  HEM1408     0.0000
     20  C3B       49.6480   25.6210   60.4180 C.2   1408  HEM1408     0.0000
     21  C4B       50.6490   25.4330   61.4470 C.2   1408  HEM1408     0.0000
     22  CMB       47.3110   24.6400   59.8870 C.3   1408  HEM1408     0.0000
     23  CAB       49.8610   26.5380   59.2140 C.2   1408  HEM1408     0.0000
     24  CBB       48.8800   27.1050   58.5450 C.2   1408  HEM1408     0.0000
     25  NC        52.6930   24.9550   63.6200 N.ar  1408  HEM1408     0.0000
     26  C1C       52.8020   25.8670   62.5720 C.ar  1408  HEM1408     0.0000
     27  C2C       54.0960   26.4980   62.6450 C.ar  1408  HEM1408     0.0000
     28  C3C       54.7480   25.9730   63.7310 C.ar  1408  HEM1408     0.0000
     29  C4C       53.8670   25.0200   64.3480 C.ar  1408  HEM1408     0.0000
     30  CMC       54.5760   27.5800   61.6390 C.3   1408  HEM1408     0.0000
     31  CAC       56.1580   26.2470   64.2930 C.2   1408  HEM1408     0.0000
     32  CBC       56.4700   27.5000   64.5270 C.2   1408  HEM1408     0.0000
     33  ND        51.9520   23.1810   65.9040 N.2   1408  HEM1408     0.0000
     34  C1D       53.2850   23.4240   66.1520 C.2   1408  HEM1408     0.0000
     35  C2D       53.6680   22.7310   67.4010 C.2   1408  HEM1408     0.0000
     36  C3D       52.4340   21.9810   67.8270 C.2   1408  HEM1408     0.0000
     37  C4D       51.4140   22.3020   66.8120 C.2   1408  HEM1408     0.0000
     38  CMD       55.0510   22.7080   68.1330 C.3   1408  HEM1408     0.0000
     39  CAD       52.3260   21.1110   69.0870 C.3   1408  HEM1408     0.0000
     40  CBD       51.7560   22.0810   70.1290 C.3   1408  HEM1408     0.0000
     41  CGD       51.4030   21.2520   71.3210 C.2   1408  HEM1408     0.0000
     42  O1D       51.2360   21.8800   72.3540 O.co2 1408  HEM1408     0.0000
     43  O2D       51.3850   19.9810   71.2860 O.co2 1408  HEM1408     0.0000
@<TRIPOS>BOND
     1    24    23    2
     2    23    20    1
     3    22    19    1
     4    20    19    2
     5    20    21    1
     6    19    18    1
     7    21     4    2
     8    21    17    1
     9     4    26    1
    10    30    27    1
    11    18    17    2
    12    18     3    1
    13    17     1    1
    14    26    27   ar
    15    26    25   ar
    16     3    10    2
    17    27    28   ar
    18    25     1    1
    19    25    29   ar
    20    28    31    1
    21    28    29   ar
    22    10     9   ar
    23    10     6   ar
    24    11     9    1
    25     1     6    1
    26     1    33    1
    27    31    32    2
    28    29     5    1
    29     9     8   ar
    30     6     7   ar
    31     5    34    2
    32     8     7   ar
    33     8    12    1
    34     7     2    2
    35    33    34    1
    36    33    37    2
    37    34    35    1
    38    13    12    1
    39    13    14    1
    40     2    37    1
    41    15    14   ar
    42    37    36    1
    43    14    16   ar
    44    35    36    2
    45    35    38    1
    46    36    39    1
    47    39    40    1
    48    40    41    1
    49    43    41   ar
    50    41    42   ar
