@<TRIPOS>MOLECULE
2wi9_1D2_A_1.pdb
 24 25 0 0 0
SMALL
GASTEIGER

@<TRIPOS>ATOM
      1  O2        52.9660   13.0570   59.7000 O.3   1409  1D21409    -0.2163
      2  C10       53.7420   13.0670   60.9220 C.3   1409  1D21409     0.2224
      3  C9        53.5380   14.3780   61.7260 C.3   1409  1D21409     0.2679
      4  O3        54.5250   14.4130   62.7520 O.3   1409  1D21409    -0.3311
      5  C15       54.0060   13.5860   63.7940 C.3   1409  1D21409     0.1194
      6  C16       54.9400   13.8000   64.9660 C.3   1409  1D21409     0.0322
      7  C14       53.9130   12.1150   63.3330 C.3   1409  1D21409     0.0483
      8  C11       53.4460   11.8600   61.8700 C.3   1409  1D21409     0.0957
      9  N         54.0590   10.5420   61.4570 N.3   1409  1D21409    -0.2691
     10  C12       53.3790    9.7450   60.4260 C.3   1409  1D21409     0.0897
     11  C13       55.5160   10.4050   61.3700 C.3   1409  1D21409     0.0897
     12  O1        53.3870   15.6110   60.9800 O.3   1409  1D21409    -0.3311
     13  C8        54.3110   16.7380   61.0460 C.3   1409  1D21409     0.1179
     14  C7        53.6620   17.8230   60.2010 C.3   1409  1D21409     0.0296
     15  C6        52.4760   17.2310   59.4350 C.3   1409  1D21409     0.0025
     16  C5        51.2560   17.0730   60.3230 C.3   1409  1D21409     0.0001
     17  C4        50.8340   18.4620   60.7950 C.3   1409  1D21409     0.0000
     18  C3        49.8960   18.3870   61.9830 C.3   1409  1D21409     0.0000
     19  C2        50.1120   19.6060   62.8580 C.3   1409  1D21409     0.0000
     20  C1        51.5190   20.1720   62.7950 C.3   1409  1D21409     0.0000
     21  C20       52.3210   19.8930   64.0570 C.3   1409  1D21409     0.0000
     22  C19       53.7090   19.2990   63.7620 C.3   1409  1D21409     0.0001
     23  C18       53.5940   17.8370   63.3180 C.3   1409  1D21409     0.0025
     24  C17       54.7140   17.3640   62.3980 C.3   1409  1D21409     0.0296
@<TRIPOS>BOND
     1    15    14    1
     2    15    16    1
     3     1     2    1
     4    14    13    1
     5    16    17    1
     6    10     9    1
     7    17    18    1
     8     2     3    1
     9     2     8    1
    10    12    13    1
    11    12     3    1
    12    13    24    1
    13    11     9    1
    14     9     8    1
    15     3     4    1
    16     8     7    1
    17    18    19    1
    18    24    23    1
    19     4     5    1
    20    20    19    1
    21    20    21    1
    22    23    22    1
    23     7     5    1
    24    22    21    1
    25     5     6    1
