@<TRIPOS>MOLECULE
2wib_GDP_A_1.pdb
 28 30 0 0 0
SMALL
GASTEIGER

@<TRIPOS>ATOM
      1  PB        18.0860   36.7840   24.1840 P.3   1262  GDP1262     0.5373
      2  O1B       16.6710   36.2760   24.3100 O.3   1262  GDP1262    -0.1143
      3  O2B       19.0520   36.1660   23.4010 O.2   1262  GDP1262    -0.2221
      4  O3B       18.7950   36.6610   25.6610 O.3   1262  GDP1262    -0.1143
      5  O3A       18.1930   38.2210   23.5360 O.3   1262  GDP1262    -0.2261
      6  PA        16.8310   39.1450   23.4980 P.3   1262  GDP1262     0.2231
      7  O1A       15.6470   38.7140   22.6230 O.2   1262  GDP1262    -0.5169
      8  O2A       16.4410   39.3640   25.0690 O.3   1262  GDP1262    -0.4370
      9  O5'       17.2800   40.5940   22.9490 O.3   1262  GDP1262    -0.3111
     10  C5'       18.6090   41.0420   23.1870 C.3   1262  GDP1262     0.1813
     11  C4'       18.6320   42.6120   22.9490 C.3   1262  GDP1262     0.1799
     12  O4'       18.7630   42.6020   21.4960 O.3   1262  GDP1262    -0.3326
     13  C3'       17.2270   43.1230   23.2760 C.3   1262  GDP1262     0.2158
     14  O3'       17.2920   44.5000   23.6890 O.3   1262  GDP1262    -0.2175
     15  C2'       16.5480   43.0810   21.9710 C.3   1262  GDP1262     0.2310
     16  O2'       15.6950   44.2020   21.9130 O.3   1262  GDP1262    -0.2158
     17  C1'       17.6270   43.2970   20.9760 C.3   1262  GDP1262     0.2293
     18  N9        17.4570   42.7070   19.6970 N.pl3 1262  GDP1262    -0.2354
     19  C8        16.9540   41.5060   19.3530 C.3   1262  GDP1262     0.2246
     20  N7        17.0600   41.4070   17.9400 N.2   1262  GDP1262    -0.2322
     21  C5        17.5730   42.5030   17.4060 C.2   1262  GDP1262     0.2182
     22  C6        17.8640   42.9250   16.0750 C.1   1262  GDP1262     0.2372
     23  O6        17.6360   42.2090   15.0530 O.2   1262  GDP1262    -0.2069
     24  N1        18.5310   44.2080   15.9590 N.2   1262  GDP1262    -0.2485
     25  C2        18.7620   45.0130   17.1000 C.1   1262  GDP1262     0.2531
     26  N2        19.2790   46.2570   17.0290 N.pl3 1262  GDP1262    -0.0226
     27  N3        18.4110   44.5180   18.3200 N.2   1262  GDP1262    -0.3074
     28  C4        17.8460   43.3210   18.5210 C.2   1262  GDP1262     0.2300
@<TRIPOS>BOND
     1    23    22    2
     2    24    22    2
     3    24    25    2
     4    22    21    1
     5    26    25    1
     6    25    27    2
     7    21    20    2
     8    21    28    1
     9    20    19    1
    10    27    28    2
    11    28    18    1
    12    19    18    1
    13    18    17    1
    14    17    12    1
    15    17    15    1
    16    12    11    1
    17    16    15    1
    18    15    13    1
    19     7     6    2
    20    11    10    1
    21    11    13    1
    22     9    10    1
    23     9     6    1
    24    13    14    1
    25     3     1    2
    26     6     5    1
    27     6     8    1
    28     5     1    1
    29     1     2    1
    30     1     4    1
