@<TRIPOS>MOLECULE
2wic_GNP_A_1.pdb
 32 34 0 0 0
SMALL
GASTEIGER

@<TRIPOS>ATOM
      1  PG        26.8810    9.2710   65.0420 P.3   1265  GNP1265     0.4884
      2  O1G       27.1890    9.3910   63.5410 O.2   1265  GNP1265    -0.2331
      3  O2G       27.8640    8.2290   65.4990 O.3   1265  GNP1265    -0.1240
      4  O3G       26.7770   10.7360   65.7860 O.3   1265  GNP1265    -0.1240
      5  N3B       25.3620    8.6570   65.1780 N.3   1265  GNP1265    -0.0163
      6  PB        25.0810    6.9590   65.3600 P.3   1265  GNP1265     0.4669
      7  O1B       26.0220    6.0530   66.0080 O.3   1265  GNP1265    -0.1253
      8  O2B       24.3520    6.7760   63.8660 O.2   1265  GNP1265    -0.2351
      9  O3A       23.6700    6.9760   66.2460 O.3   1265  GNP1265    -0.2360
     10  PA        23.2780    6.4800   67.7580 P.3   1265  GNP1265     0.2220
     11  O1A       23.3910    5.0290   67.9630 O.2   1265  GNP1265    -0.5170
     12  O2A       24.3170    7.3300   68.5610 O.3   1265  GNP1265    -0.4370
     13  O5'       21.8580    6.9670   67.8040 O.3   1265  GNP1265    -0.3111
     14  C5'       21.3590    8.3320   67.8000 C.3   1265  GNP1265     0.1813
     15  C4'       20.1590    8.2480   68.6850 C.3   1265  GNP1265     0.1799
     16  O4'       19.0170    7.4680   68.0190 O.3   1265  GNP1265    -0.3326
     17  C3'       20.3220    7.5780   70.0600 C.3   1265  GNP1265     0.2158
     18  O3'       19.6590    8.3010   71.1450 O.3   1265  GNP1265    -0.2175
     19  C2'       19.4920    6.3100   69.9630 C.3   1265  GNP1265     0.2310
     20  O2'       18.8810    6.0970   71.1840 O.3   1265  GNP1265    -0.2158
     21  C1'       18.3590    6.6520   68.8860 C.3   1265  GNP1265     0.2293
     22  N9        18.0420    5.4760   68.0700 N.pl3 1265  GNP1265    -0.2354
     23  C8        18.8830    4.6250   67.4520 C.3   1265  GNP1265     0.2246
     24  N7        18.1600    3.6290   66.8530 N.2   1265  GNP1265    -0.2322
     25  C5        16.8650    3.8630   67.0760 C.2   1265  GNP1265     0.2182
     26  C6        15.6730    3.3700   66.6040 C.1   1265  GNP1265     0.2372
     27  O6        15.4790    2.3120   65.9680 O.2   1265  GNP1265    -0.2069
     28  N1        14.4660    4.0340   67.0550 N.2   1265  GNP1265    -0.2485
     29  C2        14.4870    5.1540   67.8760 C.1   1265  GNP1265     0.2531
     30  N2        13.2750    5.6190   68.2450 N.pl3 1265  GNP1265    -0.0226
     31  N3        15.6540    5.7350   68.1890 N.2   1265  GNP1265    -0.3074
     32  C4        16.8210    5.0820   67.8450 C.2   1265  GNP1265     0.2300
@<TRIPOS>BOND
     1     2     1    2
     2     8     6    2
     3     1     5    1
     4     1     3    1
     5     1     4    1
     6     5     6    1
     7     6     7    1
     8     6     9    1
     9    27    26    2
    10     9    10    1
    11    26    28    2
    12    26    25    1
    13    24    25    2
    14    24    23    1
    15    28    29    2
    16    25    32    1
    17    23    22    1
    18    10    13    1
    19    10    11    2
    20    10    12    1
    21    14    13    1
    22    14    15    1
    23    32    22    1
    24    32    31    2
    25    29    31    2
    26    29    30    1
    27    16    15    1
    28    16    21    1
    29    22    21    1
    30    15    17    1
    31    21    19    1
    32    19    17    1
    33    19    20    1
    34    17    18    1
