@<TRIPOS>MOLECULE
2wid_FUL_A_1.pdb
 10 10 0 0 0
SMALL
GASTEIGER

@<TRIPOS>ATOM
      1  C1       -16.1060   -5.8070  -32.2480 C.3   1542  FUL1542     0.1776
      2  C2       -15.1350   -6.8030  -31.5910 C.3   1542  FUL1542     0.2141
      3  O2       -13.8440   -6.2450  -31.6750 O.3   1542  FUL1542    -0.2176
      4  C3       -15.4220   -7.0630  -30.1010 C.3   1542  FUL1542     0.2172
      5  O3       -14.6680   -8.1340  -29.5710 O.3   1542  FUL1542    -0.2175
      6  C4       -16.9060   -7.3000  -29.7900 C.3   1542  FUL1542     0.2116
      7  O4       -17.2040   -8.6960  -29.8060 O.3   1542  FUL1542    -0.2177
      8  C5       -17.8440   -6.4350  -30.6640 C.3   1542  FUL1542     0.1483
      9  C6       -18.6730   -7.2560  -31.6240 C.3   1542  FUL1542     0.0349
     10  O5       -17.1760   -5.4120  -31.3960 O.3   1542  FUL1542    -0.3508
@<TRIPOS>BOND
     1     1     2    1
     2     1    10    1
     3     3     2    1
     4     9     8    1
     5     2     4    1
     6    10     8    1
     7     8     6    1
     8     4     6    1
     9     4     5    1
    10     7     6    1
