@<TRIPOS>MOLECULE
2wid_TUN_A_1.pdb
 10 9 0 0 0
SMALL
GASTEIGER

@<TRIPOS>ATOM
      1  C2       -20.1070  -36.6160  -22.9870 C.3   1530  TUN1530     0.0351
      2  C1       -19.0430  -37.5430  -23.6220 C.3   1530  TUN1530     0.1499
      3  O2       -17.9500  -37.7490  -22.7230 O.3   1530  TUN1530    -0.3061
      4  P        -16.5680  -37.0080  -22.8620 P.3   1530  TUN1530     0.2956
      5  O3       -16.1700  -36.6810  -24.2420 O.3   1530  TUN1530    -0.1587
      6  N        -15.3790  -37.8770  -21.8780 N.3   1530  TUN1530    -0.2138
      7  C3       -14.1350  -38.2180  -22.5510 C.3   1530  TUN1530     0.0798
      8  C4       -13.5410  -39.4880  -21.9550 C.3   1530  TUN1530     0.0192
      9  C5       -15.9810  -39.0890  -21.3460 C.3   1530  TUN1530     0.0798
     10  C6       -17.0520  -39.6200  -22.3860 C.3   1530  TUN1530     0.0192
@<TRIPOS>BOND
     1     5     4    1
     2     2     1    1
     3     2     3    1
     4     4     3    1
     5     4     6    1
     6     7     8    1
     7     7     6    1
     8    10     9    1
     9     6     9    1
