@<TRIPOS>MOLECULE
2wie_CVM_A_1.pdb
 33 35 0 0 0
SMALL
GASTEIGER

@<TRIPOS>ATOM
      1  C1       -53.9600   17.9460    3.5730 C.3   102  CVM102      0.1449
      2  C2       -53.1680   17.4290    4.7680 C.3   102  CVM102      0.0322
      3  C3       -53.8620   17.8220    6.0660 C.3   102  CVM102      0.0026
      4  C4       -53.7360   16.7180    7.1060 C.3   102  CVM102      0.0001
      5  C6       -54.9510   16.7000    8.0230 C.3   102  CVM102      0.0000
      6  C7       -54.7340   17.6700    9.1770 C.3   102  CVM102      0.0000
      7  C8       -55.8530   17.5630   10.2080 C.3   102  CVM102      0.0000
      8  C9       -56.9400   16.6120    9.7250 C.3   102  CVM102      0.0000
      9  C10      -56.3650   15.2240    9.4790 C.3   102  CVM102      0.0000
     10  C11      -55.1430   15.2920    8.5730 C.3   102  CVM102      0.0000
     11  O12      -53.8030   17.0450    2.4780 O.3   102  CVM102     -0.3286
     12  C13      -55.0620   16.4990    2.0880 C.3   102  CVM102      0.2695
     13  O14      -54.8950   15.1360    1.7180 O.3   102  CVM102     -0.3257
     14  C15      -56.0980   14.4490    1.3470 C.3   102  CVM102      0.1803
     15  C16      -57.0060   15.2200    0.3790 C.3   102  CVM102      0.1804
     16  C17      -57.0040   16.7300    0.6080 C.3   102  CVM102      0.2167
     17  C18      -55.5920   17.2220    0.8680 C.3   102  CVM102      0.2404
     18  C19      -55.6610   13.1040    0.7710 C.3   102  CVM102      0.2141
     19  O20      -56.5260   12.0560    1.2300 O.3   102  CVM102     -0.2176
     20  O21      -57.5220   17.3900   -0.5500 O.3   102  CVM102     -0.2175
     21  O22      -55.5850   18.6280    1.0990 O.3   102  CVM102     -0.2149
     22  O23      -58.3520   14.7420    0.4860 O.3   102  CVM102     -0.3257
     23  C24      -58.7220   13.9680   -0.6570 C.3   102  CVM102      0.2695
     24  O25      -58.0400   12.7210   -0.5300 O.3   102  CVM102     -0.3256
     25  C26      -58.2520   11.7340   -1.5400 C.3   102  CVM102      0.1835
     26  C27      -59.7040   11.6530   -1.9980 C.3   102  CVM102      0.2144
     27  C28      -60.6690   12.3720   -1.0640 C.3   102  CVM102      0.2198
     28  C29      -60.2360   13.7940   -0.7170 C.3   102  CVM102      0.2406
     29  C30      -57.3150   12.0500   -2.7060 C.3   102  CVM102      0.2142
     30  O31      -56.5990   10.8710   -3.0950 O.3   102  CVM102     -0.2176
     31  O32      -60.0640   10.2670   -1.9900 O.3   102  CVM102     -0.2176
     32  O33      -61.9690   12.4070   -1.6740 O.3   102  CVM102     -0.2174
     33  O34      -60.7930   14.1680    0.5490 O.3   102  CVM102     -0.2149
@<TRIPOS>BOND
     1    30    29    1
     2    29    25    1
     3    26    31    1
     4    26    25    1
     5    26    27    1
     6    32    27    1
     7    25    24    1
     8    27    28    1
     9    28    23    1
    10    28    33    1
    11    23    24    1
    12    23    22    1
    13    20    16    1
    14    15    22    1
    15    15    16    1
    16    15    14    1
    17    16    17    1
    18    18    19    1
    19    18    14    1
    20    17    21    1
    21    17    12    1
    22    14    13    1
    23    13    12    1
    24    12    11    1
    25    11     1    1
    26     1     2    1
    27     2     3    1
    28     3     4    1
    29     4     5    1
    30     5    10    1
    31     5     6    1
    32    10     9    1
    33     6     7    1
    34     9     8    1
    35     8     7    1
