@<TRIPOS>MOLECULE
2wif_FUL_A_1.pdb
 10 10 0 0 0
SMALL
GASTEIGER

@<TRIPOS>ATOM
      1  C1       -16.2490   -6.5200  -32.1510 C.3   1541  FUL1541     0.1776
      2  C2       -16.9660   -6.9910  -30.8900 C.3   1541  FUL1541     0.2141
      3  O2       -18.3520   -7.1170  -31.0820 O.3   1541  FUL1541    -0.2176
      4  C3       -16.2520   -8.2940  -30.5170 C.3   1541  FUL1541     0.2172
      5  O3       -16.7650   -8.9250  -29.3320 O.3   1541  FUL1541    -0.2175
      6  C4       -14.7790   -7.9180  -30.3820 C.3   1541  FUL1541     0.2116
      7  O4       -14.6380   -7.1990  -29.1840 O.3   1541  FUL1541    -0.2177
      8  C5       -14.2040   -7.0240  -31.4980 C.3   1541  FUL1541     0.1483
      9  C6       -12.8070   -6.5080  -31.1810 C.3   1541  FUL1541     0.0349
     10  O5       -15.0450   -5.9200  -31.7440 O.3   1541  FUL1541    -0.3508
@<TRIPOS>BOND
     1     1    10    1
     2     1     2    1
     3    10     8    1
     4     8     9    1
     5     8     6    1
     6     3     2    1
     7     2     4    1
     8     4     6    1
     9     4     5    1
    10     6     7    1
