@<TRIPOS>MOLECULE
2wig_FUL_A_1.pdb
 10 10 0 0 0
SMALL
GASTEIGER

@<TRIPOS>ATOM
      1  C1       -16.3560   -5.7770  -32.1420 C.3   1542  FUL1542     0.1776
      2  C2       -15.3490   -6.7990  -31.5840 C.3   1542  FUL1542     0.2141
      3  O2       -14.1200   -6.1680  -31.2640 O.3   1542  FUL1542    -0.2176
      4  C3       -15.7900   -7.6720  -30.3960 C.3   1542  FUL1542     0.2172
      5  O3       -15.8250   -9.0050  -30.8250 O.3   1542  FUL1542    -0.2175
      6  C4       -17.1470   -7.3960  -29.7450 C.3   1542  FUL1542     0.2116
      7  O4       -17.7070   -8.6440  -29.3070 O.3   1542  FUL1542    -0.2177
      8  C5       -18.1150   -6.5600  -30.6110 C.3   1542  FUL1542     0.1483
      9  C6       -18.9550   -7.3820  -31.5690 C.3   1542  FUL1542     0.0349
     10  O5       -17.4880   -5.5080  -31.3290 O.3   1542  FUL1542    -0.3508
@<TRIPOS>BOND
     1     1     2    1
     2     1    10    1
     3     2     3    1
     4     2     4    1
     5     9     8    1
     6    10     8    1
     7     5     4    1
     8     8     6    1
     9     4     6    1
    10     6     7    1
