@<TRIPOS>MOLECULE
2wih_P48_A_1.pdb
 34 38 0 0 0
SMALL
GASTEIGER

@<TRIPOS>ATOM
      1  O1       -15.9130  200.9020  114.1660 O.2   1299  P481299    -0.2667
      2  C2       -15.2110  201.6130  114.8390 C.2   1299  P481299     0.2840
      3  N3       -15.3640  201.8670  116.1430 N.am  1299  P481299    -0.1984
      4  C4       -16.3810  201.3650  117.0520 C.3   1299  P481299     0.1389
      5  C5       -14.0830  202.2570  114.1740 C.ar  1299  P481299     0.1532
      6  N6       -12.9810  202.5980  114.8120 N.ar  1299  P481299    -0.1648
      7  N7       -12.1130  203.1850  113.9230 N.ar  1299  P481299    -0.2465
      8  C8       -10.8340  203.6060  114.5430 C.3   1299  P481299     0.1538
      9  C9       -12.6140  203.2340  112.6960 C.ar  1299  P481299     0.1057
     10  C10      -13.9670  202.6330  112.7350 C.ar  1299  P481299     0.0212
     11  C11      -12.0410  203.8020  111.4510 C.2   1299  P481299     0.1585
     12  C12      -12.8610  203.8550  110.3050 C.2   1299  P481299     0.0301
     13  C13      -14.3240  203.3730  110.2980 C.3   1299  P481299     0.0348
     14  C14      -14.8330  202.5140  111.4660 C.3   1299  P481299     0.0262
     15  C15      -16.3020  202.8570  111.7020 C.3   1299  P481299     0.0048
     16  C16      -14.7320  201.0740  111.0440 C.3   1299  P481299     0.0048
     17  N17      -10.7650  204.2700  111.4250 N.2   1299  P481299    -0.3349
     18  C18      -10.2070  204.8070  110.3170 C.1   1299  P481299     0.1697
     19  N19      -10.9730  204.8600  109.1750 N.2   1299  P481299    -0.1687
     20  C20      -12.2690  204.4110  109.1540 C.2   1299  P481299     0.1101
     21  N21       -8.9410  205.2890  110.3210 N.pl3 1299  P481299    -0.1358
     22  C22       -8.0090  205.3720  111.3390 C.ar  1299  P481299     0.0827
     23  C23       -8.3700  205.6860  112.6930 C.ar  1299  P481299     0.0186
     24  C24       -7.4070  205.7870  113.7010 C.ar  1299  P481299     0.0159
     25  C25       -6.0400  205.5790  113.3840 C.ar  1299  P481299     0.0480
     26  C26       -5.6540  205.2630  112.0330 C.ar  1299  P481299     0.0159
     27  C27       -6.6360  205.1610  111.0230 C.ar  1299  P481299     0.0186
     28  N28       -5.0560  205.6870  114.3790 N.pl3 1299  P481299    -0.3046
     29  C29       -4.9830  206.8790  115.2350 C.3   1299  P481299     0.1081
     30  C30       -5.0720  206.2830  116.6340 C.3   1299  P481299     0.0938
     31  N31       -4.0110  205.2680  116.6620 N.3   1299  P481299    -0.2686
     32  C32       -2.7900  205.4890  117.4260 C.3   1299  P481299     0.0897
     33  C33       -4.1570  204.0360  115.8970 C.3   1299  P481299     0.0938
     34  C34       -4.0870  204.5650  114.4650 C.3   1299  P481299     0.1081
@<TRIPOS>BOND
     1    20    19    1
     2    20    12    2
     3    19    18    2
     4    13    12    1
     5    13    14    1
     6    12    11    1
     7    18    21    1
     8    18    17    2
     9    21    22    1
    10    27    22   ar
    11    27    26   ar
    12    16    14    1
    13    22    23   ar
    14    17    11    2
    15    11     9    1
    16    14    15    1
    17    14    10    1
    18    26    25   ar
    19    23    24   ar
    20     9    10   ar
    21     9     7   ar
    22    10     5   ar
    23    25    24   ar
    24    25    28    1
    25     7     8    1
    26     7     6   ar
    27     1     2    2
    28     5     6   ar
    29     5     2    1
    30    28    34    1
    31    28    29    1
    32    34    33    1
    33     2     3   am
    34    29    30    1
    35    33    31    1
    36     3     4    1
    37    30    31    1
    38    31    32    1
