@<TRIPOS>MOLECULE
2wij_FUL_A_1.pdb
 10 10 0 0 0
SMALL
GASTEIGER

@<TRIPOS>ATOM
      1  C1       -16.2670   -6.1220  -32.4950 C.3   1540  FUL1540     0.1776
      2  C2       -16.9890   -6.5120  -31.2250 C.3   1540  FUL1540     0.2141
      3  O2       -18.3770   -6.6770  -31.3860 O.3   1540  FUL1540    -0.2176
      4  C3       -16.3140   -7.8420  -30.9420 C.3   1540  FUL1540     0.2172
      5  O3       -16.9380   -8.4510  -29.8490 O.3   1540  FUL1540    -0.2175
      6  C4       -14.8170   -7.6240  -30.7000 C.3   1540  FUL1540     0.2116
      7  O4       -14.6260   -7.0060  -29.4390 O.3   1540  FUL1540    -0.2177
      8  C5       -14.1730   -6.7790  -31.8150 C.3   1540  FUL1540     0.1483
      9  C6       -12.7240   -6.4030  -31.5010 C.3   1540  FUL1540     0.0349
     10  O5       -14.9850   -5.6470  -32.1100 O.3   1540  FUL1540    -0.3508
@<TRIPOS>BOND
     1     1    10    1
     2     1     2    1
     3    10     8    1
     4     8     9    1
     5     8     6    1
     6     3     2    1
     7     2     4    1
     8     4     6    1
     9     4     5    1
    10     6     7    1
