@<TRIPOS>MOLECULE
2wik_FUL_A_1.pdb
 10 10 0 0 0
SMALL
GASTEIGER

@<TRIPOS>ATOM
      1  C1       -15.9150   -6.3680  -32.2190 C.3   1541  FUL1541     0.1776
      2  C2       -16.7370   -6.7310  -31.0050 C.3   1541  FUL1541     0.2141
      3  O2       -18.1270   -6.7110  -31.2220 O.3   1541  FUL1541    -0.2176
      4  C3       -16.1670   -8.1200  -30.7860 C.3   1541  FUL1541     0.2172
      5  O3       -16.8350   -8.8450  -29.7540 O.3   1541  FUL1541    -0.2175
      6  C4       -14.6680   -7.9350  -30.5240 C.3   1541  FUL1541     0.2116
      7  O4       -14.5500   -7.3350  -29.2680 O.3   1541  FUL1541    -0.2177
      8  C5       -13.9200   -7.0440  -31.5390 C.3   1541  FUL1541     0.1483
      9  C6       -12.4340   -6.7890  -31.2440 C.3   1541  FUL1541     0.0349
     10  O5       -14.6660   -5.8680  -31.7510 O.3   1541  FUL1541    -0.3508
@<TRIPOS>BOND
     1     1    10    1
     2     1     2    1
     3    10     8    1
     4     8     9    1
     5     8     6    1
     6     3     2    1
     7     2     4    1
     8     4     6    1
     9     4     5    1
    10     6     7    1
