@<TRIPOS>MOLECULE
2wil_FUC_A_1.pdb
 10 10 0 0 0
SMALL
GASTEIGER

@<TRIPOS>ATOM
      1  C1       -18.6480    4.6990    4.1470 C.3   1533  FUC1533     0.1776
      2  C2       -18.2810    3.4140    4.9120 C.3   1533  FUC1533     0.2141
      3  C3       -19.0440    2.2130    4.3490 C.3   1533  FUC1533     0.2172
      4  C4       -19.0070    2.1710    2.8140 C.3   1533  FUC1533     0.2116
      5  C5       -19.2540    3.5320    2.1650 C.3   1533  FUC1533     0.1483
      6  C6       -18.9830    3.4930    0.6660 C.3   1533  FUC1533     0.0349
      7  O2       -18.4780    3.5370    6.3160 O.3   1533  FUC1533    -0.2176
      8  O3       -18.5050    1.0210    4.8800 O.3   1533  FUC1533    -0.2175
      9  O4       -17.7620    1.6790    2.3680 O.3   1533  FUC1533    -0.2177
     10  O5       -18.4170    4.5040    2.7550 O.3   1533  FUC1533    -0.3508
@<TRIPOS>BOND
     1     6     5    1
     2     5    10    1
     3     5     4    1
     4     9     4    1
     5    10     1    1
     6     4     3    1
     7     1     2    1
     8     3     8    1
     9     3     2    1
    10     2     7    1
