@<TRIPOS>MOLECULE
2wio_HEM_A_1.pdb
 43 50 0 0 0
SMALL
GASTEIGER

@<TRIPOS>ATOM
      1 FE          6.7770    3.7080   26.7940 Fe    1412  HEM1412     0.0000
      2  CHA        6.0690    0.6600   27.8720 C.2   1412  HEM1412     0.0000
      3  CHB        7.3410    2.4600   23.5820 C.2   1412  HEM1412     0.0000
      4  CHC        7.4390    6.8420   25.6080 C.2   1412  HEM1412     0.0000
      5  CHD        7.1170    4.8770   30.0440 C.2   1412  HEM1412     0.0000
      6  NA         6.7730    1.8910   25.8790 N.ar  1412  HEM1412     0.0000
      7  C1A        6.3530    0.7690   26.5210 C.ar  1412  HEM1412     0.0000
      8  C2A        6.2230   -0.2700   25.5460 C.ar  1412  HEM1412     0.0000
      9  C3A        6.5740    0.2100   24.3330 C.ar  1412  HEM1412     0.0000
     10  C4A        6.9360    1.5840   24.5420 C.ar  1412  HEM1412     0.0000
     11  CMA        6.6350   -0.5370   22.9720 C.3   1412  HEM1412     0.0000
     12  CAA        5.7440   -1.7010   25.8930 C.3   1412  HEM1412     0.0000
     13  CBA        6.9500   -2.5940   26.1690 C.3   1412  HEM1412     0.0000
     14  CGA        6.4650   -3.9370   26.6230 C.2   1412  HEM1412     0.0000
     15  O1A        5.2660   -4.2570   26.4180 O.co2 1412  HEM1412     0.0000
     16  O2A        7.3040   -4.7030   27.1420 O.co2 1412  HEM1412     0.0000
     17  C1B        7.4240    3.8220   23.7520 C.2   1412  HEM1412     0.0000
     18  C2B        7.5820    4.7740   22.6770 C.2   1412  HEM1412     0.0000
     19  C3B        7.6350    6.0010   23.2220 C.2   1412  HEM1412     0.0000
     20  C4B        7.4980    5.8350   24.6730 C.2   1412  HEM1412     0.0000
     21  CMB        7.7090    4.3320   21.2010 C.3   1412  HEM1412     0.0000
     22  CAB        7.8390    7.3720   22.5210 C.2   1412  HEM1412     0.0000
     23  CBB        7.2720    7.5710   21.3120 C.2   1412  HEM1412     0.0000
     24  NC         7.2690    5.4940   27.6710 N.ar  1412  HEM1412     0.0000
     25  C1C        7.3610    6.6820   26.9730 C.ar  1412  HEM1412     0.0000
     26  C2C        7.3830    7.7590   27.9500 C.ar  1412  HEM1412     0.0000
     27  C3C        7.3030    7.2120   29.1770 C.ar  1412  HEM1412     0.0000
     28  C4C        7.2360    5.7860   29.0220 C.ar  1412  HEM1412     0.0000
     29  CMC        7.4580    9.2500   27.6010 C.3   1412  HEM1412     0.0000
     30  CAC        7.2930    7.9430   30.5310 C.2   1412  HEM1412     0.0000
     31  CBC        6.4990    9.0020   30.7210 C.2   1412  HEM1412     0.0000
     32  ND         6.6060    2.8920   28.6590 N.2   1412  HEM1412     0.0000
     33  C1D        6.7590    3.5600   29.8860 C.2   1412  HEM1412     0.0000
     34  C2D        6.4970    2.6620   30.9730 C.2   1412  HEM1412     0.0000
     35  C3D        6.1830    1.3410   30.2820 C.2   1412  HEM1412     0.0000
     36  C4D        6.2840    1.5760   28.8530 C.2   1412  HEM1412     0.0000
     37  CMD        6.5890    3.0070   32.4970 C.3   1412  HEM1412     0.0000
     38  CAD        5.8290    0.0010   30.9370 C.3   1412  HEM1412     0.0000
     39  CBD        4.3100   -0.0920   31.0110 C.3   1412  HEM1412     0.0000
     40  CGD        4.0280   -1.4110   31.6890 C.2   1412  HEM1412     0.0000
     41  O1D        4.9200   -2.3030   31.6340 O.co2 1412  HEM1412     0.0000
     42  O2D        2.9280   -1.5560   32.2750 O.co2 1412  HEM1412     0.0000
     43  NB         7.3750    4.4960   24.9610 N.2   1412  HEM1412     0.0000
@<TRIPOS>BOND
     1    21    18    1
     2    23    22    2
     3    22    19    1
     4    18    19    2
     5    18    17    1
     6    11     9    1
     7    19    20    1
     8     3    17    1
     9     3    10    2
    10    17    43    2
    11     9    10   ar
    12     9     8   ar
    13    10     6   ar
    14    20    43    1
    15    20     4    2
    16    43     1    1
    17     8    12    1
    18     8     7   ar
    19     4    25    1
    20     6     7   ar
    21     6     1    1
    22    12    13    1
    23    13    14    1
    24    15    14   ar
    25     7     2    2
    26    14    16   ar
    27     1    24    1
    28     1    32    1
    29    25    24   ar
    30    25    26   ar
    31    29    26    1
    32    24    28   ar
    33     2    36    1
    34    26    27   ar
    35    32    36    2
    36    32    33    1
    37    36    35    1
    38    28    27   ar
    39    28     5    1
    40    27    30    1
    41    33     5    2
    42    33    34    1
    43    35    38    1
    44    35    34    2
    45    30    31    2
    46    38    39    1
    47    34    37    1
    48    39    40    1
    49    41    40   ar
    50    40    42   ar
