@<TRIPOS>MOLECULE
2wip_P49_A_1.pdb
 24 27 0 0 0
SMALL
GASTEIGER

@<TRIPOS>ATOM
      1  C1       -12.3210  206.0350  109.7850 C.2   1299  P491299     0.1101
      2  N2       -11.0970  206.5770  109.8910 N.2   1299  P491299    -0.1687
      3  C3       -10.4880  206.5520  111.0820 C.1   1299  P491299     0.1697
      4  N4       -10.9990  206.0300  112.1910 N.2   1299  P491299    -0.3349
      5  C5       -12.9680  205.4470  110.9060 C.2   1299  P491299     0.0301
      6  C6       -12.2260  205.4740  112.1560 C.2   1299  P491299     0.1585
      7  C7       -15.1640  204.7420  112.2000 C.3   1299  P491299     0.0346
      8  C8       -14.4210  204.8870  110.8240 C.3   1299  P491299     0.0354
      9  C9       -14.2100  204.6090  113.4170 C.ar  1299  P491299     0.0238
     10  C10      -12.8250  204.9380  113.3390 C.ar  1299  P491299     0.1058
     11  N11      -12.2440  204.6350  114.5940 N.ar  1299  P491299    -0.2464
     12  N12      -13.2200  204.1470  115.3910 N.ar  1299  P491299    -0.1627
     13  C13      -14.4260  204.1240  114.6970 C.ar  1299  P491299     0.1778
     14  C14      -10.8570  204.7590  115.1200 C.3   1299  P491299     0.1538
     15  N15       -9.1780  207.1160  111.2520 N.pl3 1299  P491299    -0.1358
     16  C16       -8.2500  207.2670  112.3440 C.ar  1299  P491299     0.0826
     17  C17       -8.6520  207.5290  113.6960 C.ar  1299  P491299     0.0173
     18  C18       -7.6820  207.6630  114.7160 C.ar  1299  P491299     0.0014
     19  C19       -6.3070  207.5400  114.3990 C.ar  1299  P491299     0.0001
     20  C20       -5.8980  207.2810  113.0660 C.ar  1299  P491299     0.0014
     21  C21       -6.8690  207.1450  112.0430 C.ar  1299  P491299     0.0173
     22  C22      -15.7430  203.6390  115.2910 C.2   1299  P491299     0.4065
     23  O23      -15.6060  203.2270  116.5890 O.co2 1299  P491299    -0.2388
     24  O24      -16.8140  203.6230  114.6770 O.co2 1299  P491299    -0.2388
@<TRIPOS>BOND
     1     1     2    1
     2     1     5    2
     3     2     3    2
     4     8     5    1
     5     8     7    1
     6     5     6    1
     7     3    15    1
     8     3     4    2
     9    15    16    1
    10    21    16   ar
    11    21    20   ar
    12     6     4    2
    13     6    10    1
    14     7     9    1
    15    16    17   ar
    16    20    19   ar
    17    10     9   ar
    18    10    11   ar
    19     9    13   ar
    20    17    18   ar
    21    19    18   ar
    22    11    14    1
    23    11    12   ar
    24    24    22   ar
    25    13    22    1
    26    13    12   ar
    27    22    23   ar
