@<TRIPOS>MOLECULE
2wiv_HEM_A_1.pdb
 43 50 0 0 0
SMALL
GASTEIGER

@<TRIPOS>ATOM
      1 FE         22.9870   -0.2950   28.0300 Fe    1553  HEM1553     0.0000
      2  CHA       23.4810   -1.4170   31.2160 C.2   1553  HEM1553     0.0000
      3  CHB       19.6160   -0.1380   28.7350 C.2   1553  HEM1553     0.0000
      4  CHC       22.4820    0.8820   24.9530 C.2   1553  HEM1553     0.0000
      5  CHD       26.1750   -1.2150   27.1380 C.2   1553  HEM1553     0.0000
      6  NA        21.7860   -0.7900   29.7160 N.2   1553  HEM1553     0.0000
      7  C1A       22.1710   -1.1990   30.9200 C.2   1553  HEM1553     0.0000
      8  C2A       20.9890   -1.2210   31.7930 C.2   1553  HEM1553     0.0000
      9  C3A       19.9170   -0.9470   31.0550 C.2   1553  HEM1553     0.0000
     10  C4A       20.4160   -0.5830   29.7410 C.2   1553  HEM1553     0.0000
     11  CMA       18.3800   -0.8640   31.4310 C.3   1553  HEM1553     0.0000
     12  CAA       21.0310   -1.6790   33.2630 C.3   1553  HEM1553     0.0000
     13  CBA       21.0670   -3.1990   33.3530 C.3   1553  HEM1553     0.0000
     14  CGA       21.1360   -3.5880   34.8450 C.2   1553  HEM1553     0.0000
     15  O1A       21.2400   -2.6650   35.7150 O.co2 1553  HEM1553     0.0000
     16  O2A       21.1950   -4.8290   35.1220 O.co2 1553  HEM1553     0.0000
     17  NB        21.2760    0.1370   27.0700 N.ar  1553  HEM1553     0.0000
     18  C1B       20.0290    0.3950   27.5310 C.ar  1553  HEM1553     0.0000
     19  C2B       19.2990    1.2360   26.5470 C.ar  1553  HEM1553     0.0000
     20  C3B       20.1610    1.4390   25.5320 C.ar  1553  HEM1553     0.0000
     21  C4B       21.4070    0.7680   25.8140 C.ar  1553  HEM1553     0.0000
     22  CMB       17.8530    1.8550   26.4990 C.3   1553  HEM1553     0.0000
     23  CAB       19.9960    2.2330   24.2130 C.2   1553  HEM1553     0.0000
     24  CBB       18.8740    2.8260   23.8200 C.2   1553  HEM1553     0.0000
     25  NC        24.1370   -0.2050   26.2600 N.2   1553  HEM1553     0.0000
     26  C1C       23.7730    0.4010   25.1270 C.2   1553  HEM1553     0.0000
     27  C2C       24.9340    0.3730   24.2320 C.2   1553  HEM1553     0.0000
     28  C3C       25.9290   -0.1980   24.8920 C.2   1553  HEM1553     0.0000
     29  C4C       25.4570   -0.5690   26.1850 C.2   1553  HEM1553     0.0000
     30  CMC       25.1050    0.9960   22.8070 C.3   1553  HEM1553     0.0000
     31  CAC       27.3730   -0.4500   24.3900 C.3   1553  HEM1553     0.0000
     32  CBC       28.1630    0.3890   25.0030 C.3   1553  HEM1553     0.0000
     33  ND        24.5460   -1.1860   28.9980 N.ar  1553  HEM1553     0.0000
     34  C1D       25.8040   -1.4400   28.4550 C.ar  1553  HEM1553     0.0000
     35  C2D       26.6920   -1.9730   29.4900 C.ar  1553  HEM1553     0.0000
     36  C3D       25.8630   -2.0020   30.7530 C.ar  1553  HEM1553     0.0000
     37  C4D       24.5360   -1.5220   30.3570 C.ar  1553  HEM1553     0.0000
     38  CMD       28.1770   -2.4350   29.4120 C.3   1553  HEM1553     0.0000
     39  CAD       26.3270   -2.4970   32.1490 C.3   1553  HEM1553     0.0000
     40  CBD       26.7340   -1.1830   32.8640 C.3   1553  HEM1553     0.0000
     41  CGD       27.1130   -1.5250   34.3100 C.2   1553  HEM1553     0.0000
     42  O1D       26.7770   -2.6650   34.7740 O.co2 1553  HEM1553     0.0000
     43  O2D       27.7730   -0.7110   34.9640 O.co2 1553  HEM1553     0.0000
@<TRIPOS>BOND
     1    30    27    1
     2    24    23    2
     3    23    20    1
     4    27    28    2
     5    27    26    1
     6    31    28    1
     7    31    32    1
     8    28    29    1
     9     4    26    2
    10     4    21    1
    11    26    25    1
    12    20    21   ar
    13    20    19   ar
    14    21    17   ar
    15    29    25    2
    16    29     5    1
    17    25     1    1
    18    22    19    1
    19    19    18   ar
    20    17    18   ar
    21    17     1    1
    22     5    34    2
    23    18     3    1
    24     1    33    1
    25     1     6    1
    26    34    33   ar
    27    34    35   ar
    28     3    10    2
    29    33    37   ar
    30    38    35    1
    31    35    36   ar
    32     6    10    1
    33     6     7    2
    34    10     9    1
    35    37    36   ar
    36    37     2    2
    37    36    39    1
    38     7     2    1
    39     7     8    1
    40     9    11    1
    41     9     8    2
    42     8    12    1
    43    39    40    1
    44    40    41    1
    45    12    13    1
    46    13    14    1
    47    41    42   ar
    48    41    43   ar
    49    14    16   ar
    50    14    15   ar
