@<TRIPOS>MOLECULE
2wiy_HEM_A_1.pdb
 43 50 0 0 0
SMALL
GASTEIGER

@<TRIPOS>ATOM
      1 FE         19.2980   12.0540   27.4900 Fe    1560  HEM1560     0.0000
      2  CHA       18.3020   15.1900   28.6010 C.2   1560  HEM1560     0.0000
      3  CHB       18.5760   10.7770   30.6540 C.2   1560  HEM1560     0.0000
      4  CHC       20.4750    9.0160   26.5300 C.2   1560  HEM1560     0.0000
      5  CHD       19.4940   13.1630   24.2600 C.2   1560  HEM1560     0.0000
      6  NA        18.5920   12.8390   29.2470 N.2   1560  HEM1560     0.0000
      7  C1A       18.2390   14.1700   29.5120 C.2   1560  HEM1560     0.0000
      8  C2A       17.7970   14.2890   30.8750 C.2   1560  HEM1560     0.0000
      9  C3A       17.8260   13.0940   31.4060 C.2   1560  HEM1560     0.0000
     10  C4A       18.3210   12.1440   30.4460 C.2   1560  HEM1560     0.0000
     11  CMA       17.4250   12.7140   32.8570 C.3   1560  HEM1560     0.0000
     12  CAA       17.3830   15.6460   31.5320 C.3   1560  HEM1560     0.0000
     13  CBA       18.6210   16.3610   32.1160 C.3   1560  HEM1560     0.0000
     14  CGA       18.3410   17.7210   32.7300 C.2   1560  HEM1560     0.0000
     15  O1A       19.2090   18.1910   33.4750 O.co2 1560  HEM1560     0.0000
     16  O2A       17.2320   18.2220   32.4350 O.co2 1560  HEM1560     0.0000
     17  NB        19.4900   10.2520   28.4040 N.ar  1560  HEM1560     0.0000
     18  C1B       19.1580    9.9190   29.7400 C.ar  1560  HEM1560     0.0000
     19  C2B       19.5440    8.5770   30.0200 C.ar  1560  HEM1560     0.0000
     20  C3B       20.1120    8.1010   28.8880 C.ar  1560  HEM1560     0.0000
     21  C4B       20.0240    9.1110   27.8710 C.ar  1560  HEM1560     0.0000
     22  CMB       19.3700    7.8530   31.3700 C.3   1560  HEM1560     0.0000
     23  CAB       20.6610    6.7350   28.5990 C.2   1560  HEM1560     0.0000
     24  CBB       21.4740    6.0420   29.4390 C.2   1560  HEM1560     0.0000
     25  NC        19.7930   11.2510   25.7070 N.2   1560  HEM1560     0.0000
     26  C1C       20.3910    9.9890   25.4980 C.2   1560  HEM1560     0.0000
     27  C2C       20.9530    9.8850   24.1960 C.2   1560  HEM1560     0.0000
     28  C3C       20.6810   11.0640   23.5880 C.2   1560  HEM1560     0.0000
     29  C4C       19.9560   11.8810   24.4920 C.2   1560  HEM1560     0.0000
     30  CMC       21.7110    8.6490   23.6630 C.3   1560  HEM1560     0.0000
     31  CAC       21.0390   11.5570   22.1690 C.2   1560  HEM1560     0.0000
     32  CBC       22.0770   11.1580   21.5200 C.2   1560  HEM1560     0.0000
     33  ND        18.9450   13.8300   26.5730 N.ar  1560  HEM1560     0.0000
     34  C1D       19.0480   14.0910   25.1760 C.ar  1560  HEM1560     0.0000
     35  C2D       18.7000   15.4710   24.9520 C.ar  1560  HEM1560     0.0000
     36  C3D       18.4130   16.0190   26.2320 C.ar  1560  HEM1560     0.0000
     37  C4D       18.5660   15.0350   27.2420 C.ar  1560  HEM1560     0.0000
     38  CMD       18.6760   16.1120   23.5660 C.3   1560  HEM1560     0.0000
     39  CAD       18.0450   17.5090   26.4620 C.3   1560  HEM1560     0.0000
     40  CBD       16.5480   17.7550   26.5390 C.3   1560  HEM1560     0.0000
     41  CGD       16.1920   19.1790   26.9400 C.2   1560  HEM1560     0.0000
     42  O1D       14.9830   19.4260   27.0900 O.co2 1560  HEM1560     0.0000
     43  O2D       17.1100   19.9810   27.0560 O.co2 1560  HEM1560     0.0000
@<TRIPOS>BOND
     1    32    31    2
     2    31    28    1
     3    38    35    1
     4    28    27    2
     5    28    29    1
     6    30    27    1
     7    27    26    1
     8     5    29    1
     9     5    34    2
    10    29    25    2
    11    35    34   ar
    12    35    36   ar
    13    34    33   ar
    14    26    25    1
    15    26     4    2
    16    25     1    1
    17    36    39    1
    18    36    37   ar
    19    39    40    1
    20     4    21    1
    21    40    41    1
    22    33    37   ar
    23    33     1    1
    24    41    43   ar
    25    41    42   ar
    26    37     2    2
    27     1    17    1
    28     1     6    1
    29    21    17   ar
    30    21    20   ar
    31    17    18   ar
    32    23    20    1
    33    23    24    2
    34     2     7    1
    35    20    19   ar
    36     6     7    2
    37     6    10    1
    38     7     8    1
    39    18    19   ar
    40    18     3    1
    41    19    22    1
    42    10     3    2
    43    10     9    1
    44     8     9    2
    45     8    12    1
    46     9    11    1
    47    12    13    1
    48    13    14    1
    49    16    14   ar
    50    14    15   ar
