@<TRIPOS>MOLECULE
2wj1_S99_A_1.pdb
 25 27 0 0 0
SMALL
GASTEIGER

@<TRIPOS>ATOM
      1  CAI        1.8240  -40.1690   13.7180 C.ar  1577  S991577    -0.0043
      2  CAE        0.9500  -40.2330   14.8150 C.ar  1577  S991577    -0.0003
      3  CAC        1.4310  -40.1330   16.1160 C.ar  1577  S991577    -0.0000
      4  CAF        2.8050  -39.9550   16.3460 C.ar  1577  S991577    -0.0003
      5  CAJ        3.6970  -39.9010   15.2750 C.ar  1577  S991577    -0.0043
      6  CAV        3.2020  -40.0090   13.9590 C.ar  1577  S991577    -0.0222
      7  CAQ        4.2130  -39.9180   12.7950 C.3   1577  S991577     0.0264
      8  CAO        3.5690  -39.8140   11.3870 C.3   1577  S991577     0.0047
      9  CAM        4.7170  -39.6620   10.3570 C.3   1577  S991577     0.0003
     10  CAN        4.2140  -39.5270    8.9170 C.3   1577  S991577     0.0001
     11  CAP        5.3550  -38.9560    8.0400 C.3   1577  S991577     0.0032
     12  CAR        5.2380  -37.4110    7.9600 C.3   1577  S991577     0.0438
     13  CAZ        6.3420  -36.8060    7.0790 C.3   1577  S991577     0.2399
     14  OAA        7.5920  -37.1470    7.6100 O.3   1577  S991577    -0.2118
     15  CAY        6.2500  -35.2840    7.0870 C.2   1577  S991577     0.2839
     16  NAT        5.3850  -34.5350    7.7660 N.2   1577  S991577    -0.3684
     17  OAU        7.1150  -34.4780    6.4090 O.2   1577  S991577    -0.4452
     18  CAL        6.7040  -33.1850    6.6730 C.3   1577  S991577     0.2677
     19  CAX        5.6540  -33.2390    7.4930 C.2   1577  S991577     0.1736
     20  CAW        4.9710  -32.1410    8.0100 C.ar  1577  S991577     0.1104
     21  CAK        3.7480  -32.3270    8.6640 C.ar  1577  S991577     0.0215
     22  CAG        3.0660  -31.2190    9.2010 C.ar  1577  S991577     0.0032
     23  CAD        3.6610  -29.9590    9.0750 C.ar  1577  S991577     0.0207
     24  CAH        4.8990  -29.8250    8.4320 C.ar  1577  S991577     0.0989
     25  NAS        5.5070  -30.9010    7.9360 N.ar  1577  S991577    -0.2415
@<TRIPOS>BOND
     1    17    18    1
     2    17    15    1
     3    18    19    1
     4    13    15    1
     5    13    14    1
     6    13    12    1
     7    15    16    2
     8    19    16    2
     9    19    20    1
    10    25    20   ar
    11    25    24   ar
    12    12    11    1
    13    20    21   ar
    14    11    10    1
    15    24    23   ar
    16    21    22   ar
    17    10     9    1
    18    23    22   ar
    19     9     8    1
    20     8     7    1
    21     7     6    1
    22     1     6   ar
    23     1     2   ar
    24     6     5   ar
    25     2     3   ar
    26     5     4   ar
    27     3     4   ar
