@<TRIPOS>MOLECULE
2wj2_OL1_A_1.pdb
 25 27 0 0 0
SMALL
GASTEIGER

@<TRIPOS>ATOM
      1  O14       39.5060  -38.0880    7.7650 O.3   1579  OL11579    -0.2131
      2  C13       38.9520  -38.7790    6.6320 C.3   1579  OL11579     0.2274
      3  C15       37.4910  -39.1750    6.9660 C.ar  1579  OL11579     0.2363
      4  O19       37.0540  -40.4260    7.1780 O.2   1579  OL11579    -0.4342
      5  C18       35.7180  -40.3350    7.4830 C.ar  1579  OL11579     0.1835
      6  C20       34.8900  -41.4470    7.7520 C.ar  1579  OL11579     0.1173
      7  C25       35.3260  -42.7610    7.4500 C.ar  1579  OL11579     0.0223
      8  C24       34.4590  -43.8350    7.7200 C.ar  1579  OL11579     0.0032
      9  C23       33.1980  -43.5770    8.2840 C.ar  1579  OL11579     0.0207
     10  C22       32.8330  -42.2530    8.5560 C.ar  1579  OL11579     0.0989
     11  N21       33.6600  -41.2420    8.3030 N.ar  1579  OL11579    -0.2407
     12  C17       35.3900  -39.0490    7.4320 C.ar  1579  OL11579     0.1408
     13  N16       36.4750  -38.3430    7.1310 N.ar  1579  OL11579    -0.2083
     14  C12       39.7780  -40.0230    6.3580 C.3   1579  OL11579     0.0426
     15  C11       41.2250  -39.6820    6.0510 C.3   1579  OL11579     0.0031
     16  C10       42.0510  -40.9280    5.7280 C.3   1579  OL11579     0.0001
     17  C9        42.5170  -41.5520    7.0340 C.3   1579  OL11579     0.0003
     18  C8        43.0760  -42.9540    6.8500 C.3   1579  OL11579     0.0047
     19  C7        43.7600  -43.3460    8.1740 C.3   1579  OL11579     0.0264
     20  C3        44.2290  -44.7870    8.2750 C.ar  1579  OL11579    -0.0222
     21  C2        44.2010  -45.6490    7.1750 C.ar  1579  OL11579    -0.0043
     22  C4        44.7030  -45.2530    9.5110 C.ar  1579  OL11579    -0.0043
     23  C5        45.1440  -46.5700    9.6410 C.ar  1579  OL11579    -0.0003
     24  C6        45.1100  -47.4240    8.5380 C.ar  1579  OL11579    -0.0000
     25  C1        44.6370  -46.9670    7.3140 C.ar  1579  OL11579    -0.0003
@<TRIPOS>BOND
     1    16    15    1
     2    16    17    1
     3    15    14    1
     4    14     2    1
     5     2     3    1
     6     2     1    1
     7    18    17    1
     8    18    19    1
     9     3    13   ar
    10     3     4   ar
    11    13    12   ar
    12    21    25   ar
    13    21    20   ar
    14     4     5   ar
    15    25    24   ar
    16    12     5   ar
    17     7     8   ar
    18     7     6   ar
    19     5     6    1
    20     8     9   ar
    21     6    11   ar
    22    19    20    1
    23    20    22   ar
    24     9    10   ar
    25    11    10   ar
    26    24    23   ar
    27    22    23   ar
