@<TRIPOS>MOLECULE
2wj4_HQD_A_1.pdb
 13 14 0 0 0
SMALL
GASTEIGER

@<TRIPOS>ATOM
      1  N1         7.6950   74.2680   21.3230 N.2   1281  HQD1281    -0.4075
      2  C2         8.0080   73.6460   22.4970 C.2   1281  HQD1281     0.1248
      3  C3         7.0110   73.5510   23.5620 C.3   1281  HQD1281     0.2601
      4  C4         5.7780   74.1700   23.4100 C.2   1281  HQD1281     0.2119
      5  C5         4.2590   75.3960   22.0670 C.2   1281  HQD1281    -0.0159
      6  C6         3.9560   76.0630   20.8720 C.3   1281  HQD1281     0.0523
      7  C7         4.9250   76.1410   19.8370 C.2   1281  HQD1281    -0.0188
      8  C8         6.1620   75.5240   19.9940 C.2   1281  HQD1281     0.0279
      9  C9         6.4550   74.8610   21.1590 C.2   1281  HQD1281     0.1329
     10  C10        5.4840   74.8340   22.2410 C.2   1281  HQD1281     0.0632
     11  C          9.3450   73.0300   22.6750 C.3   1281  HQD1281     0.0647
     12  O3         7.3410   72.9670   24.7590 O.3   1281  HQD1281    -0.2074
     13  O13        4.9300   74.1010   24.3150 O.2   1281  HQD1281    -0.2881
@<TRIPOS>BOND
     1     7     8    2
     2     7     6    1
     3     8     9    1
     4     6     5    1
     5     9     1    2
     6     9    10    1
     7     1     2    2
     8     5    10    2
     9    10     4    1
    10     2    11    1
    11     2     3    1
    12     4     3    1
    13     4    13    2
    14     3    12    1
