@<TRIPOS>MOLECULE
2wj6_ZZ8_A_1.pdb
 13 13 0 0 0
SMALL
GASTEIGER

@<TRIPOS>ATOM
      1  O21        7.9430   73.6330   23.8490 O.2   1284  ZZ81284    -0.2730
      2  C8         8.4410   73.5660   22.7370 C.2   1284  ZZ81284     0.2461
      3  C11        9.8430   73.0130   22.6120 C.3   1284  ZZ81284     0.0968
      4  N7         7.9350   73.9530   21.5560 N.am  1284  ZZ81284    -0.1790
      5  C6         6.8090   74.6610   21.2790 C.ar  1284  ZZ81284     0.0797
      6  C1         6.9060   75.5440   20.1830 C.ar  1284  ZZ81284     0.0168
      7  C2         5.8640   76.3950   19.8200 C.ar  1284  ZZ81284     0.0013
      8  C3         4.6830   76.4300   20.5740 C.ar  1284  ZZ81284     0.0003
      9  C4         4.5330   75.5910   21.6770 C.ar  1284  ZZ81284     0.0079
     10  C5         5.5520   74.7080   22.0650 C.ar  1284  ZZ81284     0.0951
     11  C10        5.3250   73.7530   23.1860 C.2   1284  ZZ81284     0.3890
     12  O12        4.8130   74.0540   24.2670 O.co2 1284  ZZ81284    -0.2405
     13  O13        5.6490   72.5480   22.9200 O.co2 1284  ZZ81284    -0.2405
@<TRIPOS>BOND
     1     7     6   ar
     2     7     8   ar
     3     6     5   ar
     4     8     9   ar
     5     5     4    1
     6     5    10   ar
     7     4     2   am
     8     9    10   ar
     9    10    11    1
    10     3     2    1
    11     2     1    2
    12    13    11   ar
    13    11    12   ar
