@<TRIPOS>MOLECULE
2wjg_GDP_A_1.pdb
 28 30 0 0 0
SMALL
GASTEIGER

@<TRIPOS>ATOM
      1  PB        -7.5630   25.9100  -19.0170 P.3   200  GDP200      0.5373
      2  O1B       -8.4760   27.1210  -18.9600 O.2   200  GDP200     -0.2221
      3  O2B       -8.3690   24.6790  -18.6650 O.3   200  GDP200     -0.1143
      4  O3B       -6.4330   26.1080  -18.0200 O.3   200  GDP200     -0.1143
      5  O3A       -6.9220   25.6130  -20.4570 O.3   200  GDP200     -0.2261
      6  PA        -6.7230   26.6880  -21.6380 P.3   200  GDP200      0.2231
      7  O1A       -5.9680   27.9350  -21.2680 O.3   200  GDP200     -0.4370
      8  O2A       -8.0690   27.0330  -22.2390 O.2   200  GDP200     -0.5169
      9  O5'       -5.8060   25.7750  -22.6040 O.3   200  GDP200     -0.3111
     10  C5'       -4.5320   25.3640  -22.1040 C.3   200  GDP200      0.1813
     11  C4'       -3.6540   24.9750  -23.2810 C.3   200  GDP200      0.1799
     12  O4'       -4.2450   23.8810  -23.9930 O.3   200  GDP200     -0.3326
     13  C3'       -3.5810   26.1390  -24.2490 C.3   200  GDP200      0.2158
     14  O3'       -2.2350   26.1760  -24.7270 O.3   200  GDP200     -0.2175
     15  C2'       -4.5350   25.7580  -25.3580 C.3   200  GDP200      0.2310
     16  O2'       -4.1710   26.2730  -26.6410 O.3   200  GDP200     -0.2158
     17  C1'       -4.3930   24.2570  -25.3580 C.3   200  GDP200      0.2293
     18  N9        -5.6040   23.6470  -25.9170 N.pl3 200  GDP200     -0.2354
     19  C8        -6.8760   23.9660  -25.6400 C.3   200  GDP200      0.2246
     20  N7        -7.7220   23.1740  -26.3450 N.2   200  GDP200     -0.2322
     21  C5        -6.9740   22.3250  -27.0840 C.2   200  GDP200      0.2182
     22  C6        -7.2300   21.2320  -28.0600 C.1   200  GDP200      0.2372
     23  O6        -8.4120   20.8940  -28.3620 O.2   200  GDP200     -0.2069
     24  N1        -6.1560   20.6200  -28.5960 N.2   200  GDP200     -0.2485
     25  C2        -4.8900   20.9760  -28.2730 C.1   200  GDP200      0.2531
     26  N2        -3.8570   20.3210  -28.8340 N.pl3 200  GDP200     -0.0226
     27  N3        -4.5840   21.9710  -27.3990 N.2   200  GDP200     -0.3074
     28  C4        -5.5780   22.6480  -26.7840 C.2   200  GDP200      0.2300
@<TRIPOS>BOND
     1    26    25    1
     2    24    25    2
     3    24    22    2
     4    23    22    2
     5    25    27    2
     6    22    21    1
     7    27    28    2
     8    21    28    1
     9    21    20    2
    10    28    18    1
    11    16    15    1
    12    20    19    1
    13    18    19    1
    14    18    17    1
    15    15    17    1
    16    15    13    1
    17    17    12    1
    18    14    13    1
    19    13    11    1
    20    12    11    1
    21    11    10    1
    22     9    10    1
    23     9     6    1
    24     8     6    2
    25     6     7    1
    26     6     5    1
    27     5     1    1
    28     1     2    2
    29     1     3    1
    30     1     4    1
