@<TRIPOS>MOLECULE
2wjh_GDP_A_1.pdb
 28 30 0 0 0
SMALL
GASTEIGER

@<TRIPOS>ATOM
      1  PB       -31.2110   12.1740  -16.8170 P.3   200  GDP200      0.5373
      2  O1B      -32.4090   13.0050  -16.4650 O.3   200  GDP200     -0.1143
      3  O2B      -31.0270   11.0560  -15.7980 O.3   200  GDP200     -0.1143
      4  O3B      -29.9690   13.0300  -16.8690 O.2   200  GDP200     -0.2221
      5  O3A      -31.4420   11.5660  -18.2720 O.3   200  GDP200     -0.2261
      6  PA       -32.3620   12.3550  -19.3360 P.3   200  GDP200      0.2231
      7  O1A      -32.0930   13.8420  -19.3070 O.2   200  GDP200     -0.5169
      8  O2A      -33.8260   12.0300  -19.1300 O.3   200  GDP200     -0.4370
      9  O5'      -31.8120   11.6870  -20.6840 O.3   200  GDP200     -0.3111
     10  C5'      -30.4600   11.9650  -21.0470 C.3   200  GDP200      0.1813
     11  C4'      -30.2730   11.5310  -22.4860 C.3   200  GDP200      0.1799
     12  O4'      -30.4620   10.1160  -22.5620 O.3   200  GDP200     -0.3326
     13  C3'      -31.3490   12.1880  -23.3390 C.3   200  GDP200      0.2158
     14  O3'      -30.7550   12.9520  -24.3920 O.3   200  GDP200     -0.2175
     15  C2'      -32.1740   11.0440  -23.8970 C.3   200  GDP200      0.2310
     16  O2'      -32.4770   11.2000  -25.2880 O.3   200  GDP200     -0.2158
     17  C1'      -31.3090    9.8190  -23.6700 C.3   200  GDP200      0.2293
     18  N9       -32.1910    8.6750  -23.3900 N.pl3 200  GDP200     -0.2354
     19  C8       -33.1600    8.5900  -22.4560 C.3   200  GDP200      0.2246
     20  N7       -33.7690    7.3740  -22.5020 N.2   200  GDP200     -0.2322
     21  C5       -33.1660    6.6710  -23.4890 C.2   200  GDP200      0.2182
     22  C6       -33.2910    5.3290  -24.0930 C.1   200  GDP200      0.2372
     23  O6       -34.1280    4.5270  -23.6700 O.2   200  GDP200     -0.2069
     24  N1       -32.4780    4.9940  -25.0950 N.2   200  GDP200     -0.2485
     25  C2       -31.5480    5.8290  -25.5890 C.1   200  GDP200      0.2531
     26  N2       -30.7710    5.4030  -26.6140 N.pl3 200  GDP200     -0.0226
     27  N3       -31.3670    7.0800  -25.0940 N.2   200  GDP200     -0.3074
     28  C4       -32.1310    7.5370  -24.0680 C.2   200  GDP200      0.2300
@<TRIPOS>BOND
     1    26    25    1
     2    25    24    2
     3    25    27    2
     4    16    15    1
     5    24    22    2
     6    27    28    2
     7    14    13    1
     8    22    23    2
     9    22    21    1
    10    28    21    1
    11    28    18    1
    12    15    17    1
    13    15    13    1
    14    17    18    1
    15    17    12    1
    16    21    20    2
    17    18    19    1
    18    13    11    1
    19    12    11    1
    20    20    19    1
    21    11    10    1
    22    10     9    1
    23     9     6    1
    24     6     7    2
    25     6     8    1
    26     6     5    1
    27     5     1    1
    28     4     1    2
    29     1     2    1
    30     1     3    1
