@<TRIPOS>MOLECULE
2wji_GNP_A_1.pdb
 32 34 0 0 0
SMALL
GASTEIGER

@<TRIPOS>ATOM
      1  PG        10.0360    2.6690   26.8960 P.3   1166  GNP1166     0.4884
      2  O1G       10.7720    3.4670   27.9240 O.3   1166  GNP1166    -0.1240
      3  O2G       10.8150    1.4690   26.3890 O.3   1166  GNP1166    -0.1240
      4  O3G        9.7430    3.7070   25.8400 O.2   1166  GNP1166    -0.2331
      5  N3B        8.6330    2.1510   27.4770 N.3   1166  GNP1166    -0.0163
      6  PB         8.3170    1.6310   28.9590 P.3   1166  GNP1166     0.4669
      7  O1B        8.9230    0.2990   29.1520 O.2   1166  GNP1166    -0.2351
      8  O2B        8.7390    2.6620   29.9070 O.3   1166  GNP1166    -0.1253
      9  O3A        6.7950    1.4590   29.0970 O.3   1166  GNP1166    -0.2360
     10  PA         5.8010    2.4030   29.8160 P.3   1166  GNP1166     0.2220
     11  O1A        5.8350    2.1240   31.2750 O.3   1166  GNP1166    -0.4370
     12  O2A        5.9840    3.8150   29.4100 O.2   1166  GNP1166    -0.5170
     13  O5'        4.3910    1.9450   29.3110 O.3   1166  GNP1166    -0.3111
     14  C5'        4.2470    1.4370   27.9910 C.3   1166  GNP1166     0.1813
     15  C4'        2.7800    1.1840   27.6970 C.3   1166  GNP1166     0.1799
     16  O4'        2.3320   -0.0390   28.3400 O.3   1166  GNP1166    -0.3326
     17  C3'        1.8370    2.2850   28.1710 C.3   1166  GNP1166     0.2158
     18  O3'        0.7440    2.3890   27.2670 O.3   1166  GNP1166    -0.2175
     19  C2'        1.3550    1.7460   29.5020 C.3   1166  GNP1166     0.2310
     20  O2'        0.0780    2.2420   29.8410 O.3   1166  GNP1166    -0.2158
     21  C1'        1.2460    0.2640   29.1800 C.3   1166  GNP1166     0.2293
     22  N9         1.2960   -0.5440   30.3870 N.pl3 1166  GNP1166    -0.2354
     23  C8         2.2140   -0.4450   31.4070 C.3   1166  GNP1166     0.2246
     24  N7         1.9920   -1.2970   32.3710 N.2   1166  GNP1166    -0.2322
     25  C5         0.8500   -1.9910   31.9710 C.2   1166  GNP1166     0.2182
     26  C6         0.1350   -3.0350   32.6080 C.1   1166  GNP1166     0.2372
     27  O6         0.3730   -3.5740   33.7010 O.2   1166  GNP1166    -0.2069
     28  N1        -0.9680   -3.4540   31.8590 N.2   1166  GNP1166    -0.2485
     29  C2        -1.3350   -2.9270   30.6400 C.1   1166  GNP1166     0.2531
     30  N2        -2.4300   -3.4580   30.0650 N.pl3 1166  GNP1166    -0.0226
     31  N3        -0.6680   -1.9510   30.0320 N.2   1166  GNP1166    -0.3074
     32  C4         0.4060   -1.5320   30.7510 C.2   1166  GNP1166     0.2300
@<TRIPOS>BOND
     1     4     1    2
     2     3     1    1
     3     1     5    1
     4     1     2    1
     5    18    17    1
     6     5     6    1
     7    15    14    1
     8    15    17    1
     9    15    16    1
    10    14    13    1
    11    17    19    1
    12    16    21    1
    13     6     9    1
    14     6     7    2
    15     6     8    1
    16     9    10    1
    17    21    19    1
    18    21    22    1
    19    13    10    1
    20    12    10    2
    21    19    20    1
    22    10    11    1
    23    31    29    2
    24    31    32    2
    25    30    29    1
    26    22    32    1
    27    22    23    1
    28    29    28    2
    29    32    25    1
    30    23    24    1
    31    28    26    2
    32    25    24    2
    33    25    26    1
    34    26    27    2
