@<TRIPOS>MOLECULE
2wjj_GDP_A_1.pdb
 28 30 0 0 0
SMALL
GASTEIGER

@<TRIPOS>ATOM
      1  PB        34.9200   16.4710   53.4880 P.3   200  GDP200      0.5373
      2  O1B       33.9600   15.3120   53.4040 O.3   200  GDP200     -0.1143
      3  O2B       34.1490   17.7310   53.2010 O.3   200  GDP200     -0.1143
      4  O3B       36.0370   16.2420   52.5130 O.2   200  GDP200     -0.2221
      5  O3A       35.5910   16.7300   54.9200 O.3   200  GDP200     -0.2261
      6  PA        35.7950   15.6790   56.1160 P.3   200  GDP200      0.2231
      7  O1A       36.5670   14.4380   55.7850 O.2   200  GDP200     -0.5169
      8  O2A       34.4580   15.3570   56.7260 O.3   200  GDP200     -0.4370
      9  O5'       36.7010   16.6500   57.0280 O.3   200  GDP200     -0.3111
     10  C5'       38.0140   16.9840   56.5820 C.3   200  GDP200      0.1813
     11  C4'       38.8840   17.3630   57.7710 C.3   200  GDP200      0.1799
     12  O4'       38.2920   18.4590   58.4690 O.3   200  GDP200     -0.3326
     13  C3'       38.9460   16.2170   58.7620 C.3   200  GDP200      0.2158
     14  O3'       40.2720   16.1990   59.3020 O.3   200  GDP200     -0.2175
     15  C2'       37.9530   16.5970   59.8370 C.3   200  GDP200      0.2310
     16  O2'       38.3080   16.1220   61.1330 O.3   200  GDP200     -0.2158
     17  C1'       38.0880   18.0950   59.8220 C.3   200  GDP200      0.2293
     18  N9        36.8520   18.6760   60.3440 N.pl3 200  GDP200     -0.2354
     19  C8        35.5930   18.3420   60.0560 C.3   200  GDP200      0.2246
     20  N7        34.7370   19.1170   60.7600 N.2   200  GDP200     -0.2322
     21  C5        35.4640   19.9570   61.5150 C.2   200  GDP200      0.2182
     22  C6        35.1980   21.0320   62.4950 C.1   200  GDP200      0.2372
     23  O6        34.0260   21.3600   62.7920 O.2   200  GDP200     -0.2069
     24  N1        36.2630   21.6440   63.0330 N.2   200  GDP200     -0.2485
     25  C2        37.5360   21.3080   62.7240 C.1   200  GDP200      0.2531
     26  N2        38.5660   21.9650   63.3000 N.pl3 200  GDP200     -0.0226
     27  N3        37.8470   20.3260   61.8510 N.2   200  GDP200     -0.3074
     28  C4        36.8610   19.6520   61.2270 C.2   200  GDP200      0.2300
@<TRIPOS>BOND
     1     4     1    2
     2     3     1    1
     3     2     1    1
     4     1     5    1
     5     5     6    1
     6     7     6    2
     7     6     8    1
     8     6     9    1
     9    10     9    1
    10    10    11    1
    11    11    12    1
    12    11    13    1
    13    12    17    1
    14    13    14    1
    15    13    15    1
    16    17    15    1
    17    17    18    1
    18    15    16    1
    19    19    18    1
    20    19    20    1
    21    18    28    1
    22    20    21    2
    23    28    21    1
    24    28    27    2
    25    21    22    1
    26    27    25    2
    27    22    23    2
    28    22    24    2
    29    25    24    2
    30    25    26    1
