@<TRIPOS>MOLECULE
2wjk_RET_A_1.pdb
 20 20 0 0 0
SMALL
GASTEIGER

@<TRIPOS>ATOM
      1  C1        15.1710   45.2710    0.1130 C.3   301  RET301      0.0183
      2  C2        15.1700   46.2520   -1.0640 C.3   301  RET301      0.0044
      3  C3        14.3530   47.5110   -0.8490 C.3   301  RET301      0.0047
      4  C4        14.8990   48.3090    0.3310 C.3   301  RET301      0.0217
      5  C5        15.0820   47.3780    1.5320 C.2   301  RET301     -0.0479
      6  C6        15.3300   45.9980    1.4460 C.2   301  RET301     -0.0310
      7  C7        15.7080   45.4000    2.6410 C.2   301  RET301     -0.0092
      8  C8        15.5630   44.0910    3.0090 C.2   301  RET301     -0.0224
      9  C9        16.1900   43.4370    4.0520 C.3   301  RET301      0.0440
     10  C10       16.4220   42.0780    3.9220 C.2   301  RET301     -0.0221
     11  C11       16.7340   41.2340    4.9800 C.2   301  RET301     -0.0049
     12  C12       16.8810   39.8840    4.6830 C.2   301  RET301     -0.0088
     13  C13       17.2530   38.9120    5.5940 C.2   301  RET301     -0.0439
     14  C14       17.1180   37.5960    5.1960 C.3   301  RET301      0.0220
     15  C15       17.1260   36.3950    6.1330 C.3   301  RET301      0.0047
     16  C16       13.8380   44.4940    0.1360 C.3   301  RET301      0.0043
     17  C17       16.3200   44.2800   -0.1800 C.3   301  RET301      0.0043
     18  C18       14.9870   48.0090    2.9300 C.3   301  RET301      0.0260
     19  C19       16.6130   44.1830    5.3200 C.3   301  RET301      0.0094
     20  C20       17.7930   39.2570    6.9820 C.3   301  RET301      0.0264
@<TRIPOS>BOND
     1     2     3    1
     2     2     1    1
     3     3     4    1
     4    17     1    1
     5     1    16    1
     6     1     6    1
     7     4     5    1
     8     6     5    2
     9     6     7    1
    10     5    18    1
    11     7     8    2
    12     8     9    1
    13    10     9    1
    14    10    11    2
    15     9    19    1
    16    12    11    1
    17    12    13    2
    18    14    13    1
    19    14    15    1
    20    13    20    1
