@<TRIPOS>MOLECULE
2wjl_RET_A_1.pdb
 20 20 0 0 0
SMALL
GASTEIGER

@<TRIPOS>ATOM
      1  C1        15.1960   45.3450    0.1120 C.3   301  RET301      0.0183
      2  C2        15.0120   46.2950   -1.0770 C.3   301  RET301      0.0044
      3  C3        14.1680   47.5200   -0.7700 C.3   301  RET301      0.0047
      4  C4        14.8850   48.3750    0.2820 C.3   301  RET301      0.0217
      5  C5        15.1620   47.4770    1.5020 C.2   301  RET301     -0.0479
      6  C6        15.4230   46.0990    1.4220 C.2   301  RET301     -0.0307
      7  C7        15.8910   45.5100    2.5860 C.2   301  RET301     -0.0052
      8  C8        15.7870   44.2010    2.9750 C.2   301  RET301     -0.0049
      9  C9        16.4510   43.6060    4.0370 C.2   301  RET301     -0.0258
     10  C10       16.7100   42.2490    3.9780 C.2   301  RET301     -0.0257
     11  C11       17.1710   41.4760    5.0430 C.3   301  RET301      0.0510
     12  C12       17.2630   40.1160    4.7900 C.2   301  RET301     -0.0299
     13  C13       17.5240   39.1000    5.6800 C.2   301  RET301     -0.0478
     14  C14       17.4400   37.7950    5.2090 C.3   301  RET301      0.0217
     15  C15       17.2440   36.6010    6.1330 C.3   301  RET301      0.0047
     16  C16       13.9510   44.4510    0.2500 C.3   301  RET301      0.0043
     17  C17       16.4130   44.4630   -0.2410 C.3   301  RET301      0.0043
     18  C18       15.1510   48.1350    2.8830 C.3   301  RET301      0.0260
     19  C19       16.8820   44.4360    5.2450 C.3   301  RET301      0.0307
     20  C20       17.8940   39.3550    7.1410 C.3   301  RET301      0.0260
@<TRIPOS>BOND
     1     2     3    1
     2     2     1    1
     3     3     4    1
     4    17     1    1
     5     1    16    1
     6     1     6    1
     7     4     5    1
     8     6     5    2
     9     6     7    1
    10     5    18    1
    11     7     8    2
    12     8     9    1
    13    10     9    2
    14    10    11    1
    15     9    19    1
    16    12    11    1
    17    12    13    2
    18    14    13    1
    19    14    15    1
    20    13    20    1
